REMARK  Name = ZINC61632637
REMARK  7 active torsions:
REMARK  status: ('A' for Active; 'I' for Inactive)
REMARK    1  A    between atoms: C_1  and  C_2
REMARK    2  A    between atoms: C_8  and  C_25
REMARK    3  A    between atoms: C_8  and  C_26
REMARK    4  A    between atoms: C_10  and  N_11
REMARK    5  A    between atoms: N_14  and  C_15
REMARK    6  A    between atoms: C_15  and  C_16
REMARK    7  A    between atoms: C_15  and  C_22
REMARK                            x       y       z     vdW  Elec       q    Type
REMARK                         _______ _______ _______ _____ _____    ______ ____
ROOT
ATOM      1  N   UNL     1      -2.496  -3.308   0.956  0.00  0.00    -0.292 N 
ATOM      2  C   UNL     1      -3.661  -2.739   0.591  0.00  0.00    +0.301 C 
ATOM      3  O   UNL     1      -3.801  -2.309  -0.538  0.00  0.00    -0.253 OA
ATOM      4  N   UNL     1      -4.673  -2.646   1.477  0.00  0.00    -0.284 N 
ATOM      5  H   UNL     1      -2.384  -3.651   1.856  0.00  0.00    +0.151 HD
ATOM      6  H   UNL     1      -4.561  -2.989   2.377  0.00  0.00    +0.151 HD
ENDROOT
BRANCH   1  16
ATOM      7  C   UNL     1      -0.018   1.503   0.010  0.00  0.00    +0.086 C 
ATOM      8  C   UNL     1       0.002  -0.004   0.002  0.00  0.00    +0.103 A 
ATOM      9  C   UNL     1      -1.081  -0.806   0.003  0.00  0.00    +0.050 A 
ATOM     10  C   UNL     1      -0.602  -2.129  -0.007  0.00  0.00    +0.014 A 
ATOM     11  C   UNL     1       0.745  -2.064  -0.014  0.00  0.00    +0.111 A 
ATOM     12  O   UNL     1       1.104  -0.775  -0.013  0.00  0.00    -0.464 OA
ATOM     13  C   UNL     1       1.646  -3.276  -0.028  0.00  0.00    +0.081 C 
ATOM     14  C   UNL     1       0.815  -4.493  -0.450  0.00  0.00    -0.026 C 
ATOM     15  C   UNL     1      -0.462  -4.558   0.393  0.00  0.00    +0.034 C 
ATOM     16  C   UNL     1      -1.397  -3.409  -0.008  0.00  0.00    +0.109 C 
ATOM     17  C   UNL     1       0.444  -4.369  -1.929  0.00  0.00    +0.011 C 
ATOM     18  C   UNL     1       1.633  -5.768  -0.235  0.00  0.00    +0.011 C 
ENDBRANCH   1  16
BRANCH   4  19
ATOM     19  C   UNL     1      -5.940  -2.027   1.080  0.00  0.00    +0.190 C 
BRANCH  19  20
ATOM     20  C   UNL     1      -7.052  -2.562   1.945  0.00  0.00    -0.018 A 
ATOM     21  C   UNL     1      -6.843  -2.760   3.297  0.00  0.00    +0.006 A 
ATOM     22  C   UNL     1      -7.863  -3.250   4.090  0.00  0.00    +0.000 A 
ATOM     23  C   UNL     1      -9.094  -3.543   3.531  0.00  0.00    +0.000 A 
ATOM     24  C   UNL     1      -9.303  -3.344   2.179  0.00  0.00    +0.000 A 
ATOM     25  C   UNL     1      -8.284  -2.849   1.387  0.00  0.00    +0.006 A 
ENDBRANCH  19  20
BRANCH  19  26
ATOM     26  C   UNL     1      -5.845  -0.533   1.252  0.00  0.00    +0.235 C 
ATOM     27  O   UNL     1      -4.819  -0.034   1.665  0.00  0.00    -0.274 OA
ATOM     28  N   UNL     1      -6.899   0.249   0.946  0.00  0.00    -0.328 N 
ATOM     29  H   UNL     1      -7.719  -0.150   0.616  0.00  0.00    +0.145 HD
ATOM     30  H   UNL     1      -6.838   1.211   1.056  0.00  0.00    +0.145 HD
ENDBRANCH  19  26
ENDBRANCH   4  19
TORSDOF 4
