REMARK  Name = ZINC54829590
REMARK  9 active torsions:
REMARK  status: ('A' for Active; 'I' for Inactive)
REMARK    1  A    between atoms: C_1  and  C_2
REMARK    2  A    between atoms: C_2  and  C_3
REMARK    3  A    between atoms: C_2  and  C_4
REMARK    4  A    between atoms: C_2  and  C_5
REMARK    5  A    between atoms: C_5  and  C_7
REMARK    6  A    between atoms: C_5  and  N_13
REMARK    7  A    between atoms: N_13  and  S_14
REMARK    8  A    between atoms: S_14  and  C_17
REMARK    9  A    between atoms: N_19  and  C_22
REMARK                            x       y       z     vdW  Elec       q    Type
REMARK                         _______ _______ _______ _____ _____    ______ ____
ROOT
ATOM      1  N   UNL     1      -0.030   0.144  -2.447  0.00  0.00    -0.181 NA
ATOM      2  H   UNL     1      -0.403   1.039  -2.467  0.00  0.00    +0.149 HD
ENDROOT
BRANCH   1   3
ATOM      3  S   UNL     1      -0.166  -0.839  -3.773  0.00  0.00    +0.079 S 
ATOM      4  O   UNL     1      -0.892  -0.105  -4.750  0.00  0.00    -0.151 OA
ATOM      5  O   UNL     1       1.131  -1.364  -4.024  0.00  0.00    -0.151 OA
BRANCH   3   6
ATOM      6  C   UNL     1      -1.181  -2.202  -3.310  0.00  0.00    +0.230 A 
ATOM      7  C   UNL     1      -0.753  -3.359  -2.765  0.00  0.00    +0.156 A 
ATOM      8  N   UNL     1      -1.862  -4.135  -2.563  0.00  0.00    -0.323 N 
ATOM      9  C   UNL     1      -2.930  -3.425  -2.991  0.00  0.00    +0.202 A 
ATOM     10  N   UNL     1      -2.515  -2.270  -3.431  0.00  0.00    -0.215 NA
ATOM     11  C   UNL     1      -1.887  -5.483  -1.989  0.00  0.00    +0.151 C 
ATOM     12 CL   UNL     1       0.889  -3.783  -2.392  0.00  0.00    -0.060 Cl
ENDBRANCH   3   6
ENDBRANCH   1   3
BRANCH   1  13
ATOM     13  C   UNL     1       0.652  -0.339  -1.244  0.00  0.00    +0.112 C 
BRANCH  13  14
ATOM     14  C   UNL     1       2.096   0.092  -1.278  0.00  0.00    -0.028 A 
ATOM     15  C   UNL     1       2.429   1.356  -1.727  0.00  0.00    +0.005 A 
ATOM     16  C   UNL     1       3.753   1.751  -1.758  0.00  0.00    +0.000 A 
ATOM     17  C   UNL     1       4.744   0.883  -1.339  0.00  0.00    +0.000 A 
ATOM     18  C   UNL     1       4.410  -0.381  -0.889  0.00  0.00    +0.000 A 
ATOM     19  C   UNL     1       3.086  -0.775  -0.854  0.00  0.00    +0.005 A 
ENDBRANCH  13  14
BRANCH  13  21
ATOM     20  C   UNL     1      -0.022   1.773  -0.092  0.00  0.00    +0.012 C 
ATOM     21  C   UNL     1      -0.026   0.245  -0.004  0.00  0.00    -0.017 C 
ATOM     22  C   UNL     1       0.735  -0.195   1.249  0.00  0.00    +0.012 C 
ATOM     23  C   UNL     1      -1.469  -0.257   0.074  0.00  0.00    +0.012 C 
ENDBRANCH  13  21
ENDBRANCH   1  13
TORSDOF 5
