REMARK  Name = ZINC13131836
REMARK  5 active torsions:
REMARK  status: ('A' for Active; 'I' for Inactive)
REMARK    1  A    between atoms: C_1  and  C_2
REMARK    2  A    between atoms: C_2  and  O_3
REMARK    3  A    between atoms: O_3  and  C_4
REMARK    4  A    between atoms: C_7  and  C_10
REMARK    5  A    between atoms: C_13  and  C_22
REMARK                            x       y       z     vdW  Elec       q    Type
REMARK                         _______ _______ _______ _____ _____    ______ ____
ROOT
ATOM      1  C   UNL     1      -2.001  -6.092  -0.011  0.00  0.00    +0.143 C 
ATOM      2  C   UNL     1      -2.778  -6.523   1.239  0.00  0.00    +0.058 C 
ATOM      3  C   UNL     1      -3.200  -7.991   1.106  0.00  0.00    +0.106 C 
ATOM      4  N   UNL     1      -4.104  -8.118  -0.053  0.00  0.00    -0.307 N 
ATOM      5  C   UNL     1      -3.731  -7.431  -1.202  0.00  0.00    +0.216 A 
ATOM      6  N   UNL     1      -2.754  -6.491  -1.200  0.00  0.00    -0.224 N 
ATOM      7  N   UNL     1      -2.645  -6.023  -2.510  0.00  0.00    -0.132 NA
ATOM      8  C   UNL     1      -3.533  -6.680  -3.222  0.00  0.00    +0.233 A 
ATOM      9  N   UNL     1      -4.194  -7.533  -2.419  0.00  0.00    -0.180 NA
ATOM     10  N   UNL     1      -3.757  -6.514  -4.590  0.00  0.00    -0.326 N 
ATOM     11  H   UNL     1      -4.914  -8.650  -0.015  0.00  0.00    +0.149 HD
ATOM     12  H   UNL     1      -3.235  -5.870  -5.092  0.00  0.00    +0.145 HD
ATOM     13  H   UNL     1      -4.436  -7.043  -5.037  0.00  0.00    +0.145 HD
ENDROOT
BRANCH   3  14
ATOM     14  C   UNL     1      -3.913  -8.428   2.359  0.00  0.00    -0.027 A 
ATOM     15  C   UNL     1      -5.245  -8.105   2.544  0.00  0.00    +0.008 A 
ATOM     16  C   UNL     1      -5.900  -8.506   3.693  0.00  0.00    +0.038 A 
ATOM     17  C   UNL     1      -5.222  -9.231   4.659  0.00  0.00    +0.123 A 
ATOM     18  C   UNL     1      -3.889  -9.553   4.472  0.00  0.00    +0.038 A 
ATOM     19  C   UNL     1      -3.237  -9.156   3.320  0.00  0.00    +0.008 A 
ATOM     20  F   UNL     1      -5.862  -9.623   5.782  0.00  0.00    -0.205 F 
ENDBRANCH   3  14
BRANCH   1  24
ATOM     21  C   UNL     1      -1.498  -1.848   0.006  0.00  0.00    +0.121 A 
ATOM     22  C   UNL     1      -0.388  -2.679  -0.003  0.00  0.00    +0.046 A 
ATOM     23  C   UNL     1      -0.553  -4.051  -0.008  0.00  0.00    +0.009 A 
ATOM     24  C   UNL     1      -1.823  -4.596  -0.005  0.00  0.00    -0.023 A 
ATOM     25  C   UNL     1      -2.932  -3.769   0.004  0.00  0.00    +0.009 A 
ATOM     26  C   UNL     1      -2.772  -2.397   0.016  0.00  0.00    +0.046 A 
BRANCH  21  27
ATOM     27  O   UNL     1      -1.339  -0.499   0.012  0.00  0.00    -0.492 OA
BRANCH  27  29
ATOM     28  C   UNL     1      -0.019   1.526   0.010  0.00  0.00    +0.048 C 
ATOM     29  C   UNL     1       0.002  -0.004   0.002  0.00  0.00    +0.225 C 
ENDBRANCH  27  29
ENDBRANCH  21  27
ENDBRANCH   1  24
TORSDOF 4
