REMARK  Name = ZINC14992228
REMARK  13 active torsions:
REMARK  status: ('A' for Active; 'I' for Inactive)
REMARK    1  A    between atoms: C_1  and  C_2
REMARK    2  A    between atoms: C_2  and  C_3
REMARK    3  A    between atoms: C_2  and  C_4
REMARK    4  A    between atoms: C_4  and  C_5
REMARK    5  A    between atoms: C_5  and  C_7
REMARK    6  A    between atoms: C_5  and  N_27
REMARK    7  A    between atoms: C_16  and  C_17
REMARK    8  A    between atoms: C_16  and  N_63
REMARK    9  A    between atoms: C_19  and  O_25
REMARK   10  A    between atoms: C_21  and  O_23
REMARK   11  A    between atoms: O_23  and  C_24
REMARK   12  A    between atoms: O_25  and  C_26
REMARK   13  A    between atoms: C_28  and  C_30
REMARK                            x       y       z     vdW  Elec       q    Type
REMARK                         _______ _______ _______ _____ _____    ______ ____
ROOT
ATOM      1  C   UNL     1       0.813  -0.489  -1.172  0.00  0.00    +0.154 A 
ATOM      2  N   UNL     1       0.441  -0.489  -2.425  0.00  0.00    -0.132 NA
ATOM      3  N   UNL     1       1.386  -0.964  -3.160  0.00  0.00    -0.134 NA
ATOM      4  C   UNL     1       2.400  -1.282  -2.410  0.00  0.00    +0.132 A 
ATOM      5  N   UNL     1       2.061  -1.000  -1.128  0.00  0.00    -0.315 N 
ATOM      6  C   UNL     1       2.887  -1.246   0.054  0.00  0.00    +0.106 C 
ATOM      7  C   UNL     1       4.364  -1.189  -0.346  0.00  0.00    -0.056 C 
ATOM      8  C   UNL     1       4.092  -3.019  -1.927  0.00  0.00    -0.071 C 
ATOM      9  C   UNL     1       3.728  -1.848  -2.845  0.00  0.00    +0.058 C 
ATOM     10  N   UNL     1       4.857  -2.522  -0.763  0.00  0.00    +0.384 N 
ATOM     11  H   UNL     1       5.846  -2.440  -1.028  0.00  0.00    -0.081 HD
ENDROOT
BRANCH   1  12
ATOM     12  C   UNL     1       0.002  -0.004   0.002  0.00  0.00    +0.141 C 
BRANCH  12  13
ATOM     13  N   UNL     1      -1.368  -0.510  -0.108  0.00  0.00    -0.306 N 
ATOM     14  C   UNL     1      -2.122  -0.189  -1.179  0.00  0.00    +0.210 C 
ATOM     15  O   UNL     1      -1.665   0.519  -2.051  0.00  0.00    -0.276 OA
ATOM     16  C   UNL     1      -3.531  -0.710  -1.292  0.00  0.00    +0.109 C 
ATOM     17  H   UNL     1      -1.733  -1.077   0.590  0.00  0.00    +0.149 HD
ENDBRANCH  12  13
BRANCH  12  18
ATOM     18  C   UNL     1      -0.019   1.526   0.010  0.00  0.00    +0.033 C 
BRANCH  18  20
ATOM     19  C   UNL     1       0.073   1.619   2.506  0.00  0.00    +0.007 C 
ATOM     20  C   UNL     1      -0.735   2.019   1.269  0.00  0.00    -0.015 C 
ATOM     21  C   UNL     1      -0.866   3.543   1.217  0.00  0.00    +0.007 C 
ENDBRANCH  18  20
ENDBRANCH  12  18
ENDBRANCH   1  12
BRANCH  10  22
ATOM     22  C   UNL     1       4.741  -3.473   0.357  0.00  0.00    -0.043 C 
BRANCH  22  23
ATOM     23  C   UNL     1       5.473  -4.738  -0.010  0.00  0.00    -0.057 A 
ATOM     24  C   UNL     1       4.797  -5.771  -0.630  0.00  0.00    +0.047 A 
ATOM     25  C   UNL     1       5.471  -6.935  -0.974  0.00  0.00    +0.124 A 
ATOM     26  C   UNL     1       6.820  -7.064  -0.684  0.00  0.00    +0.091 A 
ATOM     27  C   UNL     1       7.495  -6.029  -0.057  0.00  0.00    +0.124 A 
ATOM     28  C   UNL     1       6.818  -4.865   0.281  0.00  0.00    +0.047 A 
BRANCH  27  29
ATOM     29  O   UNL     1       8.818  -6.153   0.228  0.00  0.00    -0.495 OA
ATOM     30  C   UNL     1       9.450  -7.378  -0.147  0.00  0.00    +0.277 C 
ENDBRANCH  27  29
BRANCH  25  31
ATOM     31  O   UNL     1       4.807  -7.948  -1.590  0.00  0.00    -0.495 OA
ATOM     32  C   UNL     1       5.562  -9.118  -1.910  0.00  0.00    +0.277 C 
ENDBRANCH  25  31
ENDBRANCH  22  23
ENDBRANCH  10  22
TORSDOF 8
