REMARK  Name = ZINC33301840
REMARK  6 active torsions:
REMARK  status: ('A' for Active; 'I' for Inactive)
REMARK    1  A    between atoms: C_1  and  C_2
REMARK    2  A    between atoms: C_5  and  S_8
REMARK    3  A    between atoms: S_8  and  C_11
REMARK    4  A    between atoms: C_16  and  N_17
REMARK    5  A    between atoms: C_21  and  C_24
REMARK    6  A    between atoms: C_21  and  N_27
REMARK                            x       y       z     vdW  Elec       q    Type
REMARK                         _______ _______ _______ _____ _____    ______ ____
ROOT
ATOM      1  C   UNL     1       6.886  -2.087   7.291  0.00  0.00    +0.151 A 
ATOM      2  C   UNL     1       7.359  -2.519   6.067  0.00  0.00    +0.145 A 
ATOM      3  N   UNL     1       6.650  -2.275   4.975  0.00  0.00    -0.221 NA
ATOM      4  C   UNL     1       5.497  -1.626   5.043  0.00  0.00    +0.220 A 
ATOM      5  N   UNL     1       5.011  -1.191   6.196  0.00  0.00    -0.198 NA
ATOM      6  C   UNL     1       5.668  -1.405   7.331  0.00  0.00    +0.147 A 
ATOM      7  N   UNL     1       4.786  -1.391   3.879  0.00  0.00    -0.300 N 
ATOM      8  C   UNL     1       5.488  -1.941   2.713  0.00  0.00    +0.107 C 
ATOM      9  C   UNL     1       4.750  -1.538   1.434  0.00  0.00    +0.016 C 
ATOM     10  C   UNL     1       3.316  -2.072   1.489  0.00  0.00    +0.015 C 
ATOM     11  C   UNL     1       2.621  -1.524   2.738  0.00  0.00    +0.016 C 
ATOM     12  C   UNL     1       3.422  -1.926   3.979  0.00  0.00    +0.107 C 
ENDROOT
BRANCH  10  13
ATOM     13  N   UNL     1       2.585  -1.639   0.291  0.00  0.00    +0.389 N 
ATOM     14  C   UNL     1       1.227  -2.197   0.272  0.00  0.00    -0.077 C 
ATOM     15  C   UNL     1       0.548  -1.847  -1.054  0.00  0.00    -0.019 C 
ATOM     16  C   UNL     1       0.496  -0.324  -1.208  0.00  0.00    -0.004 C 
ATOM     17  C   UNL     1       1.919   0.237  -1.137  0.00  0.00    -0.019 C 
ATOM     18  C   UNL     1       2.558  -0.174   0.192  0.00  0.00    -0.077 C 
ATOM     19  H   UNL     1       3.118  -2.025  -0.591  0.00  0.00    -0.080 HD
ENDBRANCH  10  13
BRANCH  10  20
ATOM     20  C   UNL     1       3.341  -3.578   1.547  0.00  0.00    +0.200 C 
ATOM     21  O   UNL     1       3.208  -4.146   2.610  0.00  0.00    -0.278 OA
ATOM     22  N   UNL     1       3.511  -4.293   0.417  0.00  0.00    -0.330 N 
ATOM     23  H   UNL     1       3.529  -5.392   0.459  0.00  0.00    +0.145 HD
ATOM     24  H   UNL     1       3.631  -3.777  -0.547  0.00  0.00    +0.145 HD
ENDBRANCH  10  20
BRANCH   1  25
ATOM     25  S   UNL     1       7.798  -2.390   8.768  0.00  0.00    +0.030 S 
ATOM     26  O   UNL     1       8.951  -3.129   8.389  0.00  0.00    -0.164 OA
ATOM     27  O   UNL     1       7.881  -1.149   9.456  0.00  0.00    -0.164 OA
BRANCH  25  32
ATOM     28  C   UNL     1       4.458  -6.050  12.211  0.00  0.00    +0.044 C 
ATOM     29  C   UNL     1       5.292  -5.136  11.351  0.00  0.00    -0.050 A 
ATOM     30  C   UNL     1       6.090  -5.663  10.353  0.00  0.00    +0.005 A 
ATOM     31  C   UNL     1       6.856  -4.825   9.564  0.00  0.00    +0.027 A 
ATOM     32  C   UNL     1       6.823  -3.459   9.773  0.00  0.00    +0.094 A 
ATOM     33  C   UNL     1       6.029  -2.932  10.774  0.00  0.00    +0.027 A 
ATOM     34  C   UNL     1       5.260  -3.770  11.560  0.00  0.00    +0.005 A 
ENDBRANCH  25  32
ENDBRANCH   1  25
BRANCH   6  35
ATOM     35  N   UNL     1       5.154  -0.954   8.536  0.00  0.00    -0.341 N 
ATOM     36  H   UNL     1       4.194  -0.418   8.559  0.00  0.00    +0.144 HD
ATOM     37  H   UNL     1       5.707  -1.133   9.471  0.00  0.00    +0.144 HD
ENDBRANCH   6  35
TORSDOF 5
