REMARK  Name = ZINC04851955
REMARK  7 active torsions:
REMARK  status: ('A' for Active; 'I' for Inactive)
REMARK    1  A    between atoms: C_1  and  C_2
REMARK    2  A    between atoms: C_2  and  C_3
REMARK    3  A    between atoms: C_2  and  C_4
REMARK    4  A    between atoms: C_2  and  O_19
REMARK    5  A    between atoms: N_6  and  C_7
REMARK    6  A    between atoms: C_15  and  C_16
REMARK    7  A    between atoms: O_19  and  C_20
REMARK                            x       y       z     vdW  Elec       q    Type
REMARK                         _______ _______ _______ _____ _____    ______ ____
ROOT
ATOM      1  C   UNL     1       1.569   5.747  -0.004  0.00  0.00    +0.261 C 
ATOM      2  O   UNL     1       0.360   5.737  -0.109  0.00  0.00    -0.271 OA
ATOM      3  N   UNL     1       2.217   4.643   0.416  0.00  0.00    -0.279 N 
ATOM      4  H   UNL     1       3.177   4.669   0.559  0.00  0.00    +0.155 HD
ENDROOT
BRANCH   3   5
ATOM      5  C   UNL     1       1.512   3.467   0.645  0.00  0.00    +0.092 A 
ATOM      6  C   UNL     1       0.259   3.049   0.006  0.00  0.00    +0.042 A 
ATOM      7  C   UNL     1      -0.580   3.619  -0.952  0.00  0.00    +0.013 A 
ATOM      8  C   UNL     1      -1.707   2.956  -1.348  0.00  0.00    +0.001 A 
ATOM      9  C   UNL     1      -2.022   1.719  -0.802  0.00  0.00    +0.004 A 
ATOM     10  C   UNL     1      -1.207   1.140   0.146  0.00  0.00    +0.047 A 
ATOM     11  C   UNL     1      -0.055   1.797   0.563  0.00  0.00    +0.138 A 
ATOM     12  O   UNL     1       0.908   1.489   1.455  0.00  0.00    -0.448 OA
ATOM     13  C   UNL     1       1.844   2.463   1.512  0.00  0.00    +0.211 A 
BRANCH  13  14
ATOM     14  C   UNL     1       3.027   2.446   2.371  0.00  0.00    +0.279 C 
ATOM     15  O   UNL     1       3.757   3.419   2.421  0.00  0.00    -0.267 OA
ATOM     16  N   UNL     1       3.309   1.354   3.108  0.00  0.00    -0.323 N 
ATOM     17  H   UNL     1       2.728   0.578   3.068  0.00  0.00    +0.145 HD
ATOM     18  H   UNL     1       4.094   1.343   3.678  0.00  0.00    +0.145 HD
ENDBRANCH  13  14
ENDBRANCH   3   5
BRANCH   1  20
ATOM     19  C   UNL     1       3.115   7.466   0.892  0.00  0.00    +0.065 C 
ATOM     20  C   UNL     1       2.344   6.994  -0.342  0.00  0.00    +0.180 C 
ATOM     21  C   UNL     1       3.329   6.691  -1.473  0.00  0.00    +0.065 C 
BRANCH  20  22
ATOM     22  O   UNL     1       1.440   8.019  -0.759  0.00  0.00    -0.477 OA
BRANCH  22  23
ATOM     23  C   UNL     1       0.482   8.395   0.128  0.00  0.00    +0.122 A 
ATOM     24  C   UNL     1       0.330   7.704   1.321  0.00  0.00    +0.047 A 
ATOM     25  C   UNL     1      -0.642   8.090   2.224  0.00  0.00    +0.023 A 
ATOM     26  C   UNL     1      -1.470   9.160   1.934  0.00  0.00    +0.041 A 
ATOM     27  C   UNL     1      -1.324   9.848   0.743  0.00  0.00    +0.023 A 
ATOM     28  C   UNL     1      -0.350   9.467  -0.160  0.00  0.00    +0.047 A 
ATOM     29 CL   UNL     1      -2.694   9.640   3.068  0.00  0.00    -0.084 Cl
ENDBRANCH  22  23
ENDBRANCH  20  22
ENDBRANCH   1  20
TORSDOF 5
