REMARK  Name = ZINC45796221
REMARK  3 active torsions:
REMARK  status: ('A' for Active; 'I' for Inactive)
REMARK    1  A    between atoms: C_1  and  C_2
REMARK    2  A    between atoms: C_3  and  C_16
REMARK    3  A    between atoms: C_12  and  N_15
REMARK                            x       y       z     vdW  Elec       q    Type
REMARK                         _______ _______ _______ _____ _____    ______ ____
ROOT
ATOM      1  C   UNL     1      -2.364   0.089   0.330  0.00  0.00    +0.049 C 
ATOM      2  C   UNL     1      -1.072  -0.667   0.151  0.00  0.00    +0.018 C 
ATOM      3  C   UNL     1      -0.700  -1.204  -1.033  0.00  0.00    +0.126 C 
ATOM      4  S   UNL     1       0.867  -1.946  -0.626  0.00  0.00    +0.101 S 
ATOM      5  O   UNL     1       0.714  -3.356  -0.713  0.00  0.00    -0.146 OA
ATOM      6  O   UNL     1       1.880  -1.224  -1.313  0.00  0.00    -0.146 OA
ATOM      7  N   UNL     1       0.961  -1.542   0.995  0.00  0.00    -0.113 NA
ATOM      8  C   UNL     1      -0.131  -0.870   1.234  0.00  0.00    +0.148 C 
ATOM      9  N   UNL     1      -0.387  -0.368   2.495  0.00  0.00    -0.314 N 
ATOM     10  C   UNL     1      -1.101   0.905   2.663  0.00  0.00    +0.105 C 
ATOM     11  C   UNL     1      -0.262   1.827   3.553  0.00  0.00    +0.003 C 
ATOM     12  C   UNL     1       0.059   1.109   4.865  0.00  0.00    -0.072 C 
ATOM     13  C   UNL     1       0.874  -0.152   4.572  0.00  0.00    +0.003 C 
ATOM     14  C   UNL     1       0.043  -1.100   3.694  0.00  0.00    +0.105 C 
ENDROOT
BRANCH   3  15
ATOM     15  C   UNL     1      -1.407  -1.181  -2.325  0.00  0.00    +0.002 A 
ATOM     16  C   UNL     1      -2.214  -0.091  -2.664  0.00  0.00    +0.011 A 
ATOM     17  C   UNL     1      -2.873  -0.076  -3.875  0.00  0.00    +0.020 A 
ATOM     18  C   UNL     1      -2.739  -1.138  -4.754  0.00  0.00    +0.041 A 
ATOM     19  C   UNL     1      -1.941  -2.222  -4.424  0.00  0.00    +0.020 A 
ATOM     20  C   UNL     1      -1.271  -2.247  -3.219  0.00  0.00    +0.011 A 
ATOM     21 CL   UNL     1      -3.573  -1.112  -6.276  0.00  0.00    -0.084 Cl
ENDBRANCH   3  15
BRANCH  12  22
ATOM     22  N   UNL     1       0.835   2.003   5.735  0.00  0.00    +0.380 N 
ATOM     23  H   UNL     1       0.297   2.834   5.929  0.00  0.00    -0.090 HD
ATOM     24  H   UNL     1       1.047   1.529   6.601  0.00  0.00    -0.090 HD
ATOM     25  H   UNL     1       1.695   2.259   5.273  0.00  0.00    -0.090 HD
ENDBRANCH  12  22
TORSDOF 2
