REMARK  Name = ZINC66261133
REMARK  8 active torsions:
REMARK  status: ('A' for Active; 'I' for Inactive)
REMARK    1  A    between atoms: C_1  and  C_2
REMARK    2  A    between atoms: C_2  and  C_4
REMARK    3  A    between atoms: C_2  and  S_16
REMARK    4  A    between atoms: S_16  and  C_17
REMARK    5  A    between atoms: C_20  and  C_22
REMARK    6  A    between atoms: C_25  and  C_28
REMARK    7  A    between atoms: C_28  and  C_29
REMARK    8  A    between atoms: C_28  and  C_30
REMARK                            x       y       z     vdW  Elec       q    Type
REMARK                         _______ _______ _______ _____ _____    ______ ____
ROOT
ATOM      1  S   UNL     1       0.879  -0.605   1.472  0.00  0.00    -0.055 S 
ENDROOT
BRANCH   1   2
ATOM      2  C   UNL     1      -0.136  -0.087   2.816  0.00  0.00    +0.278 A 
ATOM      3  N   UNL     1      -1.266   0.576   2.725  0.00  0.00    -0.101 NA
ATOM      4  N   UNL     1      -1.735   0.784   3.905  0.00  0.00    -0.106 NA
ATOM      5  C   UNL     1      -0.924   0.264   4.795  0.00  0.00    +0.249 A 
ATOM      6  O   UNL     1       0.102  -0.303   4.123  0.00  0.00    -0.411 OA
BRANCH   5   7
ATOM      7  C   UNL     1      -1.103   0.289   6.261  0.00  0.00    +0.039 A 
ATOM      8  C   UNL     1      -0.152  -0.302   7.094  0.00  0.00    +0.013 A 
ATOM      9  C   UNL     1      -0.325  -0.276   8.462  0.00  0.00    +0.004 A 
ATOM     10  C   UNL     1      -1.439   0.336   9.010  0.00  0.00    -0.045 A 
ATOM     11  C   UNL     1      -2.386   0.924   8.190  0.00  0.00    +0.004 A 
ATOM     12  C   UNL     1      -2.222   0.910   6.821  0.00  0.00    +0.013 A 
BRANCH  10  13
ATOM     13  C   UNL     1      -1.621   0.360  10.505  0.00  0.00    +0.013 C 
ATOM     14  C   UNL     1      -1.680   1.811  10.988  0.00  0.00    +0.012 C 
ATOM     15  C   UNL     1      -2.925  -0.352  10.871  0.00  0.00    +0.012 C 
ENDBRANCH  10  13
ENDBRANCH   5   7
ENDBRANCH   1   2
BRANCH   1  17
ATOM     16  C   UNL     1      -0.019   1.526   0.010  0.00  0.00    +0.027 C 
ATOM     17  C   UNL     1       0.002  -0.004   0.002  0.00  0.00    +0.119 C 
BRANCH  17  18
ATOM     18  C   UNL     1       0.707  -0.490  -1.238  0.00  0.00    +0.124 A 
ATOM     19  N   UNL     1      -0.044  -0.802  -2.326  0.00  0.00    -0.309 N 
ATOM     20  H   UNL     1      -1.008  -0.708  -2.287  0.00  0.00    +0.170 HD
ATOM     21  C   UNL     1       0.542  -1.243  -3.464  0.00  0.00    +0.259 A 
ATOM     22  O   UNL     1      -0.119  -1.525  -4.447  0.00  0.00    -0.267 OA
ATOM     23  C   UNL     1       2.007  -1.366  -3.467  0.00  0.00    +0.065 A 
ATOM     24  C   UNL     1       2.707  -1.810  -4.587  0.00  0.00    +0.015 A 
ATOM     25  C   UNL     1       4.080  -1.908  -4.535  0.00  0.00    +0.001 A 
ATOM     26  C   UNL     1       4.769  -1.567  -3.378  0.00  0.00    +0.002 A 
ATOM     27  C   UNL     1       4.096  -1.127  -2.261  0.00  0.00    +0.028 A 
ATOM     28  C   UNL     1       2.704  -1.019  -2.289  0.00  0.00    +0.078 A 
ATOM     29  N   UNL     1       2.002  -0.584  -1.213  0.00  0.00    -0.233 NA
ENDBRANCH  17  18
ENDBRANCH   1  17
TORSDOF 5
