REMARK  Name = ZINC14076165
REMARK  8 active torsions:
REMARK  status: ('A' for Active; 'I' for Inactive)
REMARK    1  A    between atoms: C_1  and  C_2
REMARK    2  A    between atoms: C_2  and  C_4
REMARK    3  A    between atoms: C_2  and  S_13
REMARK    4  A    between atoms: N_9  and  C_10
REMARK    5  A    between atoms: S_13  and  C_14
REMARK    6  A    between atoms: N_19  and  C_20
REMARK    7  A    between atoms: C_20  and  C_21
REMARK    8  A    between atoms: C_20  and  C_22
REMARK                            x       y       z     vdW  Elec       q    Type
REMARK                         _______ _______ _______ _____ _____    ______ ____
ROOT
ATOM      1  C   UNL     1      -0.019   1.526   0.010  0.00  0.00    +0.029 C 
ATOM      2  C   UNL     1       0.002  -0.004   0.002  0.00  0.00    +0.136 C 
ENDROOT
BRANCH   2   3
ATOM      3  C   UNL     1       0.707  -0.490  -1.238  0.00  0.00    +0.233 C 
ATOM      4  O   UNL     1       0.067  -0.782  -2.225  0.00  0.00    -0.274 OA
ATOM      5  N   UNL     1       2.051  -0.601  -1.250  0.00  0.00    -0.239 N 
ATOM      6  C   UNL     1       2.682  -1.035  -2.358  0.00  0.00    +0.306 C 
ATOM      7  O   UNL     1       2.039  -1.327  -3.348  0.00  0.00    -0.252 OA
ATOM      8  N   UNL     1       4.025  -1.146  -2.370  0.00  0.00    -0.296 N 
ATOM      9  H   UNL     1       2.563  -0.367  -0.460  0.00  0.00    +0.159 HD
ATOM     10  H   UNL     1       4.537  -0.912  -1.580  0.00  0.00    +0.151 HD
BRANCH   8  11
ATOM     11  C   UNL     1       4.710  -1.618  -3.575  0.00  0.00    +0.075 C 
ATOM     12  C   UNL     1       5.836  -2.638  -3.394  0.00  0.00    +0.024 C 
ATOM     13  C   UNL     1       6.167  -1.193  -3.772  0.00  0.00    +0.024 C 
ENDBRANCH   8  11
ENDBRANCH   2   3
BRANCH   2  14
ATOM     14  S   UNL     1      -1.700  -0.632   0.015  0.00  0.00    -0.084 S 
BRANCH  14  15
ATOM     15  C   UNL     1      -2.335  -0.110   1.573  0.00  0.00    +0.161 A 
ATOM     16  N   UNL     1      -1.743   0.582   2.528  0.00  0.00    -0.133 NA
ATOM     17  N   UNL     1      -2.431   0.886   3.680  0.00  0.00    -0.125 NA
ATOM     18  C   UNL     1      -3.679   0.483   3.825  0.00  0.00    +0.183 A 
ATOM     19  S   UNL     1      -3.955  -0.370   2.280  0.00  0.00    -0.025 S 
ATOM     20  N   UNL     1      -4.548   0.677   4.892  0.00  0.00    -0.320 N 
ATOM     21  H   UNL     1      -5.448   0.317   4.856  0.00  0.00    +0.148 HD
BRANCH  20  22
ATOM     22  C   UNL     1      -4.105   1.423   6.072  0.00  0.00    +0.066 C 
ATOM     23  C   UNL     1      -5.319   2.026   6.780  0.00  0.00    +0.027 C 
ATOM     24  C   UNL     1      -3.374   0.479   7.029  0.00  0.00    +0.027 C 
ENDBRANCH  20  22
ENDBRANCH  14  15
ENDBRANCH   2  14
TORSDOF 5
