REMARK  Name = ZINC62800357
REMARK  6 active torsions:
REMARK  status: ('A' for Active; 'I' for Inactive)
REMARK    1  A    between atoms: C_1  and  C_2
REMARK    2  A    between atoms: C_2  and  C_4
REMARK    3  A    between atoms: C_2  and  O_8
REMARK    4  A    between atoms: N_6  and  C_7
REMARK    5  A    between atoms: O_8  and  C_9
REMARK    6  A    between atoms: N_18  and  O_19
REMARK                            x       y       z     vdW  Elec       q    Type
REMARK                         _______ _______ _______ _____ _____    ______ ____
ROOT
ATOM      1  C   UNL     1      -0.107  -0.775  -2.244  0.00  0.00    +0.125 A 
ATOM      2  C   UNL     1      -1.473  -0.534  -2.200  0.00  0.00    +0.046 A 
ATOM      3  C   UNL     1      -2.268  -0.847  -3.286  0.00  0.00    +0.004 A 
ATOM      4  C   UNL     1      -1.708  -1.400  -4.418  0.00  0.00    +0.010 A 
ATOM      5  C   UNL     1      -0.330  -1.648  -4.474  0.00  0.00    +0.006 A 
ATOM      6  C   UNL     1       0.468  -1.326  -3.381  0.00  0.00    +0.004 A 
ATOM      7  C   UNL     1       1.906  -1.675  -3.680  0.00  0.00    +0.046 C 
ATOM      8  C   UNL     1       1.924  -2.254  -5.101  0.00  0.00    +0.064 C 
ATOM      9  C   UNL     1       0.487  -2.225  -5.562  0.00  0.00    +0.088 C 
ATOM     10  N   UNL     1       0.049  -2.624  -6.711  0.00  0.00    -0.092 NA
ENDROOT
BRANCH  10  11
ATOM     11  O   UNL     1       0.949  -3.160  -7.665  0.00  0.00    -0.409 OA
ATOM     12  H   UNL     1       0.529  -3.430  -8.493  0.00  0.00    +0.328 HD
ENDBRANCH  10  11
BRANCH   1  13
ATOM     13  O   UNL     1       0.671  -0.465  -1.174  0.00  0.00    -0.480 OA
BRANCH  13  15
ATOM     14  C   UNL     1      -0.248   1.498  -0.106  0.00  0.00    +0.062 C 
ATOM     15  C   UNL     1       0.002  -0.007   0.003  0.00  0.00    +0.255 C 
BRANCH  15  16
ATOM     16  C   UNL     1       0.861  -0.287   1.210  0.00  0.00    +0.253 C 
ATOM     17  O   UNL     1       1.976  -0.743   1.068  0.00  0.00    -0.272 OA
ATOM     18  N   UNL     1       0.389  -0.032   2.446  0.00  0.00    -0.315 N 
ATOM     19  C   UNL     1       1.223  -0.305   3.619  0.00  0.00    +0.128 C 
ATOM     20  H   UNL     1      -0.503   0.332   2.560  0.00  0.00    +0.148 HD
ENDBRANCH  15  16
ENDBRANCH  13  15
ENDBRANCH   1  13
TORSDOF 4
