REMARK  Name = ZINC67392713
REMARK  8 active torsions:
REMARK  status: ('A' for Active; 'I' for Inactive)
REMARK    1  A    between atoms: C_1  and  C_2
REMARK    2  A    between atoms: N_7  and  C_9
REMARK    3  A    between atoms: C_9  and  C_10
REMARK    4  A    between atoms: C_9  and  C_11
REMARK    5  A    between atoms: C_9  and  C_12
REMARK    6  A    between atoms: C_12  and  N_13
REMARK    7  A    between atoms: C_14  and  C_16
REMARK    8  A    between atoms: N_18  and  C_19
REMARK                            x       y       z     vdW  Elec       q    Type
REMARK                         _______ _______ _______ _____ _____    ______ ____
ROOT
ATOM      1  N   UNL     1      -0.056  -4.409   2.203  0.00  0.00    -0.309 N 
ATOM      2  C   UNL     1      -0.403  -5.704   2.343  0.00  0.00    +0.299 C 
ATOM      3  O   UNL     1       0.430  -6.524   2.667  0.00  0.00    -0.265 OA
ATOM      4  H   UNL     1      -0.722  -3.753   1.944  0.00  0.00    +0.149 HD
ENDROOT
BRANCH   2   5
ATOM      5  C   UNL     1      -1.814  -6.129   2.098  0.00  0.00    +0.303 C 
ATOM      6  O   UNL     1      -2.647  -5.308   1.773  0.00  0.00    -0.265 OA
ATOM      7  N   UNL     1      -2.161  -7.423   2.237  0.00  0.00    -0.278 N 
ATOM      8  H   UNL     1      -1.483  -8.090   2.426  0.00  0.00    +0.155 HD
BRANCH   7   9
ATOM      9  C   UNL     1      -3.501  -7.805   2.109  0.00  0.00    +0.036 A 
ATOM     10  C   UNL     1      -3.819  -9.096   1.704  0.00  0.00    +0.027 A 
ATOM     11  C   UNL     1      -5.141  -9.478   1.576  0.00  0.00    +0.049 A 
ATOM     12  C   UNL     1      -6.152  -8.574   1.853  0.00  0.00    +0.142 A 
ATOM     13  C   UNL     1      -5.836  -7.278   2.260  0.00  0.00    +0.077 A 
ATOM     14  C   UNL     1      -4.512  -6.896   2.392  0.00  0.00    +0.050 A 
ATOM     15  N   UNL     1      -6.872  -6.373   2.534  0.00  0.00    -0.280 N 
ATOM     16  C   UNL     1      -8.125  -6.846   2.707  0.00  0.00    +0.255 C 
ATOM     17  O   UNL     1      -9.042  -6.080   2.915  0.00  0.00    -0.272 OA
ATOM     18  C   UNL     1      -8.380  -8.331   2.642  0.00  0.00    +0.325 C 
ATOM     19  O   UNL     1      -7.458  -8.937   1.732  0.00  0.00    -0.481 OA
ATOM     20  H   UNL     1      -6.691  -5.423   2.598  0.00  0.00    +0.155 HD
ENDBRANCH   7   9
ENDBRANCH   2   5
BRANCH   1  21
ATOM     21  C   UNL     1       1.328  -3.992   2.444  0.00  0.00    +0.092 C 
BRANCH  21  22
ATOM     22  C   UNL     1       1.428  -2.469   2.338  0.00  0.00    -0.055 C 
ATOM     23  C   UNL     1       2.885  -2.039   2.517  0.00  0.00    -0.008 C 
ATOM     24  C   UNL     1       0.568  -1.825   3.427  0.00  0.00    -0.008 C 
BRANCH  22  30
ATOM     25  C   UNL     1       0.362   1.413  -0.448  0.00  0.00    +0.005 C 
ATOM     26  C   UNL     1       0.367  -0.116  -0.387  0.00  0.00    -0.031 C 
ATOM     27  C   UNL     1       1.235  -0.670  -1.520  0.00  0.00    -0.001 C 
ATOM     28  C   UNL     1       1.297  -2.196  -1.403  0.00  0.00    -0.018 C 
ATOM     29  C   UNL     1       1.836  -2.574  -0.022  0.00  0.00    -0.078 C 
ATOM     30  N   UNL     1       0.949  -2.038   1.017  0.00  0.00    +0.384 N 
ATOM     31  C   UNL     1       0.940  -0.571   0.957  0.00  0.00    -0.075 C 
ATOM     32  H   UNL     1       0.013  -2.385   0.871  0.00  0.00    -0.081 HD
ENDBRANCH  22  30
ENDBRANCH  21  22
ENDBRANCH   1  21
TORSDOF 5
