REMARK  Name = ZINC36490721
REMARK  14 active torsions:
REMARK  status: ('A' for Active; 'I' for Inactive)
REMARK    1  A    between atoms: C_1  and  C_2
REMARK    2  A    between atoms: C_2  and  C_3
REMARK    3  A    between atoms: C_2  and  C_4
REMARK    4  A    between atoms: C_2  and  C_5
REMARK    5  A    between atoms: C_5  and  C_6
REMARK    6  A    between atoms: C_6  and  C_7
REMARK    7  A    between atoms: C_6  and  C_8
REMARK    8  A    between atoms: C_6  and  N_9
REMARK    9  A    between atoms: C_10  and  C_12
REMARK   10  A    between atoms: C_12  and  C_14
REMARK   11  A    between atoms: C_12  and  N_21
REMARK   12  A    between atoms: C_19  and  O_20
REMARK   13  A    between atoms: N_21  and  C_22
REMARK   14  A    between atoms: C_28  and  C_30
REMARK                            x       y       z     vdW  Elec       q    Type
REMARK                         _______ _______ _______ _____ _____    ______ ____
ROOT
ATOM      1  C   UNL     1       4.997   0.363  -4.676  0.00  0.00    +0.196 C 
ENDROOT
BRANCH   1   2
ATOM      2  C   UNL     1       5.213  -1.055  -5.139  0.00  0.00    +0.023 A 
ATOM      3  C   UNL     1       6.476  -1.613  -5.093  0.00  0.00    +0.009 A 
ATOM      4  C   UNL     1       6.675  -2.913  -5.518  0.00  0.00    +0.001 A 
ATOM      5  C   UNL     1       5.610  -3.660  -5.989  0.00  0.00    +0.004 A 
ATOM      6  C   UNL     1       4.345  -3.107  -6.036  0.00  0.00    +0.046 A 
ATOM      7  C   UNL     1       4.142  -1.804  -5.605  0.00  0.00    +0.122 A 
BRANCH   7   8
ATOM      8  O   UNL     1       2.898  -1.260  -5.646  0.00  0.00    -0.506 OA
ATOM      9  H   UNL     1       2.691  -0.811  -6.477  0.00  0.00    +0.292 HD
ENDBRANCH   7   8
ENDBRANCH   1   2
BRANCH   1  11
ATOM     10  N   UNL     1       3.313  -0.261  -2.975  0.00  0.00    -0.308 N 
ATOM     11  C   UNL     1       4.477   0.356  -3.262  0.00  0.00    +0.239 C 
ATOM     12  O   UNL     1       5.105   0.906  -2.382  0.00  0.00    -0.273 OA
ATOM     13  H   UNL     1       2.811  -0.700  -3.679  0.00  0.00    +0.149 HD
BRANCH  10  14
ATOM     14  C   UNL     1       2.807  -0.267  -1.600  0.00  0.00    +0.030 C 
ATOM     15  C   UNL     1       2.857   1.153  -1.032  0.00  0.00    +0.031 C 
ATOM     16  C   UNL     1       3.675  -1.190  -0.742  0.00  0.00    +0.031 C 
BRANCH  14  17
ATOM     17  C   UNL     1       1.363  -0.770  -1.591  0.00  0.00    +0.031 C 
BRANCH  17  19
ATOM     18  C   UNL     1       0.920  -0.818  -4.049  0.00  0.00    +0.010 C 
ATOM     19  C   UNL     1       0.586  -0.113  -2.733  0.00  0.00    -0.036 C 
ATOM     20  C   UNL     1       0.976   1.363  -2.832  0.00  0.00    +0.010 C 
ATOM     21  C   UNL     1      -0.915  -0.226  -2.461  0.00  0.00    +0.010 C 
ENDBRANCH  17  19
ENDBRANCH  14  17
ENDBRANCH  10  14
ENDBRANCH   1  11
BRANCH   1  22
ATOM     22  N   UNL     1       6.267   1.091  -4.726  0.00  0.00    -0.281 N 
ATOM     23  C   UNL     1       7.196   0.893  -3.769  0.00  0.00    +0.237 C 
ATOM     24  O   UNL     1       7.019   0.047  -2.918  0.00  0.00    -0.274 OA
BRANCH  23  25
ATOM     25  C   UNL     1       8.454   1.723  -3.757  0.00  0.00    +0.159 C 
ATOM     26  C   UNL     1       9.521   1.089  -4.676  0.00  0.00    +0.041 C 
ATOM     27  C   UNL     1      10.321   0.220  -3.678  0.00  0.00    +0.098 C 
ATOM     28  C   UNL     1      10.093   0.887  -2.340  0.00  0.00    +0.214 C 
ATOM     29  O   UNL     1      10.759   0.694  -1.345  0.00  0.00    -0.276 OA
ATOM     30  N   UNL     1       9.045   1.728  -2.413  0.00  0.00    -0.304 N 
ATOM     31  H   UNL     1       8.721   2.269  -1.675  0.00  0.00    +0.149 HD
ENDBRANCH  23  25
BRANCH  22  32
ATOM     32  C   UNL     1       6.528   2.035  -5.816  0.00  0.00    +0.077 C 
ATOM     33  C   UNL     1       5.551   3.208  -5.719  0.00  0.00    +0.022 C 
ATOM     34  C   UNL     1       5.824   4.194  -6.857  0.00  0.00    +0.002 C 
ATOM     35  C   UNL     1       5.639   3.486  -8.201  0.00  0.00    +0.000 C 
ATOM     36  C   UNL     1       6.616   2.312  -8.297  0.00  0.00    +0.002 C 
ATOM     37  C   UNL     1       6.343   1.327  -7.159  0.00  0.00    +0.022 C 
ENDBRANCH  22  32
ENDBRANCH   1  22
TORSDOF 9
