REMARK  Name = ZINC64871073
REMARK  7 active torsions:
REMARK  status: ('A' for Active; 'I' for Inactive)
REMARK    1  A    between atoms: C_1  and  C_2
REMARK    2  A    between atoms: C_2  and  O_3
REMARK    3  A    between atoms: O_3  and  C_4
REMARK    4  A    between atoms: C_9  and  C_10
REMARK    5  A    between atoms: C_13  and  C_17
REMARK    6  A    between atoms: N_27  and  C_30
REMARK    7  A    between atoms: C_30  and  C_31
REMARK                            x       y       z     vdW  Elec       q    Type
REMARK                         _______ _______ _______ _____ _____    ______ ____
ROOT
ATOM      1  C   UNL     1       1.266  -1.665   7.012  0.00  0.00    -0.000 A 
ATOM      2  C   UNL     1       0.500  -2.820   6.959  0.00  0.00    +0.008 A 
ATOM      3  C   UNL     1       0.011  -3.387   8.118  0.00  0.00    +0.016 A 
ATOM      4  C   UNL     1       0.293  -2.791   9.345  0.00  0.00    +0.063 A 
ATOM      5  C   UNL     1       1.070  -1.621   9.397  0.00  0.00    +0.056 A 
ATOM      6  C   UNL     1       1.557  -1.068   8.222  0.00  0.00    +0.034 A 
ATOM      7  N   UNL     1       1.335  -1.049  10.633  0.00  0.00    -0.307 N 
ATOM      8  H   UNL     1       1.869  -0.241  10.684  0.00  0.00    +0.170 HD
ATOM      9  C   UNL     1       0.858  -1.604  11.760  0.00  0.00    +0.330 A 
ATOM     10  O   UNL     1       1.112  -1.073  12.824  0.00  0.00    -0.246 OA
ATOM     11  N   UNL     1       0.112  -2.720  11.763  0.00  0.00    -0.256 N 
ATOM     12  C   UNL     1      -0.203  -3.355  10.613  0.00  0.00    +0.265 A 
ATOM     13  O   UNL     1      -0.879  -4.366  10.623  0.00  0.00    -0.267 OA
ENDROOT
BRANCH   1  16
ATOM     14  C   UNL     1       3.747  -0.508   4.577  0.00  0.00    +0.184 C 
ATOM     15  N   UNL     1       3.159  -0.516   5.938  0.00  0.00    -0.265 NA
ATOM     16  C   UNL     1       1.791  -1.060   5.736  0.00  0.00    +0.242 C 
ATOM     17  O   UNL     1       1.983  -2.077   4.726  0.00  0.00    -0.274 OA
ATOM     18  N   UNL     1       2.983  -1.509   3.802  0.00  0.00    -0.177 NA
ATOM     19  H   UNL     1       3.694  -1.104   6.559  0.00  0.00    +0.127 HD
ATOM     20  H   UNL     1       3.592  -2.228   3.441  0.00  0.00    +0.156 HD
BRANCH  14  26
ATOM     21  C   UNL     1       5.812  -1.474   3.534  0.00  0.00    +0.126 A 
ATOM     22  C   UNL     1       7.153  -1.826   3.590  0.00  0.00    +0.046 A 
ATOM     23  C   UNL     1       7.876  -1.604   4.746  0.00  0.00    +0.004 A 
ATOM     24  C   UNL     1       7.264  -1.032   5.846  0.00  0.00    +0.001 A 
ATOM     25  C   UNL     1       5.928  -0.682   5.793  0.00  0.00    +0.010 A 
ATOM     26  C   UNL     1       5.202  -0.896   4.637  0.00  0.00    +0.028 A 
BRANCH  21  27
ATOM     27  O   UNL     1       5.099  -1.691   2.397  0.00  0.00    -0.492 OA
BRANCH  27  29
ATOM     28  C   UNL     1       4.833  -2.454   0.119  0.00  0.00    +0.048 C 
ATOM     29  C   UNL     1       5.792  -2.290   1.301  0.00  0.00    +0.225 C 
ENDBRANCH  27  29
ENDBRANCH  21  27
ENDBRANCH  14  26
ENDBRANCH   1  16
BRANCH  11  30
ATOM     30  C   UNL     1      -0.369  -3.261  13.037  0.00  0.00    +0.165 C 
BRANCH  30  31
ATOM     31  C   UNL     1      -1.712  -2.659  13.362  0.00  0.00    -0.026 A 
ATOM     32  C   UNL     1      -1.785  -1.486  14.091  0.00  0.00    +0.005 A 
ATOM     33  C   UNL     1      -3.017  -0.934  14.390  0.00  0.00    +0.002 A 
ATOM     34  C   UNL     1      -4.175  -1.554  13.961  0.00  0.00    +0.020 A 
ATOM     35  C   UNL     1      -4.102  -2.728  13.233  0.00  0.00    +0.041 A 
ATOM     36  C   UNL     1      -2.869  -3.277  12.928  0.00  0.00    +0.025 A 
ATOM     37 CL   UNL     1      -5.557  -3.508  12.694  0.00  0.00    -0.084 Cl
ENDBRANCH  30  31
ENDBRANCH  11  30
TORSDOF 6
