REMARK  Name = ZINC67264815
REMARK  3 active torsions:
REMARK  status: ('A' for Active; 'I' for Inactive)
REMARK    1  A    between atoms: C_6  and  C_7
REMARK    2  A    between atoms: N_16  and  C_17
REMARK    3  A    between atoms: C_19  and  N_24
REMARK                            x       y       z     vdW  Elec       q    Type
REMARK                         _______ _______ _______ _____ _____    ______ ____
ROOT
ATOM      1  C   UNL     1      -1.660  -0.673   0.441  0.00  0.00    +0.166 C 
ATOM      2  C   UNL     1      -1.892  -0.954  -1.048  0.00  0.00    +0.145 C 
ATOM      3  N   UNL     1      -2.914  -2.006  -1.168  0.00  0.00    -0.280 N 
ATOM      4  C   UNL     1      -2.735  -3.237  -0.382  0.00  0.00    +0.137 C 
ATOM      5  C   UNL     1      -2.462  -2.845   1.074  0.00  0.00    +0.179 C 
ATOM      6  O   UNL     1      -1.387  -1.904   1.116  0.00  0.00    -0.369 OA
ATOM      7  C   UNL     1      -3.982  -1.846  -1.974  0.00  0.00    +0.307 C 
ATOM      8  O   UNL     1      -4.161  -0.787  -2.543  0.00  0.00    -0.252 OA
ATOM      9  N   UNL     1      -4.851  -2.861  -2.150  0.00  0.00    -0.267 N 
ATOM     10  H   UNL     1      -4.745  -3.683  -1.646  0.00  0.00    +0.156 HD
ENDROOT
BRANCH   1  16
ATOM     11  C   UNL     1      -0.702   1.607   0.822  0.00  0.00    +0.009 A 
ATOM     12  C   UNL     1       0.373   2.464   0.969  0.00  0.00    +0.041 A 
ATOM     13  C   UNL     1       1.665   1.974   0.895  0.00  0.00    +0.158 A 
ATOM     14  C   UNL     1       1.880   0.622   0.673  0.00  0.00    +0.159 A 
ATOM     15  C   UNL     1       0.802  -0.234   0.527  0.00  0.00    +0.047 A 
ATOM     16  C   UNL     1      -0.487   0.259   0.601  0.00  0.00    -0.015 A 
ATOM     17  F   UNL     1       3.140   0.141   0.601  0.00  0.00    -0.202 F 
ATOM     18  F   UNL     1       2.715   2.812   1.038  0.00  0.00    -0.202 F 
ENDBRANCH   1  16
BRANCH   9  19
ATOM     19  C   UNL     1      -5.909  -2.728  -3.059  0.00  0.00    +0.072 A 
ATOM     20  C   UNL     1      -5.867  -1.742  -4.035  0.00  0.00    +0.059 A 
ATOM     21  C   UNL     1      -6.911  -1.614  -4.931  0.00  0.00    +0.128 A 
ATOM     22  C   UNL     1      -7.998  -2.465  -4.856  0.00  0.00    +0.035 A 
ATOM     23  C   UNL     1      -8.044  -3.449  -3.886  0.00  0.00    +0.042 A 
ATOM     24  C   UNL     1      -6.999  -3.588  -2.990  0.00  0.00    +0.145 A 
ATOM     25  F   UNL     1      -7.042  -4.553  -2.045  0.00  0.00    -0.204 F 
BRANCH  21  26
ATOM     26  N   UNL     1      -6.866  -0.562  -5.971  0.00  0.00    +0.056 N 
ATOM     27  O   UNL     1      -5.917   0.184  -6.037  0.00  0.00    -0.126 OA
ATOM     28  O   UNL     1      -7.779  -0.449  -6.756  0.00  0.00    -0.126 OA
ENDBRANCH  21  26
ENDBRANCH   9  19
TORSDOF 3
