REMARK  Name = ZINC37101328
REMARK  5 active torsions:
REMARK  status: ('A' for Active; 'I' for Inactive)
REMARK    1  A    between atoms: C_1  and  C_2
REMARK    2  A    between atoms: C_5  and  N_12
REMARK    3  A    between atoms: N_12  and  C_13
REMARK    4  A    between atoms: C_13  and  C_15
REMARK    5  A    between atoms: C_13  and  C_16
REMARK                            x       y       z     vdW  Elec       q    Type
REMARK                         _______ _______ _______ _____ _____    ______ ____
ROOT
ATOM      1  C   UNL     1      -0.018   1.503   0.010  0.00  0.00    +0.046 C 
ATOM      2  C   UNL     1       0.002  -0.004   0.002  0.00  0.00    -0.024 A 
ATOM      3  C   UNL     1       0.006  -0.678  -1.182  0.00  0.00    +0.007 A 
ATOM      4  C   UNL     1       0.024  -2.068  -1.219  0.00  0.00    +0.024 A 
ATOM      5  C   UNL     1       0.040  -2.802  -0.051  0.00  0.00    +0.037 A 
ATOM      6  C   UNL     1       0.037  -2.129   1.189  0.00  0.00    +0.021 A 
ATOM      7  C   UNL     1       0.023  -0.712   1.215  0.00  0.00    +0.076 A 
ATOM      8  N   UNL     1       0.025  -0.069   2.388  0.00  0.00    -0.255 NA
ATOM      9  C   UNL     1       0.044  -0.724   3.524  0.00  0.00    +0.111 A 
ATOM     10  C   UNL     1       0.064  -2.115   3.567  0.00  0.00    +0.020 A 
ATOM     11  C   UNL     1       0.053  -2.834   2.404  0.00  0.00    +0.013 A 
ENDROOT
BRANCH   5  12
ATOM     12  N   UNL     1       0.059  -4.193  -0.095  0.00  0.00    -0.335 N 
ATOM     13  H   UNL     1       0.070  -4.705   0.729  0.00  0.00    +0.147 HD
BRANCH  12  14
ATOM     14  C   UNL     1       0.061  -4.885  -1.386  0.00  0.00    +0.116 C 
ATOM     15  C   UNL     1      -1.377  -5.034  -1.887  0.00  0.00    +0.034 C 
BRANCH  14  16
ATOM     16  C   UNL     1       0.680  -6.249  -1.224  0.00  0.00    +0.061 A 
ATOM     17  C   UNL     1       1.267  -6.867  -2.313  0.00  0.00    +0.025 A 
ATOM     18  C   UNL     1       1.834  -8.122  -2.153  0.00  0.00    +0.003 A 
ATOM     19  C   UNL     1       1.790  -8.711  -0.898  0.00  0.00    +0.020 A 
ATOM     20  C   UNL     1       1.186  -8.033   0.143  0.00  0.00    +0.111 A 
ATOM     21  N   UNL     1       0.661  -6.838  -0.044  0.00  0.00    -0.258 NA
ENDBRANCH  14  16
ENDBRANCH  12  14
ENDBRANCH   5  12
TORSDOF 3
