REMARK  Name = ZINC35990946
REMARK  10 active torsions:
REMARK  status: ('A' for Active; 'I' for Inactive)
REMARK    1  A    between atoms: C_1  and  C_2
REMARK    2  A    between atoms: C_2  and  O_3
REMARK    3  A    between atoms: O_3  and  C_4
REMARK    4  A    between atoms: C_4  and  C_6
REMARK    5  A    between atoms: C_7  and  C_23
REMARK    6  A    between atoms: N_8  and  C_22
REMARK    7  A    between atoms: C_12  and  C_14
REMARK    8  A    between atoms: C_17  and  C_21
REMARK    9  A    between atoms: C_19  and  C_20
REMARK   10  A    between atoms: C_23  and  N_24
REMARK                            x       y       z     vdW  Elec       q    Type
REMARK                         _______ _______ _______ _____ _____    ______ ____
ROOT
ATOM      1  C   UNL     1      -2.744  -2.862  -0.426  0.00  0.00    +0.080 C 
ATOM      2  C   UNL     1      -2.982  -4.187  -0.329  0.00  0.00    +0.041 C 
ATOM      3  N   UNL     1      -4.230  -4.660  -0.035  0.00  0.00    -0.260 N 
ATOM      4  C   UNL     1      -5.292  -3.872   0.174  0.00  0.00    +0.307 C 
ATOM      5  O   UNL     1      -6.364  -4.386   0.430  0.00  0.00    -0.252 OA
ATOM      6  N   UNL     1      -5.212  -2.528   0.111  0.00  0.00    -0.288 N 
ATOM      7  C   UNL     1      -3.906  -1.918  -0.193  0.00  0.00    +0.144 C 
ATOM      8  C   UNL     1      -4.416  -6.110   0.054  0.00  0.00    +0.139 C 
ATOM      9  H   UNL     1      -5.994  -1.976   0.267  0.00  0.00    +0.151 HD
ENDROOT
BRANCH   7  10
ATOM     10  C   UNL     1      -4.072  -1.071  -1.428  0.00  0.00    -0.020 A 
ATOM     11  C   UNL     1      -4.928  -1.477  -2.436  0.00  0.00    +0.006 A 
ATOM     12  C   UNL     1      -5.080  -0.700  -3.569  0.00  0.00    +0.004 A 
ATOM     13  C   UNL     1      -4.376   0.483  -3.695  0.00  0.00    -0.050 A 
ATOM     14  C   UNL     1      -3.522   0.890  -2.688  0.00  0.00    +0.007 A 
ATOM     15  C   UNL     1      -3.373   0.115  -1.552  0.00  0.00    -0.045 A 
ATOM     16  C   UNL     1      -2.445   0.561  -0.452  0.00  0.00    +0.044 C 
ATOM     17  C   UNL     1      -4.541   1.330  -4.931  0.00  0.00    +0.044 C 
ENDBRANCH   7  10
BRANCH   1  18
ATOM     18  C   UNL     1      -1.453  -2.371  -0.729  0.00  0.00    +0.339 C 
ATOM     19  O   UNL     1      -0.738  -1.948   0.160  0.00  0.00    -0.245 OA
BRANCH  18  20
ATOM     20  O   UNL     1      -1.013  -2.372  -2.005  0.00  0.00    -0.462 OA
BRANCH  20  22
ATOM     21  C   UNL     1       0.683  -2.109  -3.707  0.00  0.00    +0.048 C 
ATOM     22  C   UNL     1       0.325  -1.925  -2.230  0.00  0.00    +0.229 C 
ENDBRANCH  20  22
ENDBRANCH  18  20
ENDBRANCH   1  18
BRANCH   2  23
ATOM     23  C   UNL     1      -1.854  -5.161  -0.548  0.00  0.00    +0.136 C 
BRANCH  23  24
ATOM     24  N   UNL     1      -1.574  -5.877   0.704  0.00  0.00    -0.299 NA
ATOM     25  C   UNL     1      -1.120  -4.940   1.761  0.00  0.00    +0.083 C 
ATOM     26  C   UNL     1      -1.416  -5.556   3.105  0.00  0.00    -0.004 C 
ATOM     27  C   UNL     1      -0.232  -6.366   3.658  0.00  0.00    -0.081 C 
ATOM     28  N   UNL     1       0.433  -7.186   2.620  0.00  0.00    +0.380 N 
ATOM     29  C   UNL     1      -0.516  -7.824   1.736  0.00  0.00    -0.067 C 
ATOM     30  C   UNL     1      -0.693  -6.941   0.487  0.00  0.00    +0.066 C 
ATOM     31  H   UNL     1       1.041  -6.594   2.075  0.00  0.00    -0.086 HD
ATOM     32  H   UNL     1       0.989  -7.897   3.071  0.00  0.00    -0.086 HD
ENDBRANCH  23  24
ENDBRANCH   2  23
TORSDOF 6
