REMARK  Name = ZINC11844655
REMARK  9 active torsions:
REMARK  status: ('A' for Active; 'I' for Inactive)
REMARK    1  A    between atoms: C_1  and  C_2
REMARK    2  A    between atoms: C_3  and  C_17
REMARK    3  A    between atoms: C_5  and  C_7
REMARK    4  A    between atoms: C_17  and  N_52
REMARK    5  A    between atoms: C_18  and  C_19
REMARK    6  A    between atoms: C_18  and  N_52
REMARK    7  A    between atoms: C_26  and  C_27
REMARK    8  A    between atoms: C_26  and  C_28
REMARK    9  A    between atoms: C_26  and  N_52
REMARK                            x       y       z     vdW  Elec       q    Type
REMARK                         _______ _______ _______ _____ _____    ______ ____
ROOT
ATOM      1  C   UNL     1      -3.763  -4.062   0.146  0.00  0.00    +0.088 C 
ATOM      2  C   UNL     1      -2.989  -2.769   0.147  0.00  0.00    +0.124 A 
ATOM      3  C   UNL     1      -3.508  -1.528   0.162  0.00  0.00    +0.066 A 
ATOM      4  N   UNL     1      -2.489  -0.655   0.158  0.00  0.00    -0.216 NA
ATOM      5  C   UNL     1      -1.361  -1.327   0.140  0.00  0.00    +0.229 A 
ATOM      6  O   UNL     1      -1.647  -2.641   0.128  0.00  0.00    -0.440 OA
ENDROOT
BRANCH   5   7
ATOM      7  C   UNL     1      -0.006  -0.738   0.128  0.00  0.00    +0.059 A 
ATOM      8  C   UNL     1       1.117  -1.568   0.110  0.00  0.00    +0.064 A 
ATOM      9  C   UNL     1       2.383  -1.013   0.099  0.00  0.00    +0.167 A 
ATOM     10  C   UNL     1       2.537   0.373   0.108  0.00  0.00    +0.168 A 
ATOM     11  C   UNL     1       1.421   1.197   0.127  0.00  0.00    +0.070 A 
ATOM     12  C   UNL     1       0.154   0.649   0.137  0.00  0.00    +0.057 A 
ATOM     13 CL   UNL     1      -1.239   1.685   0.153  0.00  0.00    -0.083 Cl
ATOM     14  O   UNL     1       3.871   0.662   0.095  0.00  0.00    -0.453 OA
ATOM     15  C   UNL     1       4.532  -0.553   0.492  0.00  0.00    +0.466 C 
ATOM     16  O   UNL     1       3.621  -1.589   0.082  0.00  0.00    -0.453 OA
ENDBRANCH   5   7
BRANCH   3  17
ATOM     17  C   UNL     1      -4.974  -1.181   0.181  0.00  0.00    -0.018 C 
BRANCH  17  18
ATOM     18  N   UNL     1      -5.405  -0.868  -1.198  0.00  0.00    +0.386 N 
ATOM     19  H   UNL     1      -4.699  -0.269  -1.640  0.00  0.00    -0.081 HD
BRANCH  18  20
ATOM     20  C   UNL     1      -5.537  -2.115  -1.980  0.00  0.00    -0.074 C 
ATOM     21  C   UNL     1      -6.951  -2.683  -1.845  0.00  0.00    -0.014 C 
ATOM     22  C   UNL     1      -5.252  -1.800  -3.450  0.00  0.00    -0.014 C 
ENDBRANCH  18  20
BRANCH  18  23
ATOM     23  C   UNL     1      -6.697  -0.149  -1.173  0.00  0.00    -0.055 C 
BRANCH  23  24
ATOM     24  C   UNL     1      -6.924   0.499  -2.539  0.00  0.00    +0.057 C 
ATOM     25  C   UNL     1      -8.102   1.496  -2.469  0.00  0.00    +0.029 C 
ATOM     26  C   UNL     1      -7.633   2.608  -3.434  0.00  0.00    +0.097 C 
ATOM     27  C   UNL     1      -6.125   2.488  -3.433  0.00  0.00    +0.213 C 
ATOM     28  O   UNL     1      -5.359   3.340  -3.834  0.00  0.00    -0.276 OA
ATOM     29  N   UNL     1      -5.756   1.301  -2.922  0.00  0.00    -0.314 N 
ATOM     30  H   UNL     1      -4.836   1.011  -2.820  0.00  0.00    +0.149 HD
ENDBRANCH  23  24
ENDBRANCH  18  23
ENDBRANCH  17  18
ENDBRANCH   3  17
TORSDOF 6
