REMARK  Name = ZINC50467441
REMARK  3 active torsions:
REMARK  status: ('A' for Active; 'I' for Inactive)
REMARK    1  A    between atoms: C_3  and  C_7
REMARK    2  A    between atoms: C_13  and  C_15
REMARK    3  A    between atoms: C_15  and  N_16
REMARK                            x       y       z     vdW  Elec       q    Type
REMARK                         _______ _______ _______ _____ _____    ______ ____
ROOT
ATOM      1  C   UNL     1       3.614   0.681  -0.029  0.00  0.00    +0.123 C 
ATOM      2  C   UNL     1       4.125   0.769  -1.483  0.00  0.00    +0.030 C 
ATOM      3  C   UNL     1       5.354  -0.179  -1.477  0.00  0.00    +0.021 C 
ATOM      4  C   UNL     1       4.885  -1.290  -0.505  0.00  0.00    +0.108 C 
ATOM      5  N   UNL     1       4.114  -0.581   0.537  0.00  0.00    -0.291 N 
ATOM      6  C   UNL     1       3.903  -1.015   1.795  0.00  0.00    +0.238 C 
ATOM      7  O   UNL     1       3.251  -0.344   2.567  0.00  0.00    -0.274 OA
ENDROOT
BRANCH   1  10
ATOM      8  C   UNL     1      -0.016   1.344   0.009  0.00  0.00    +0.019 A 
ATOM      9  C   UNL     1       1.322   1.784  -0.001  0.00  0.00    +0.024 A 
ATOM     10  C   UNL     1       2.107   0.688  -0.014  0.00  0.00    +0.037 A 
ATOM     11  N   UNL     1       1.303  -0.413  -0.013  0.00  0.00    -0.363 N 
ATOM     12  H   UNL     1       1.606  -1.334  -0.021  0.00  0.00    +0.165 HD
ATOM     13  C   UNL     1       0.002  -0.004   0.002  0.00  0.00    +0.083 A 
ENDBRANCH   1  10
BRANCH   6  14
ATOM     14  C   UNL     1       4.477  -2.335   2.243  0.00  0.00    +0.239 C 
BRANCH  14  15
ATOM     15  N   UNL     1       4.110  -2.578   3.640  0.00  0.00    -0.261 N 
ATOM     16  C   UNL     1       3.479  -3.673   4.115  0.00  0.00    +0.111 A 
ATOM     17  C   UNL     1       3.323  -3.516   5.449  0.00  0.00    +0.064 A 
ATOM     18  C   UNL     1       3.881  -2.277   5.805  0.00  0.00    +0.138 A 
ATOM     19  N   UNL     1       4.357  -1.718   4.718  0.00  0.00    -0.156 NA
ATOM     20  N   UNL     1       3.925  -1.736   7.095  0.00  0.00    -0.342 N 
ATOM     21  H   UNL     1       3.548  -2.228   7.841  0.00  0.00    +0.144 HD
ATOM     22  H   UNL     1       4.333  -0.869   7.244  0.00  0.00    +0.144 HD
ENDBRANCH  14  15
ENDBRANCH   6  14
TORSDOF 3
