REMARK  Name = ZINC12029578
REMARK  7 active torsions:
REMARK  status: ('A' for Active; 'I' for Inactive)
REMARK    1  A    between atoms: C_4  and  C_30
REMARK    2  A    between atoms: C_5  and  C_7
REMARK    3  A    between atoms: C_7  and  N_55
REMARK    4  A    between atoms: C_13  and  C_15
REMARK    5  A    between atoms: C_15  and  C_16
REMARK    6  A    between atoms: N_18  and  C_19
REMARK    7  A    between atoms: C_19  and  C_20
REMARK                            x       y       z     vdW  Elec       q    Type
REMARK                         _______ _______ _______ _____ _____    ______ ____
ROOT
ATOM      1  C   UNL     1      -2.583   3.424  -2.514  0.00  0.00    -0.058 C 
ATOM      2  C   UNL     1      -2.897   3.991  -3.901  0.00  0.00    +0.085 C 
ATOM      3  N   UNL     1      -4.222   4.604  -3.902  0.00  0.00    -0.318 N 
ATOM      4  C   UNL     1      -4.860   4.958  -2.781  0.00  0.00    +0.200 C 
ATOM      5  O   UNL     1      -5.946   5.490  -2.875  0.00  0.00    -0.278 OA
ATOM      6  C   UNL     1      -4.288   4.725  -1.412  0.00  0.00    +0.028 C 
ATOM      7  H   UNL     1      -4.659   4.761  -4.753  0.00  0.00    +0.149 HD
ATOM      8  N   UNL     1      -2.837   4.485  -1.519  0.00  0.00    +0.391 N 
ATOM      9  H   UNL     1      -2.375   5.350  -1.825  0.00  0.00    -0.080 HD
ENDROOT
BRANCH   8  10
ATOM     10  C   UNL     1      -2.290   4.087  -0.202  0.00  0.00    -0.041 C 
BRANCH  10  15
ATOM     11  C   UNL     1       0.627   1.718  -0.564  0.00  0.00    +0.000 A 
ATOM     12  C   UNL     1       1.681   2.600  -0.717  0.00  0.00    +0.001 A 
ATOM     13  C   UNL     1       1.449   3.963  -0.705  0.00  0.00    +0.012 A 
ATOM     14  C   UNL     1       0.164   4.444  -0.538  0.00  0.00    +0.056 A 
ATOM     15  C   UNL     1      -0.889   3.563  -0.384  0.00  0.00    -0.052 A 
ATOM     16  C   UNL     1      -0.659   2.200  -0.403  0.00  0.00    +0.002 A 
BRANCH  14  17
ATOM     17  C   UNL     1      -0.088   5.930  -0.523  0.00  0.00    +0.418 C 
ATOM     18  F   UNL     1       1.122   6.610  -0.694  0.00  0.00    -0.166 F 
ATOM     19  F   UNL     1      -0.963   6.265  -1.562  0.00  0.00    -0.166 F 
ATOM     20  F   UNL     1      -0.658   6.294   0.702  0.00  0.00    -0.166 F 
ENDBRANCH  14  17
ENDBRANCH  10  15
ENDBRANCH   8  10
BRANCH   6  21
ATOM     21  C   UNL     1      -4.525   5.965  -0.547  0.00  0.00    +0.089 C 
BRANCH  21  22
ATOM     22  C   UNL     1      -3.841   7.152  -1.174  0.00  0.00    +0.212 C 
ATOM     23  O   UNL     1      -3.300   7.041  -2.254  0.00  0.00    -0.276 OA
ATOM     24  N   UNL     1      -3.829   8.339  -0.534  0.00  0.00    -0.311 N 
ATOM     25  H   UNL     1      -4.262   8.428   0.329  0.00  0.00    +0.149 HD
BRANCH  24  26
ATOM     26  C   UNL     1      -3.164   9.493  -1.144  0.00  0.00    +0.140 C 
BRANCH  26  27
ATOM     27  C   UNL     1      -3.295  10.687  -0.233  0.00  0.00    -0.021 A 
ATOM     28  C   UNL     1      -4.240  11.641  -0.485  0.00  0.00    +0.006 A 
ATOM     29  C   UNL     1      -4.371  12.741   0.351  0.00  0.00    +0.002 A 
ATOM     30  C   UNL     1      -3.545  12.897   1.443  0.00  0.00    +0.026 A 
ATOM     31  C   UNL     1      -2.572  11.941   1.715  0.00  0.00    +0.047 A 
ATOM     32  C   UNL     1      -2.447  10.824   0.867  0.00  0.00    +0.004 A 
ATOM     33  C   UNL     1      -1.352  10.021   1.416  0.00  0.00    +0.028 A 
ATOM     34  C   UNL     1      -0.902  10.662   2.506  0.00  0.00    +0.083 A 
ATOM     35  N   UNL     1      -1.619  11.812   2.700  0.00  0.00    -0.361 N 
ATOM     36  H   UNL     1      -1.477  12.442   3.424  0.00  0.00    +0.165 HD
ENDBRANCH  26  27
ENDBRANCH  24  26
ENDBRANCH  21  22
ENDBRANCH   6  21
TORSDOF 7
