REMARK  Name = ZINC12443804
REMARK  9 active torsions:
REMARK  status: ('A' for Active; 'I' for Inactive)
REMARK    1  A    between atoms: C_1  and  C_2
REMARK    2  A    between atoms: C_2  and  C_24
REMARK    3  A    between atoms: C_5  and  C_20
REMARK    4  A    between atoms: C_6  and  N_12
REMARK    5  A    between atoms: C_9  and  C_10
REMARK    6  A    between atoms: C_9  and  C_11
REMARK    7  A    between atoms: C_13  and  C_15
REMARK    8  A    between atoms: C_20  and  O_22
REMARK    9  A    between atoms: O_22  and  C_23
REMARK                            x       y       z     vdW  Elec       q    Type
REMARK                         _______ _______ _______ _____ _____    ______ ____
ROOT
ATOM      1  C   UNL     1      -3.703  -0.573   0.721  0.00  0.00    -0.010 C 
ATOM      2  C   UNL     1      -2.329   0.119   0.793  0.00  0.00    -0.069 C 
ATOM      3  C   UNL     1      -1.325  -0.749   0.025  0.00  0.00    +0.024 C 
ATOM      4  C   UNL     1       0.002  -0.004   0.002  0.00  0.00    -0.024 A 
ATOM      5  C   UNL     1       1.316  -0.611  -0.022  0.00  0.00    +0.091 A 
ATOM      6  C   UNL     1       2.414   0.245  -0.027  0.00  0.00    +0.087 A 
ATOM      7  S   UNL     1       1.690   1.819  -0.004  0.00  0.00    -0.079 S 
ATOM      8  C   UNL     1      -0.016   1.349   0.009  0.00  0.00    -0.016 A 
ATOM      9  C   UNL     1      -1.228   2.222   0.017  0.00  0.00    -0.041 C 
ATOM     10  C   UNL     1      -1.081   3.288   1.112  0.00  0.00    -0.005 C 
ATOM     11  C   UNL     1      -1.313   2.945  -1.341  0.00  0.00    -0.005 C 
ATOM     12  C   UNL     1      -1.914   0.187   2.266  0.00  0.00    -0.010 C 
ATOM     13  N   UNL     1      -2.503   1.473   0.206  0.00  0.00    +0.389 N 
ATOM     14  H   UNL     1      -3.109   2.019   0.830  0.00  0.00    -0.084 HD
ATOM     15  H   UNL     1      -2.957   1.371  -0.709  0.00  0.00    -0.084 HD
ENDROOT
BRANCH   6  16
ATOM     16  N   UNL     1       3.758  -0.084  -0.048  0.00  0.00    -0.273 N 
ATOM     17  C   UNL     1       4.691   0.889  -0.050  0.00  0.00    +0.287 C 
ATOM     18  O   UNL     1       4.351   2.057  -0.034  0.00  0.00    -0.266 OA
ATOM     19  H   UNL     1       4.029  -1.015  -0.061  0.00  0.00    +0.156 HD
BRANCH  17  20
ATOM     20  C   UNL     1       6.122   0.539  -0.072  0.00  0.00    +0.222 A 
ATOM     21  C   UNL     1       7.182   1.405  -0.076  0.00  0.00    +0.077 A 
ATOM     22  C   UNL     1       8.312   0.558  -0.099  0.00  0.00    +0.157 A 
ATOM     23  N   UNL     1       7.861  -0.663  -0.105  0.00  0.00    -0.086 NA
ATOM     24  O   UNL     1       6.652  -0.699  -0.085  0.00  0.00    -0.350 OA
ENDBRANCH  17  20
ENDBRANCH   6  16
BRANCH   5  25
ATOM     25  C   UNL     1       1.497  -2.064  -0.044  0.00  0.00    +0.342 C 
ATOM     26  O   UNL     1       1.559  -2.653  -1.106  0.00  0.00    -0.245 OA
BRANCH  25  27
ATOM     27  O   UNL     1       1.594  -2.749   1.114  0.00  0.00    -0.464 OA
ATOM     28  C   UNL     1       1.772  -4.187   1.016  0.00  0.00    +0.280 C 
ENDBRANCH  25  27
ENDBRANCH   5  25
TORSDOF 4
