REMARK  Name = ZINC58930562
REMARK  9 active torsions:
REMARK  status: ('A' for Active; 'I' for Inactive)
REMARK    1  A    between atoms: C_1  and  C_2
REMARK    2  A    between atoms: C_4  and  N_25
REMARK    3  A    between atoms: C_7  and  N_8
REMARK    4  A    between atoms: N_11  and  C_12
REMARK    5  A    between atoms: C_12  and  C_13
REMARK    6  A    between atoms: C_13  and  C_15
REMARK    7  A    between atoms: C_13  and  N_20
REMARK    8  A    between atoms: N_25  and  C_26
REMARK    9  A    between atoms: N_25  and  C_27
REMARK                            x       y       z     vdW  Elec       q    Type
REMARK                         _______ _______ _______ _____ _____    ______ ____
ROOT
ATOM      1  N   UNL     1       0.338   0.020   2.460  0.00  0.00    -0.269 N 
ATOM      2  C   UNL     1       0.145  -0.666   3.604  0.00  0.00    +0.304 C 
ATOM      3  O   UNL     1       0.103  -1.881   3.585  0.00  0.00    -0.253 OA
ATOM      4  N   UNL     1      -0.002  -0.005   4.770  0.00  0.00    -0.300 N 
ATOM      5  H   UNL     1       0.442   0.984   2.484  0.00  0.00    +0.156 HD
ATOM      6  H   UNL     1       0.032   0.965   4.785  0.00  0.00    +0.150 HD
ENDROOT
BRANCH   1  13
ATOM      7  C   UNL     1      -0.689   1.332   0.155  0.00  0.00    +0.046 C 
ATOM      8  C   UNL     1      -0.103  -0.055   0.086  0.00  0.00    -0.027 A 
ATOM      9  C   UNL     1      -0.050  -0.722  -1.122  0.00  0.00    +0.028 A 
ATOM     10  C   UNL     1       0.490  -2.000  -1.186  0.00  0.00    +0.030 A 
ATOM     11  C   UNL     1       0.976  -2.607  -0.035  0.00  0.00    +0.025 A 
ATOM     12  C   UNL     1       0.922  -1.939   1.173  0.00  0.00    +0.025 A 
ATOM     13  C   UNL     1       0.387  -0.660   1.235  0.00  0.00    +0.038 A 
BRANCH  10  14
ATOM     14  N   UNL     1       0.545  -2.676  -2.410  0.00  0.00    -0.336 N 
ATOM     15  C   UNL     1       0.032  -2.037  -3.624  0.00  0.00    +0.129 C 
ATOM     16  C   UNL     1       1.115  -4.024  -2.477  0.00  0.00    +0.129 C 
ENDBRANCH  10  14
ENDBRANCH   1  13
BRANCH   4  17
ATOM     17  C   UNL     1      -0.211  -0.750   6.013  0.00  0.00    +0.095 C 
BRANCH  17  18
ATOM     18  C   UNL     1      -0.473   0.231   7.158  0.00  0.00    -0.013 C 
BRANCH  18  19
ATOM     19  N   UNL     1      -0.562  -0.508   8.425  0.00  0.00    +0.386 N 
ATOM     20  C   UNL     1       0.760  -1.088   8.774  0.00  0.00    -0.078 C 
ATOM     21  C   UNL     1       0.657  -1.310  10.303  0.00  0.00    -0.020 C 
ATOM     22  C   UNL     1      -0.148  -0.079  10.778  0.00  0.00    -0.020 C 
ATOM     23  C   UNL     1      -0.902   0.414   9.530  0.00  0.00    -0.078 C 
ATOM     24  H   UNL     1      -1.256  -1.238   8.355  0.00  0.00    -0.081 HD
ENDBRANCH  18  19
BRANCH  18  25
ATOM     25  C   UNL     1      -1.769   0.959   6.909  0.00  0.00    -0.022 A 
ATOM     26  C   UNL     1      -1.967   2.200   6.403  0.00  0.00    +0.009 A 
ATOM     27  C   UNL     1      -3.260   2.668   6.261  0.00  0.00    +0.008 A 
ATOM     28  C   UNL     1      -4.292   1.871   6.631  0.00  0.00    +0.045 A 
ATOM     29  S   UNL     1      -3.442   0.406   7.196  0.00  0.00    -0.103 S 
ENDBRANCH  18  25
ENDBRANCH  17  18
ENDBRANCH   4  17
TORSDOF 6
