REMARK  Name = ZINC57536430
REMARK  7 active torsions:
REMARK  status: ('A' for Active; 'I' for Inactive)
REMARK    1  A    between atoms: C_1  and  C_2
REMARK    2  A    between atoms: C_2  and  C_3
REMARK    3  A    between atoms: C_2  and  C_4
REMARK    4  A    between atoms: C_2  and  C_5
REMARK    5  A    between atoms: C_7  and  C_13
REMARK    6  A    between atoms: C_10  and  O_11
REMARK    7  A    between atoms: O_11  and  C_12
REMARK                            x       y       z     vdW  Elec       q    Type
REMARK                         _______ _______ _______ _____ _____    ______ ____
ROOT
ATOM      1  C   UNL     1       0.707  -0.490  -1.238  0.00  0.00    -0.000 A 
ATOM      2  C   UNL     1       1.217   0.419  -2.145  0.00  0.00    +0.012 A 
ATOM      3  C   UNL     1       1.863  -0.026  -3.283  0.00  0.00    -0.035 A 
ATOM      4  C   UNL     1       2.003  -1.382  -3.516  0.00  0.00    +0.008 A 
ATOM      5  C   UNL     1       1.496  -2.295  -2.612  0.00  0.00    +0.046 A 
ATOM      6  C   UNL     1       0.851  -1.851  -1.467  0.00  0.00    +0.124 A 
ENDROOT
BRANCH   3   7
ATOM      7  C   UNL     1       2.417   0.968  -4.271  0.00  0.00    +0.106 C 
ATOM      8  C   UNL     1       3.938   0.757  -4.457  0.00  0.00    +0.036 C 
ATOM      9  C   UNL     1       4.115   1.054  -5.962  0.00  0.00    +0.105 C 
ATOM     10  N   UNL     1       2.811   0.774  -6.573  0.00  0.00    -0.315 N 
ATOM     11  C   UNL     1       1.835   0.728  -5.646  0.00  0.00    +0.221 C 
ATOM     12  O   UNL     1       0.663   0.521  -5.878  0.00  0.00    -0.275 OA
ATOM     13  H   UNL     1       2.669   0.641  -7.524  0.00  0.00    +0.149 HD
ENDBRANCH   3   7
BRANCH   1  15
ATOM     14  C   UNL     1      -0.019   1.526   0.010  0.00  0.00    +0.015 C 
ATOM     15  C   UNL     1       0.002  -0.004   0.002  0.00  0.00    -0.009 C 
ATOM     16  C   UNL     1       0.742  -0.511   1.242  0.00  0.00    +0.015 C 
ATOM     17  C   UNL     1      -1.433  -0.534   0.013  0.00  0.00    +0.015 C 
ENDBRANCH   1  15
BRANCH   6  18
ATOM     18  O   UNL     1       0.356  -2.747  -0.573  0.00  0.00    -0.495 OA
ATOM     19  C   UNL     1       0.540  -4.132  -0.874  0.00  0.00    +0.277 C 
ENDBRANCH   6  18
TORSDOF 3
