REMARK  Name = ZINC09403416
REMARK  5 active torsions:
REMARK  status: ('A' for Active; 'I' for Inactive)
REMARK    1  A    between atoms: C_4  and  C_7
REMARK    2  A    between atoms: C_7  and  C_8
REMARK    3  A    between atoms: N_11  and  C_14
REMARK    4  A    between atoms: N_25  and  S_26
REMARK    5  A    between atoms: S_26  and  C_29
REMARK                            x       y       z     vdW  Elec       q    Type
REMARK                         _______ _______ _______ _____ _____    ______ ____
ROOT
ATOM      1  C   UNL     1       7.212  -0.504   4.199  0.00  0.00    +0.109 C 
ATOM      2  C   UNL     1       7.668  -1.292   5.206  0.00  0.00    +0.210 C 
ATOM      3  C   UNL     1       8.913  -0.979   5.920  0.00  0.00    +0.034 A 
ATOM      4  C   UNL     1       9.504  -1.922   6.762  0.00  0.00    +0.012 A 
ATOM      5  C   UNL     1      10.672  -1.612   7.429  0.00  0.00    +0.001 A 
ATOM      6  C   UNL     1      11.270  -0.371   7.273  0.00  0.00    +0.001 A 
ATOM      7  C   UNL     1      10.704   0.579   6.444  0.00  0.00    +0.012 A 
ATOM      8  C   UNL     1       9.528   0.283   5.763  0.00  0.00    +0.035 A 
ATOM      9  C   UNL     1       8.893   1.268   4.862  0.00  0.00    +0.215 C 
ATOM     10  O   UNL     1       9.092   2.462   4.964  0.00  0.00    -0.285 OA
ATOM     11  C   UNL     1       7.988   0.690   3.808  0.00  0.00    +0.157 C 
ATOM     12  N   UNL     1       7.891   1.214   2.617  0.00  0.00    -0.123 NA
ATOM     13  O   UNL     1       6.958  -2.395   5.561  0.00  0.00    -0.285 OA
ENDROOT
BRANCH   1  17
ATOM     14  C   UNL     1       4.151  -0.919   1.414  0.00  0.00    -0.004 C 
ATOM     15  C   UNL     1       4.420   0.394   2.153  0.00  0.00    +0.023 C 
ATOM     16  C   UNL     1       4.869   0.087   3.585  0.00  0.00    +0.105 C 
ATOM     17  N   UNL     1       6.021  -0.823   3.534  0.00  0.00    -0.325 N 
ATOM     18  C   UNL     1       5.900  -2.074   2.774  0.00  0.00    +0.105 C 
ATOM     19  C   UNL     1       5.439  -1.743   1.351  0.00  0.00    +0.023 C 
BRANCH  14  20
ATOM     20  C   UNL     1       3.669  -0.616  -0.006  0.00  0.00    +0.038 C 
BRANCH  20  24
ATOM     21  C   UNL     1      -0.103   1.380   0.164  0.00  0.00    +0.000 A 
ATOM     22  C   UNL     1       1.068   2.114   0.173  0.00  0.00    +0.000 A 
ATOM     23  C   UNL     1       2.289   1.468   0.118  0.00  0.00    +0.003 A 
ATOM     24  C   UNL     1       2.338   0.088   0.055  0.00  0.00    -0.047 A 
ATOM     25  C   UNL     1       1.167  -0.646   0.047  0.00  0.00    +0.003 A 
ATOM     26  C   UNL     1      -0.054   0.000   0.100  0.00  0.00    +0.000 A 
ENDBRANCH  20  24
ENDBRANCH  14  20
ENDBRANCH   1  17
BRANCH  12  27
ATOM     27  S   UNL     1       8.784   2.554   2.228  0.00  0.00    +0.106 S 
ATOM     28  O   UNL     1       8.296   3.616   3.035  0.00  0.00    -0.146 OA
ATOM     29  O   UNL     1      10.146   2.152   2.240  0.00  0.00    -0.146 OA
BRANCH  27  30
ATOM     30  C   UNL     1       8.396   2.971   0.560  0.00  0.00    +0.150 A 
ATOM     31  C   UNL     1       7.430   3.796   0.089  0.00  0.00    +0.037 A 
ATOM     32  C   UNL     1       7.309   3.977  -1.276  0.00  0.00    +0.010 A 
ATOM     33  C   UNL     1       8.161   3.323  -2.103  0.00  0.00    +0.047 A 
ATOM     34  S   UNL     1       9.180   2.422  -0.947  0.00  0.00    -0.076 S 
ENDBRANCH  27  30
ENDBRANCH  12  27
TORSDOF 5
