REMARK  Name = ZINC44737124
REMARK  6 active torsions:
REMARK  status: ('A' for Active; 'I' for Inactive)
REMARK    1  A    between atoms: C_1  and  C_2
REMARK    2  A    between atoms: C_9  and  C_11
REMARK    3  A    between atoms: C_11  and  C_13
REMARK    4  A    between atoms: C_11  and  N_14
REMARK    5  A    between atoms: C_15  and  C_17
REMARK    6  A    between atoms: C_28  and  C_30
REMARK                            x       y       z     vdW  Elec       q    Type
REMARK                         _______ _______ _______ _____ _____    ______ ____
ROOT
ATOM      1  C   UNL     1      -1.623  -8.780   0.995  0.00  0.00    +0.100 C 
ATOM      2  C   UNL     1      -0.559  -9.305   0.005  0.00  0.00    +0.121 C 
ATOM      3  N   UNL     1      -0.007 -10.516   0.655  0.00  0.00    -0.296 N 
ATOM      4  C   UNL     1      -1.186 -11.173   1.271  0.00  0.00    +0.115 C 
ATOM      5  C   UNL     1      -2.034 -10.010   1.821  0.00  0.00    -0.004 C 
ATOM      6  C   UNL     1      -3.519 -10.302   1.630  0.00  0.00    -0.010 C 
ATOM      7  C   UNL     1      -3.917 -11.493   2.507  0.00  0.00    -0.082 C 
ATOM      8  N   UNL     1      -3.636 -11.183   3.914  0.00  0.00    +0.379 N 
ATOM      9  C   UNL     1      -2.193 -10.995   4.106  0.00  0.00    -0.082 C 
ATOM     10  C   UNL     1      -1.722  -9.783   3.297  0.00  0.00    -0.010 C 
ATOM     11  C   UNL     1       1.276 -10.928   0.682  0.00  0.00    +0.249 C 
ATOM     12  O   UNL     1       2.149 -10.227   0.209  0.00  0.00    -0.270 OA
ATOM     13  H   UNL     1      -4.122 -10.338   4.174  0.00  0.00    -0.086 HD
ATOM     14  H   UNL     1      -3.955 -11.944   4.495  0.00  0.00    -0.086 HD
ENDROOT
BRANCH  11  15
ATOM     15  C   UNL     1       1.620 -12.231   1.283  0.00  0.00    +0.072 A 
ATOM     16  C   UNL     1       0.743 -13.312   1.165  0.00  0.00    +0.019 A 
ATOM     17  C   UNL     1       1.069 -14.526   1.729  0.00  0.00    +0.039 A 
ATOM     18  C   UNL     1       2.266 -14.678   2.414  0.00  0.00    +0.126 A 
ATOM     19  C   UNL     1       3.142 -13.611   2.536  0.00  0.00    +0.077 A 
ATOM     20  C   UNL     1       2.829 -12.390   1.970  0.00  0.00    +0.138 A 
ATOM     21  F   UNL     1       3.685 -11.351   2.084  0.00  0.00    -0.205 F 
ATOM     22  F   UNL     1       2.579 -15.871   2.964  0.00  0.00    -0.205 F 
ENDBRANCH  11  15
BRANCH   1  24
ATOM     23  N   UNL     1      -1.808  -6.729   2.366  0.00  0.00    -0.305 N 
ATOM     24  C   UNL     1      -1.030  -7.721   1.889  0.00  0.00    +0.219 C 
ATOM     25  O   UNL     1       0.147  -7.761   2.179  0.00  0.00    -0.275 OA
ATOM     26  H   UNL     1      -2.750  -6.697   2.134  0.00  0.00    +0.149 HD
BRANCH  23  27
ATOM     27  C   UNL     1      -1.232  -5.700   3.235  0.00  0.00    +0.136 C 
ATOM     28  C   UNL     1      -0.608  -4.598   2.376  0.00  0.00    +0.036 C 
BRANCH  27  37
ATOM     29  C   UNL     1      -5.585  -2.486   8.345  0.00  0.00    +0.044 C 
ATOM     30  C   UNL     1      -5.116  -3.190   7.098  0.00  0.00    -0.048 A 
ATOM     31  C   UNL     1      -6.037  -3.562   6.129  0.00  0.00    +0.005 A 
ATOM     32  C   UNL     1      -5.632  -4.202   4.992  0.00  0.00    +0.030 A 
ATOM     33  C   UNL     1      -4.278  -4.485   4.797  0.00  0.00    +0.089 A 
ATOM     34  C   UNL     1      -3.345  -4.108   5.777  0.00  0.00    +0.067 A 
ATOM     35  C   UNL     1      -3.774  -3.455   6.925  0.00  0.00    +0.031 A 
ATOM     36  N   UNL     1      -2.112  -4.517   5.308  0.00  0.00    -0.340 N 
ATOM     37  C   UNL     1      -2.316  -5.109   4.100  0.00  0.00    +0.128 A 
ATOM     38  N   UNL     1      -3.582  -5.091   3.801  0.00  0.00    -0.231 NA
ATOM     39  H   UNL     1      -1.260  -4.402   5.755  0.00  0.00    +0.167 HD
ENDBRANCH  27  37
ENDBRANCH  23  27
ENDBRANCH   1  24
TORSDOF 4
