REMARK  Name = ZINC48483991
REMARK  8 active torsions:
REMARK  status: ('A' for Active; 'I' for Inactive)
REMARK    1  A    between atoms: C_1  and  C_2
REMARK    2  A    between atoms: C_2  and  C_3
REMARK    3  A    between atoms: C_2  and  C_4
REMARK    4  A    between atoms: C_4  and  C_6
REMARK    5  A    between atoms: C_4  and  N_23
REMARK    6  A    between atoms: C_6  and  N_7
REMARK    7  A    between atoms: N_10  and  C_11
REMARK    8  A    between atoms: C_11  and  C_12
REMARK                            x       y       z     vdW  Elec       q    Type
REMARK                         _______ _______ _______ _____ _____    ______ ____
ROOT
ATOM      1  N   UNL     1      -2.310  -2.812   0.025  0.00  0.00    -0.298 N 
ATOM      2  C   UNL     1      -2.279  -4.152   0.166  0.00  0.00    +0.300 C 
ATOM      3  O   UNL     1      -1.241  -4.707   0.472  0.00  0.00    -0.253 OA
ATOM      4  N   UNL     1      -3.398  -4.877  -0.030  0.00  0.00    -0.295 N 
ATOM      5  H   UNL     1      -3.138  -2.369  -0.219  0.00  0.00    +0.150 HD
ATOM      6  H   UNL     1      -4.226  -4.434  -0.274  0.00  0.00    +0.151 HD
ENDROOT
BRANCH   1   7
ATOM      7  C   UNL     1      -1.093  -2.024   0.238  0.00  0.00    +0.124 C 
BRANCH   7   8
ATOM      8  C   UNL     1      -1.383  -0.550  -0.052  0.00  0.00    +0.076 C 
BRANCH   8   9
ATOM      9  N   UNL     1      -1.954  -0.420  -1.399  0.00  0.00    -0.293 NA
ATOM     10  C   UNL     1      -0.905  -0.491  -2.426  0.00  0.00    +0.113 C 
ATOM     11  C   UNL     1      -1.549  -0.411  -3.812  0.00  0.00    +0.175 C 
ATOM     12  O   UNL     1      -2.318   0.791  -3.907  0.00  0.00    -0.377 OA
ATOM     13  C   UNL     1      -3.350   0.893  -2.921  0.00  0.00    +0.175 C 
ATOM     14  C   UNL     1      -2.724   0.827  -1.526  0.00  0.00    +0.113 C 
ENDBRANCH   8   9
BRANCH   8  16
ATOM     15  C   UNL     1      -0.390   1.741  -0.123  0.00  0.00    +0.009 C 
ATOM     16  C   UNL     1      -0.082   0.250   0.029  0.00  0.00    +0.001 C 
ATOM     17  C   UNL     1       0.585   0.004   1.384  0.00  0.00    +0.009 C 
ENDBRANCH   8  16
ENDBRANCH   7   8
ENDBRANCH   1   7
BRANCH   4  18
ATOM     18  C   UNL     1      -3.364  -6.333   0.124  0.00  0.00    +0.141 C 
BRANCH  18  19
ATOM     19  C   UNL     1      -4.734  -6.899  -0.149  0.00  0.00    -0.026 A 
ATOM     20  C   UNL     1      -5.659  -7.045   0.877  0.00  0.00    +0.023 A 
ATOM     21  C   UNL     1      -6.905  -7.566   0.594  0.00  0.00    +0.084 A 
ATOM     22  N   UNL     1      -7.226  -7.926  -0.635  0.00  0.00    -0.350 N 
ATOM     23  C   UNL     1      -6.372  -7.803  -1.639  0.00  0.00    +0.099 A 
ATOM     24  C   UNL     1      -5.100  -7.280  -1.427  0.00  0.00    +0.047 A 
ATOM     25  N   UNL     1      -6.751  -8.195  -2.917  0.00  0.00    -0.317 N 
ATOM     26  C   UNL     1      -5.910  -8.123  -4.121  0.00  0.00    +0.106 C 
ATOM     27  C   UNL     1      -6.756  -8.639  -5.303  0.00  0.00    +0.020 C 
ATOM     28  C   UNL     1      -8.211  -8.442  -4.802  0.00  0.00    +0.020 C 
ATOM     29  C   UNL     1      -8.062  -8.758  -3.290  0.00  0.00    +0.106 C 
ATOM     30  H   UNL     1      -8.109  -8.289  -0.806  0.00  0.00    +0.166 HD
ENDBRANCH  18  19
ENDBRANCH   4  18
TORSDOF 6
