REMARK  Name = ZINC39638742
REMARK  8 active torsions:
REMARK  status: ('A' for Active; 'I' for Inactive)
REMARK    1  A    between atoms: C_1  and  C_2
REMARK    2  A    between atoms: C_2  and  O_3
REMARK    3  A    between atoms: O_3  and  C_4
REMARK    4  A    between atoms: C_9  and  C_10
REMARK    5  A    between atoms: C_10  and  N_11
REMARK    6  A    between atoms: C_12  and  C_14
REMARK    7  A    between atoms: C_25  and  C_27
REMARK    8  A    between atoms: C_30  and  C_32
REMARK                            x       y       z     vdW  Elec       q    Type
REMARK                         _______ _______ _______ _____ _____    ______ ____
ROOT
ATOM      1  C   UNL     1       0.215   0.353   6.284  0.00  0.00    +0.100 C 
ATOM      2  C   UNL     1      -0.486  -0.847   6.958  0.00  0.00    +0.121 C 
ATOM      3  N   UNL     1       0.209  -1.006   8.257  0.00  0.00    -0.294 N 
ATOM      4  C   UNL     1       0.444   0.382   8.722  0.00  0.00    +0.115 C 
ATOM      5  C   UNL     1       0.822   1.159   7.444  0.00  0.00    -0.004 C 
ATOM      6  C   UNL     1       0.223   2.562   7.483  0.00  0.00    -0.010 C 
ATOM      7  C   UNL     1       0.883   3.363   8.608  0.00  0.00    -0.082 C 
ATOM      8  N   UNL     1       2.331   3.434   8.377  0.00  0.00    +0.379 N 
ATOM      9  C   UNL     1       2.913   2.088   8.434  0.00  0.00    -0.082 C 
ATOM     10  C   UNL     1       2.339   1.232   7.301  0.00  0.00    -0.010 C 
ATOM     11  C   UNL     1       0.550  -2.153   8.877  0.00  0.00    +0.282 C 
ATOM     12  O   UNL     1       1.123  -2.118   9.950  0.00  0.00    -0.267 OA
ATOM     13  H   UNL     1       2.506   3.836   7.468  0.00  0.00    -0.086 HD
ATOM     14  H   UNL     1       2.756   4.013   9.085  0.00  0.00    -0.086 HD
ENDROOT
BRANCH  11  15
ATOM     15  C   UNL     1       0.232  -3.443   8.258  0.00  0.00    +0.190 A 
ATOM     16  C   UNL     1       0.517  -4.684   8.783  0.00  0.00    +0.055 A 
ATOM     17  C   UNL     1       0.040  -5.628   7.869  0.00  0.00    +0.050 A 
ATOM     18  C   UNL     1      -0.514  -4.937   6.830  0.00  0.00    +0.136 A 
ATOM     19  O   UNL     1      -0.398  -3.621   7.078  0.00  0.00    -0.450 OA
BRANCH  18  20
ATOM     20  C   UNL     1      -1.141  -5.535   5.634  0.00  0.00    +0.017 A 
ATOM     21  C   UNL     1      -1.210  -6.923   5.498  0.00  0.00    +0.011 A 
ATOM     22  C   UNL     1      -1.798  -7.475   4.379  0.00  0.00    +0.001 A 
ATOM     23  C   UNL     1      -2.318  -6.657   3.392  0.00  0.00    +0.000 A 
ATOM     24  C   UNL     1      -2.253  -5.281   3.520  0.00  0.00    +0.001 A 
ATOM     25  C   UNL     1      -1.673  -4.715   4.636  0.00  0.00    +0.011 A 
ENDBRANCH  18  20
ENDBRANCH  11  15
BRANCH   1  27
ATOM     26  N   UNL     1       1.642   0.607   4.279  0.00  0.00    -0.311 N 
ATOM     27  C   UNL     1       1.301  -0.128   5.356  0.00  0.00    +0.218 C 
ATOM     28  O   UNL     1       1.868  -1.177   5.578  0.00  0.00    -0.275 OA
ATOM     29  H   UNL     1       1.188   1.446   4.101  0.00  0.00    +0.149 HD
BRANCH  26  30
ATOM     30  C   UNL     1       2.697   0.139   3.377  0.00  0.00    +0.143 C 
BRANCH  30  36
ATOM     31  C   UNL     1       3.625   2.288   2.476  0.00  0.00    +0.125 A 
ATOM     32  C   UNL     1       3.798   3.201   1.446  0.00  0.00    +0.046 A 
ATOM     33  C   UNL     1       3.227   2.963   0.211  0.00  0.00    +0.004 A 
ATOM     34  C   UNL     1       2.483   1.816   0.001  0.00  0.00    +0.001 A 
ATOM     35  C   UNL     1       2.308   0.905   1.026  0.00  0.00    +0.009 A 
ATOM     36  C   UNL     1       2.882   1.136   2.261  0.00  0.00    +0.011 A 
BRANCH  31  37
ATOM     37  O   UNL     1       4.186   2.519   3.692  0.00  0.00    -0.492 OA
BRANCH  37  39
ATOM     38  C   UNL     1       5.487   3.811   5.266  0.00  0.00    +0.048 C 
ATOM     39  C   UNL     1       4.937   3.726   3.841  0.00  0.00    +0.225 C 
ENDBRANCH  37  39
ENDBRANCH  31  37
ENDBRANCH  30  36
ENDBRANCH  26  30
ENDBRANCH   1  27
TORSDOF 7
