REMARK  Name = ZINC40410690
REMARK  11 active torsions:
REMARK  status: ('A' for Active; 'I' for Inactive)
REMARK    1  A    between atoms: C_1  and  C_2
REMARK    2  A    between atoms: C_7  and  O_8
REMARK    3  A    between atoms: O_8  and  C_9
REMARK    4  A    between atoms: C_9  and  C_10
REMARK    5  A    between atoms: C_10  and  C_12
REMARK    6  A    between atoms: N_18  and  C_23
REMARK    7  A    between atoms: C_23  and  C_24
REMARK    8  A    between atoms: C_27  and  C_29
REMARK    9  A    between atoms: N_31  and  C_32
REMARK   10  A    between atoms: C_32  and  C_33
REMARK   11  A    between atoms: C_33  and  N_34
REMARK                            x       y       z     vdW  Elec       q    Type
REMARK                         _______ _______ _______ _____ _____    ______ ____
ROOT
ATOM      1  C   UNL     1       0.068  -0.480   6.128  0.00  0.00    +0.023 A 
ATOM      2  C   UNL     1       0.094  -1.869   6.304  0.00  0.00    +0.015 A 
ATOM      3  C   UNL     1       0.113  -2.404   7.573  0.00  0.00    +0.048 A 
ATOM      4  C   UNL     1       0.108  -1.569   8.681  0.00  0.00    +0.143 A 
ATOM      5  C   UNL     1       0.082  -0.181   8.514  0.00  0.00    +0.079 A 
ATOM      6  C   UNL     1       0.067   0.364   7.246  0.00  0.00    +0.038 A 
ATOM      7  N   UNL     1       0.076   0.645   9.647  0.00  0.00    -0.258 N 
ATOM      8  C   UNL     1       0.412   0.117  10.844  0.00  0.00    +0.258 C 
ATOM      9  O   UNL     1       0.385   0.804  11.843  0.00  0.00    -0.271 OA
ATOM     10  C   UNL     1       0.819  -1.332  10.934  0.00  0.00    +0.325 C 
ATOM     11  O   UNL     1       0.128  -2.088   9.936  0.00  0.00    -0.481 OA
ENDROOT
BRANCH   1  12
ATOM     12  C   UNL     1       0.047   0.090   4.775  0.00  0.00    +0.200 C 
ATOM     13  O   UNL     1       0.030   1.294   4.625  0.00  0.00    -0.288 OA
BRANCH  12  14
ATOM     14  C   UNL     1       0.048  -0.820   3.574  0.00  0.00    +0.308 C 
BRANCH  14  15
ATOM     15  O   UNL     1       0.025  -0.033   2.381  0.00  0.00    -0.484 OA
BRANCH  15  22
ATOM     16  C   UNL     1      -0.018   1.503   0.010  0.00  0.00    +0.047 C 
ATOM     17  C   UNL     1       0.002  -0.004   0.002  0.00  0.00    -0.009 A 
ATOM     18  C   UNL     1       0.006  -0.689  -1.198  0.00  0.00    +0.007 A 
ATOM     19  C   UNL     1       0.024  -2.071  -1.206  0.00  0.00    +0.000 A 
ATOM     20  C   UNL     1       0.039  -2.772  -0.014  0.00  0.00    +0.004 A 
ATOM     21  C   UNL     1       0.036  -2.092   1.188  0.00  0.00    +0.046 A 
ATOM     22  C   UNL     1       0.023  -0.705   1.199  0.00  0.00    +0.124 A 
ENDBRANCH  15  22
ENDBRANCH  14  15
ENDBRANCH  12  14
ENDBRANCH   1  12
BRANCH   7  23
ATOM     23  C   UNL     1      -0.288   2.060   9.534  0.00  0.00    +0.188 C 
BRANCH  23  24
ATOM     24  C   UNL     1      -1.774   2.213   9.730  0.00  0.00    +0.124 A 
ATOM     25  C   UNL     1      -2.394   2.425  10.912  0.00  0.00    +0.047 A 
ATOM     26  C   UNL     1      -3.770   2.508  10.647  0.00  0.00    +0.055 A 
ATOM     27  C   UNL     1      -3.922   2.341   9.301  0.00  0.00    +0.189 A 
ATOM     28  O   UNL     1      -2.697   2.168   8.761  0.00  0.00    -0.453 OA
BRANCH  27  29
ATOM     29  C   UNL     1      -5.192   2.352   8.569  0.00  0.00    +0.279 C 
ATOM     30  O   UNL     1      -6.238   2.522   9.167  0.00  0.00    -0.267 OA
ATOM     31  N   UNL     1      -5.202   2.174   7.233  0.00  0.00    -0.311 N 
ATOM     32  H   UNL     1      -4.368   2.039   6.755  0.00  0.00    +0.149 HD
BRANCH  31  33
ATOM     33  C   UNL     1      -6.471   2.185   6.501  0.00  0.00    +0.086 C 
BRANCH  33  34
ATOM     34  C   UNL     1      -6.203   1.963   5.011  0.00  0.00    -0.060 C 
BRANCH  34  35
ATOM     35  N   UNL     1      -7.476   1.974   4.278  0.00  0.00    +0.381 N 
ATOM     36  C   UNL     1      -8.296   0.835   4.708  0.00  0.00    -0.079 C 
ATOM     37  C   UNL     1      -9.656   0.887   4.007  0.00  0.00    -0.019 C 
ATOM     38  C   UNL     1      -9.445   0.823   2.491  0.00  0.00    -0.004 C 
ATOM     39  C   UNL     1      -8.527   1.972   2.065  0.00  0.00    -0.019 C 
ATOM     40  C   UNL     1      -7.210   1.880   2.838  0.00  0.00    -0.079 C 
ATOM     41  H   UNL     1      -7.968   2.833   4.473  0.00  0.00    -0.082 HD
ENDBRANCH  34  35
ENDBRANCH  33  34
ENDBRANCH  31  33
ENDBRANCH  27  29
ENDBRANCH  23  24
ENDBRANCH   7  23
TORSDOF 10
