REMARK  Name = ZINC23466334
REMARK  9 active torsions:
REMARK  status: ('A' for Active; 'I' for Inactive)
REMARK    1  A    between atoms: C_1  and  N_2
REMARK    2  A    between atoms: C_6  and  C_7
REMARK    3  A    between atoms: C_7  and  N_8
REMARK    4  A    between atoms: N_16  and  C_18
REMARK    5  A    between atoms: C_18  and  C_19
REMARK    6  A    between atoms: C_23  and  O_27
REMARK    7  A    between atoms: C_24  and  O_25
REMARK    8  A    between atoms: O_25  and  C_26
REMARK    9  A    between atoms: O_27  and  C_28
REMARK                            x       y       z     vdW  Elec       q    Type
REMARK                         _______ _______ _______ _____ _____    ______ ____
ROOT
ATOM      1  N   UNL     1       7.226   0.090   3.149  0.00  0.00    -0.295 NA
ATOM      2  C   UNL     1       6.708   1.319   3.805  0.00  0.00    +0.085 C 
ATOM      3  C   UNL     1       5.383   1.595   3.050  0.00  0.00    +0.021 C 
ATOM      4  C   UNL     1       4.830   0.178   2.800  0.00  0.00    -0.030 C 
ATOM      5  C   UNL     1       6.042  -0.760   2.893  0.00  0.00    +0.090 C 
ATOM      6  C   UNL     1       3.803  -0.176   3.872  0.00  0.00    +0.004 C 
ATOM      7  C   UNL     1       2.593   0.755   3.737  0.00  0.00    -0.018 C 
ATOM      8  C   UNL     1       2.021   0.635   2.323  0.00  0.00    -0.078 C 
ATOM      9  N   UNL     1       3.049   1.007   1.342  0.00  0.00    +0.383 N 
ATOM     10  C   UNL     1       4.202   0.100   1.412  0.00  0.00    -0.070 C 
ATOM     11  H   UNL     1       3.400   2.019   1.592  0.00  0.00    -0.081 HD
ENDROOT
BRANCH   1  12
ATOM     12  C   UNL     1       8.193  -0.600   4.013  0.00  0.00    +0.156 C 
BRANCH  12  18
ATOM     13  C   UNL     1      10.611  -0.930   2.104  0.00  0.00    +0.150 C 
ATOM     14  N   UNL     1      10.524   0.025   3.211  0.00  0.00    -0.338 N 
ATOM     15  C   UNL     1      11.484   0.927   3.583  0.00  0.00    +0.104 A 
ATOM     16  C   UNL     1      10.998   1.598   4.645  0.00  0.00    +0.101 A 
ATOM     17  N   UNL     1       9.771   1.123   4.909  0.00  0.00    -0.349 N 
ATOM     18  C   UNL     1       9.480   0.183   4.052  0.00  0.00    +0.101 A 
ATOM     19  H   UNL     1       9.190   1.538   5.746  0.00  0.00    +0.166 HD
ENDBRANCH  12  18
ENDBRANCH   1  12
BRANCH   9  20
ATOM     20  C   UNL     1       2.491   1.045  -0.017  0.00  0.00    -0.039 C 
BRANCH  20  21
ATOM     21  C   UNL     1       1.176   1.782   0.000  0.00  0.00    -0.019 A 
ATOM     22  C   UNL     1      -0.013   1.076   0.008  0.00  0.00    +0.005 A 
ATOM     23  C   UNL     1      -1.220   1.749   0.017  0.00  0.00    +0.004 A 
ATOM     24  C   UNL     1      -1.244   3.132   0.031  0.00  0.00    +0.049 A 
ATOM     25  C   UNL     1      -0.056   3.845   0.023  0.00  0.00    +0.162 A 
ATOM     26  C   UNL     1       1.159   3.167   0.008  0.00  0.00    +0.163 A 
BRANCH  26  27
ATOM     27  O   UNL     1       2.328   3.863   0.000  0.00  0.00    -0.491 OA
ATOM     28  C   UNL     1       2.872   4.202  -1.277  0.00  0.00    +0.277 C 
ENDBRANCH  26  27
BRANCH  25  29
ATOM     29  O   UNL     1      -0.078   5.205   0.031  0.00  0.00    -0.491 OA
ATOM     30  C   UNL     1      -1.362   5.833   0.047  0.00  0.00    +0.277 C 
ENDBRANCH  25  29
ENDBRANCH  20  21
ENDBRANCH   9  20
TORSDOF 6
