REMARK  Name = ZINC63272588
REMARK  6 active torsions:
REMARK  status: ('A' for Active; 'I' for Inactive)
REMARK    1  A    between atoms: C_7  and  C_13
REMARK    2  A    between atoms: C_13  and  C_14
REMARK    3  A    between atoms: N_16  and  CA_17
REMARK    4  A    between atoms: CA_17  and  CB_19
REMARK    5  A    between atoms: CA_17  and  C_29
REMARK    6  A    between atoms: CB_19  and  CG_20
REMARK                            x       y       z     vdW  Elec       q    Type
REMARK                         _______ _______ _______ _____ _____    ______ ____
ROOT
ATOM      1  C   UNK A   0       0.554  -4.205   1.181  0.00  0.00    +0.216 C 
ATOM      2  O   UNK A   0       1.064  -4.798   0.254  0.00  0.00    -0.276 OA
ATOM      3  N   TRP A   1      -0.037  -4.893   2.178  0.00  0.00    -0.302 N 
ATOM      4  H   TRP A   1      -0.445  -4.418   2.919  0.00  0.00    +0.150 HD
ENDROOT
BRANCH   1   5
ATOM      5  C   UNK A   0       0.581  -2.698   1.218  0.00  0.00    +0.126 C 
BRANCH   5  12
ATOM      6  C   UNK A   0      -0.017   1.383   0.010  0.00  0.00    +0.000 A 
ATOM      7  C   UNK A   0       1.167   2.100   0.002  0.00  0.00    +0.001 A 
ATOM      8  C   UNK A   0       2.383   1.445  -0.013  0.00  0.00    +0.013 A 
ATOM      9  C   UNK A   0       2.409   0.053  -0.021  0.00  0.00    +0.045 A 
ATOM     10  C   UNK A   0       1.203  -0.664  -0.013  0.00  0.00    -0.011 A 
ATOM     11  C   UNK A   0       0.002  -0.004   0.002  0.00  0.00    +0.006 A 
ATOM     12  C   UNK A   0       1.305  -2.171  -0.022  0.00  0.00    +0.136 C 
ATOM     13  N   UNK A   0       2.654  -2.755  -0.039  0.00  0.00    -0.306 N 
ATOM     14  N   UNK A   0       3.664  -2.052  -0.046  0.00  0.00    -0.105 NA
ATOM     15  C   UNK A   0       3.670  -0.711  -0.038  0.00  0.00    +0.283 C 
ATOM     16  O   UNK A   0       4.729  -0.116  -0.045  0.00  0.00    -0.267 OA
ATOM     17  H   UNK A   0       2.750  -3.720  -0.046  0.00  0.00    +0.181 HD
ENDBRANCH   5  12
ENDBRANCH   1   5
BRANCH   3  18
ATOM     18  CA  TRP A   1      -0.063  -6.357   2.142  0.00  0.00    +0.190 C 
BRANCH  18  19
ATOM     19  C   TRP A   1      -1.240  -6.818   1.321  0.00  0.00    +0.376 C 
ATOM     20  O   TRP A   1      -1.987  -6.000   0.813  0.00  0.00    -0.244 OA
ATOM     21  OXT TRP A   1      -1.444  -8.010   1.165  0.00  0.00    -0.244 OA
ENDBRANCH  18  19
BRANCH  18  22
ATOM     22  CB  TRP A   1      -0.191  -6.900   3.567  0.00  0.00    +0.067 C 
BRANCH  22  23
ATOM     23  CG  TRP A   1       1.044  -6.542   4.353  0.00  0.00    -0.039 C 
ATOM     24  CD2 TRP A   1       1.209  -5.475   5.167  0.00  0.00    -0.001 A 
ATOM     25  CE3 TRP A   1       0.323  -4.368   5.548  0.00  0.00    +0.010 A 
ATOM     26  CZ3 TRP A   1       0.781  -3.425   6.402  0.00  0.00    +0.001 A 
ATOM     27  CH2 TRP A   1       2.078  -3.477   6.931  0.00  0.00    +0.002 A 
ATOM     28  CZ2 TRP A   1       2.950  -4.462   6.628  0.00  0.00    +0.026 A 
ATOM     29  CE2 TRP A   1       2.574  -5.507   5.740  0.00  0.00    +0.043 A 
ATOM     30  NE1 TRP A   1       3.227  -6.554   5.297  0.00  0.00    -0.380 N 
ATOM     31  CD1 TRP A   1       2.347  -7.309   4.397  0.00  0.00    +0.144 C 
ATOM     32  HE1 TRP A   1       4.138  -6.793   5.529  0.00  0.00    +0.160 HD
ENDBRANCH  22  23
ENDBRANCH  18  22
ENDBRANCH   3  18
TORSDOF 6
