REMARK  Name = ZINC35926667
REMARK  8 active torsions:
REMARK  status: ('A' for Active; 'I' for Inactive)
REMARK    1  A    between atoms: C_1  and  C_2
REMARK    2  A    between atoms: C_2  and  C_3
REMARK    3  A    between atoms: C_3  and  C_5
REMARK    4  A    between atoms: C_3  and  C_11
REMARK    5  A    between atoms: C_25  and  C_27
REMARK    6  A    between atoms: C_27  and  N_28
REMARK    7  A    between atoms: N_31  and  C_34
REMARK    8  A    between atoms: C_34  and  C_35
REMARK                            x       y       z     vdW  Elec       q    Type
REMARK                         _______ _______ _______ _____ _____    ______ ____
ROOT
ATOM      1  C   UNL     1       0.724  -1.866  -3.603  0.00  0.00    +0.223 C 
ATOM      2  O   UNL     1       0.839  -0.659  -3.573  0.00  0.00    -0.275 OA
ATOM      3  N   UNL     1      -0.498  -2.429  -3.536  0.00  0.00    -0.298 N 
ATOM      4  C   UNL     1      -0.647  -3.889  -3.456  0.00  0.00    +0.127 C 
ATOM      5  C   UNL     1      -1.483  -4.230  -2.216  0.00  0.00    +0.127 C 
ATOM      6  N   UNL     1      -2.692  -3.394  -2.221  0.00  0.00    -0.298 N 
ATOM      7  C   UNL     1      -2.544  -1.934  -2.301  0.00  0.00    +0.127 C 
ATOM      8  C   UNL     1      -1.707  -1.593  -3.535  0.00  0.00    +0.127 C 
ATOM      9  C   UNL     1      -3.934  -3.966  -2.153  0.00  0.00    +0.198 A 
ATOM     10  N   UNL     1      -4.049  -5.321  -2.187  0.00  0.00    -0.295 N 
ATOM     11  H   UNL     1      -3.256  -5.875  -2.258  0.00  0.00    +0.172 HD
ATOM     12  C   UNL     1      -5.270  -5.892  -2.120  0.00  0.00    +0.253 A 
ATOM     13  O   UNL     1      -5.392  -7.106  -2.148  0.00  0.00    -0.268 OA
ATOM     14  C   UNL     1      -6.400  -5.061  -2.016  0.00  0.00    +0.091 A 
ATOM     15  C   UNL     1      -6.223  -3.709  -1.986  0.00  0.00    +0.034 A 
ATOM     16  N   UNL     1      -4.997  -3.194  -2.051  0.00  0.00    -0.223 NA
ENDROOT
BRANCH   1  17
ATOM     17  C   UNL     1       1.949  -2.737  -3.714  0.00  0.00    +0.105 C 
BRANCH  17  18
ATOM     18  C   UNL     1       2.397  -3.153  -2.336  0.00  0.00    -0.036 A 
ATOM     19  C   UNL     1       2.747  -2.194  -1.404  0.00  0.00    +0.004 A 
ATOM     20  C   UNL     1       3.157  -2.575  -0.141  0.00  0.00    +0.000 A 
ATOM     21  C   UNL     1       3.217  -3.916   0.191  0.00  0.00    +0.000 A 
ATOM     22  C   UNL     1       2.867  -4.875  -0.741  0.00  0.00    +0.000 A 
ATOM     23  C   UNL     1       2.452  -4.493  -2.003  0.00  0.00    +0.004 A 
ENDBRANCH  17  18
BRANCH  17  25
ATOM     24  C   UNL     1       4.265  -2.879  -4.641  0.00  0.00    +0.005 C 
ATOM     25  C   UNL     1       3.071  -1.954  -4.400  0.00  0.00    +0.014 C 
ENDBRANCH  17  25
ENDBRANCH   1  17
BRANCH  15  26
ATOM     26  C   UNL     1      -7.418  -2.796  -1.876  0.00  0.00    -0.022 C 
BRANCH  26  27
ATOM     27  N   UNL     1      -7.364  -2.072  -0.598  0.00  0.00    +0.385 N 
ATOM     28  C   UNL     1      -7.498  -3.027   0.510  0.00  0.00    -0.063 C 
ATOM     29  C   UNL     1      -7.423  -2.276   1.842  0.00  0.00    +0.066 C 
ATOM     30  N   UNL     1      -8.501  -1.278   1.899  0.00  0.00    -0.302 NA
ATOM     31  C   UNL     1      -8.394  -0.330   0.780  0.00  0.00    +0.066 C 
ATOM     32  C   UNL     1      -8.461  -1.097  -0.542  0.00  0.00    -0.063 C 
ATOM     33  H   UNL     1      -6.481  -1.590  -0.522  0.00  0.00    -0.081 HD
BRANCH  30  34
ATOM     34  C   UNL     1      -8.498  -0.573   3.188  0.00  0.00    +0.119 C 
BRANCH  34  35
ATOM     35  C   UNL     1      -9.749   0.258   3.309  0.00  0.00    -0.033 A 
ATOM     36  C   UNL     1      -9.759   1.563   2.852  0.00  0.00    +0.008 A 
ATOM     37  C   UNL     1     -10.906   2.326   2.962  0.00  0.00    +0.038 A 
ATOM     38  C   UNL     1     -12.046   1.783   3.530  0.00  0.00    +0.123 A 
ATOM     39  C   UNL     1     -12.035   0.476   3.987  0.00  0.00    +0.038 A 
ATOM     40  C   UNL     1     -10.888  -0.286   3.871  0.00  0.00    +0.008 A 
ATOM     41  F   UNL     1     -13.167   2.528   3.638  0.00  0.00    -0.205 F 
ENDBRANCH  34  35
ENDBRANCH  30  34
ENDBRANCH  26  27
ENDBRANCH  15  26
TORSDOF 7
