REMARK  Name = ZINC39325786
REMARK  9 active torsions:
REMARK  status: ('A' for Active; 'I' for Inactive)
REMARK    1  A    between atoms: C_1  and  C_2
REMARK    2  A    between atoms: C_2  and  C_3
REMARK    3  A    between atoms: C_3  and  O_4
REMARK    4  A    between atoms: O_4  and  C_5
REMARK    5  A    between atoms: C_8  and  C_13
REMARK    6  A    between atoms: C_10  and  O_11
REMARK    7  A    between atoms: O_11  and  C_12
REMARK    8  A    between atoms: C_28  and  N_32
REMARK    9  A    between atoms: C_29  and  C_30
REMARK                            x       y       z     vdW  Elec       q    Type
REMARK                         _______ _______ _______ _____ _____    ______ ____
ROOT
ATOM      1  C   UNL     1       3.243  -4.423  -5.653  0.00  0.00    +0.084 C 
ATOM      2  C   UNL     1       2.534  -4.008  -6.947  0.00  0.00    +0.154 C 
ATOM      3  C   UNL     1       3.004  -2.590  -7.226  0.00  0.00    +0.129 C 
ATOM      4  C   UNL     1       2.047  -1.589  -7.301  0.00  0.00    +0.035 A 
ATOM      5  C   UNL     1       2.404  -0.253  -7.575  0.00  0.00    +0.013 A 
ATOM      6  C   UNL     1       1.436   0.701  -7.647  0.00  0.00    +0.001 A 
ATOM      7  C   UNL     1       0.095   0.386  -7.452  0.00  0.00    +0.002 A 
ATOM      8  C   UNL     1      -0.312  -0.886  -7.181  0.00  0.00    +0.024 A 
ATOM      9  C   UNL     1       0.632  -1.921  -7.091  0.00  0.00    +0.044 A 
ATOM     10  N   UNL     1       0.234  -3.169  -6.816  0.00  0.00    -0.284 N 
ATOM     11  C   UNL     1       1.052  -4.219  -6.733  0.00  0.00    +0.229 C 
ATOM     12  O   UNL     1       0.625  -5.331  -6.483  0.00  0.00    -0.275 OA
ATOM     13  O   UNL     1       4.312  -2.369  -7.373  0.00  0.00    -0.444 OA
ATOM     14  C   UNL     1       5.137  -3.030  -6.527  0.00  0.00    +0.198 C 
ATOM     15  C   UNL     1       4.686  -4.004  -5.709  0.00  0.00    +0.095 C 
ATOM     16  H   UNL     1      -0.713  -3.324  -6.673  0.00  0.00    +0.155 HD
ENDROOT
BRANCH   1  20
ATOM     17  C   UNL     1       1.342  -2.530  -2.323  0.00  0.00    +0.162 A 
ATOM     18  C   UNL     1       1.908  -1.763  -3.329  0.00  0.00    +0.050 A 
ATOM     19  C   UNL     1       2.522  -2.378  -4.404  0.00  0.00    +0.008 A 
ATOM     20  C   UNL     1       2.573  -3.758  -4.479  0.00  0.00    -0.034 A 
ATOM     21  C   UNL     1       2.009  -4.529  -3.479  0.00  0.00    +0.053 A 
ATOM     22  C   UNL     1       1.397  -3.918  -2.396  0.00  0.00    +0.162 A 
BRANCH  22  23
ATOM     23  O   UNL     1       0.847  -4.675  -1.408  0.00  0.00    -0.491 OA
ATOM     24  C   UNL     1       0.942  -6.094  -1.549  0.00  0.00    +0.277 C 
ENDBRANCH  22  23
BRANCH  17  25
ATOM     25  O   UNL     1       0.738  -1.926  -1.265  0.00  0.00    -0.488 OA
BRANCH  25  26
ATOM     26  C   UNL     1       0.718  -0.497  -1.257  0.00  0.00    +0.229 C 
BRANCH  26  28
ATOM     27  C   UNL     1      -0.019   1.526   0.010  0.00  0.00    +0.007 C 
ATOM     28  C   UNL     1       0.002  -0.004   0.002  0.00  0.00    +0.038 C 
ENDBRANCH  26  28
ENDBRANCH  25  26
ENDBRANCH  17  25
ENDBRANCH   1  20
BRANCH  14  29
ATOM     29  N   UNL     1       6.469  -2.699  -6.500  0.00  0.00    -0.328 N 
ATOM     30  H   UNL     1       6.808  -2.001  -7.083  0.00  0.00    +0.145 HD
ATOM     31  H   UNL     1       7.072  -3.163  -5.899  0.00  0.00    +0.145 HD
ENDBRANCH  14  29
BRANCH  15  32
ATOM     32  C   UNL     1       5.625  -4.668  -4.855  0.00  0.00    +0.100 C 
ATOM     33  N   UNL     1       6.370  -5.194  -4.178  0.00  0.00    -0.191 NA
ENDBRANCH  15  32
TORSDOF 7
