REMARK  Name = ZINC26786650
REMARK  6 active torsions:
REMARK  status: ('A' for Active; 'I' for Inactive)
REMARK    1  A    between atoms: C_4  and  S_7
REMARK    2  A    between atoms: S_7  and  N_10
REMARK    3  A    between atoms: C_13  and  N_22
REMARK    4  A    between atoms: N_22  and  N_23
REMARK    5  A    between atoms: C_24  and  C_26
REMARK    6  A    between atoms: C_29  and  N_32
REMARK                            x       y       z     vdW  Elec       q    Type
REMARK                         _______ _______ _______ _____ _____    ______ ____
ROOT
ATOM      1  N   UNL     1      -3.941   9.972   0.075  0.00  0.00    -0.129 NA
ATOM      2  C   UNL     1      -5.057   9.293   0.064  0.00  0.00    +0.091 C 
ATOM      3  C   UNL     1      -5.018   7.826   0.054  0.00  0.00    +0.058 C 
ATOM      4  C   UNL     1      -6.173   7.125   0.043  0.00  0.00    +0.094 C 
ATOM      5  C   UNL     1      -7.463   7.840   0.036  0.00  0.00    +0.205 C 
ATOM      6  O   UNL     1      -8.503   7.210   0.022  0.00  0.00    -0.286 OA
ATOM      7  C   UNL     1      -7.499   9.312   0.051  0.00  0.00    +0.010 C 
ATOM      8  C   UNL     1      -6.355  10.008   0.061  0.00  0.00    -0.010 C 
ATOM      9  C   UNL     1      -6.343  11.512   0.068  0.00  0.00    +0.064 C 
ATOM     10  C   UNL     1      -7.636  12.069   0.579  0.00  0.00    -0.026 C 
ATOM     11  C   UNL     1      -8.744  11.395   0.569  0.00  0.00    -0.026 C 
ATOM     12  C   UNL     1      -8.839   9.995   0.047  0.00  0.00    +0.066 C 
ENDROOT
BRANCH   1  13
ATOM     13  S   UNL     1      -3.838  11.410  -0.740  0.00  0.00    +0.099 S 
ATOM     14  O   UNL     1      -4.719  11.311  -1.851  0.00  0.00    -0.146 OA
ATOM     15  O   UNL     1      -3.954  12.438   0.234  0.00  0.00    -0.146 OA
BRANCH  13  19
ATOM     16  C   UNL     1       0.351  11.695  -2.431  0.00  0.00    +0.000 A 
ATOM     17  C   UNL     1      -0.656  11.109  -3.175  0.00  0.00    +0.002 A 
ATOM     18  C   UNL     1      -1.936  11.022  -2.658  0.00  0.00    +0.029 A 
ATOM     19  C   UNL     1      -2.208  11.521  -1.398  0.00  0.00    +0.112 A 
ATOM     20  C   UNL     1      -1.202  12.111  -0.656  0.00  0.00    +0.029 A 
ATOM     21  C   UNL     1       0.079  12.194  -1.171  0.00  0.00    +0.002 A 
ENDBRANCH  13  19
ENDBRANCH   1  13
BRANCH   4  22
ATOM     22  N   UNL     1      -6.146   5.736   0.033  0.00  0.00    -0.261 N 
ATOM     23  H   UNL     1      -7.088   5.168   0.025  0.00  0.00    +0.170 HD
BRANCH  22  24
ATOM     24  N   UNL     1      -4.920   5.059   0.034  0.00  0.00    -0.232 N 
ATOM     25  C   UNL     1      -4.894   3.712   0.024  0.00  0.00    +0.260 C 
ATOM     26  O   UNL     1      -5.934   3.084   0.015  0.00  0.00    -0.269 OA
ATOM     27  H   UNL     1      -3.978   5.628   0.042  0.00  0.00    +0.173 HD
BRANCH  25  28
ATOM     28  C   UNL     1      -3.602   2.999   0.025  0.00  0.00    +0.038 A 
ATOM     29  C   UNL     1      -3.573   1.602   0.015  0.00  0.00    +0.015 A 
ATOM     30  C   UNL     1      -2.366   0.940   0.015  0.00  0.00    +0.023 A 
ATOM     31  C   UNL     1      -1.175   1.661   0.025  0.00  0.00    +0.025 A 
ATOM     32  C   UNL     1      -1.201   3.053   0.041  0.00  0.00    +0.023 A 
ATOM     33  C   UNL     1      -2.404   3.720   0.035  0.00  0.00    +0.015 A 
BRANCH  31  34
ATOM     34  N   UNL     1       0.042   0.989   0.025  0.00  0.00    -0.358 N 
ATOM     35  H   UNL     1       0.984   1.558   0.033  0.00  0.00    +0.142 HD
ATOM     36  H   UNL     1       0.064  -0.111   0.017  0.00  0.00    +0.142 HD
ENDBRANCH  31  34
ENDBRANCH  25  28
ENDBRANCH  22  24
ENDBRANCH   4  22
TORSDOF 6
