REMARK  Name = ZINC39605124
REMARK  15 active torsions:
REMARK  status: ('A' for Active; 'I' for Inactive)
REMARK    1  A    between atoms: C_1  and  C_2
REMARK    2  A    between atoms: C_2  and  C_3
REMARK    3  A    between atoms: C_2  and  O_4
REMARK    4  A    between atoms: O_4  and  C_5
REMARK    5  A    between atoms: C_5  and  C_6
REMARK    6  A    between atoms: C_6  and  C_7
REMARK    7  A    between atoms: C_7  and  N_8
REMARK    8  A    between atoms: C_9  and  C_11
REMARK    9  A    between atoms: C_22  and  C_24
REMARK   10  A    between atoms: C_26  and  O_34
REMARK   11  A    between atoms: C_27  and  O_32
REMARK   12  A    between atoms: C_28  and  O_30
REMARK   13  A    between atoms: O_30  and  C_31
REMARK   14  A    between atoms: O_32  and  C_33
REMARK   15  A    between atoms: O_34  and  C_35
REMARK                            x       y       z     vdW  Elec       q    Type
REMARK                         _______ _______ _______ _____ _____    ______ ____
ROOT
ATOM      1  C   UNL     1       0.447  -3.106   7.793  0.00  0.00    +0.100 C 
ATOM      2  C   UNL     1       1.271  -4.407   7.669  0.00  0.00    +0.121 C 
ATOM      3  N   UNL     1       1.214  -5.016   9.019  0.00  0.00    -0.296 N 
ATOM      4  C   UNL     1      -0.175  -4.773   9.475  0.00  0.00    +0.115 C 
ATOM      5  C   UNL     1      -0.501  -3.350   8.979  0.00  0.00    -0.004 C 
ATOM      6  C   UNL     1      -1.954  -3.273   8.518  0.00  0.00    -0.010 C 
ATOM      7  C   UNL     1      -2.878  -3.461   9.725  0.00  0.00    -0.082 C 
ATOM      8  N   UNL     1      -2.603  -2.418  10.722  0.00  0.00    +0.379 N 
ATOM      9  C   UNL     1      -1.232  -2.558  11.227  0.00  0.00    -0.082 C 
ATOM     10  C   UNL     1      -0.239  -2.332  10.085  0.00  0.00    -0.010 C 
ATOM     11  C   UNL     1       2.203  -5.648   9.682  0.00  0.00    +0.247 C 
ATOM     12  O   UNL     1       3.331  -5.657   9.228  0.00  0.00    -0.270 OA
ATOM     13  H   UNL     1      -2.712  -1.510  10.295  0.00  0.00    -0.086 HD
ATOM     14  H   UNL     1      -3.254  -2.508  11.488  0.00  0.00    -0.086 HD
ENDROOT
BRANCH  11  15
ATOM     15  C   UNL     1       1.916  -6.330  10.960  0.00  0.00    +0.044 A 
ATOM     16  C   UNL     1       0.608  -6.708  11.273  0.00  0.00    +0.062 A 
ATOM     17  C   UNL     1       0.343  -7.347  12.470  0.00  0.00    +0.166 A 
ATOM     18  C   UNL     1       1.377  -7.612  13.363  0.00  0.00    +0.204 A 
ATOM     19  C   UNL     1       2.681  -7.235  13.054  0.00  0.00    +0.166 A 
ATOM     20  C   UNL     1       2.953  -6.602  11.856  0.00  0.00    +0.062 A 
BRANCH  19  21
ATOM     21  O   UNL     1       3.689  -7.495  13.929  0.00  0.00    -0.491 OA
ATOM     22  C   UNL     1       5.002  -7.081  13.547  0.00  0.00    +0.277 C 
ENDBRANCH  19  21
BRANCH  18  23
ATOM     23  O   UNL     1       1.113  -8.240  14.539  0.00  0.00    -0.488 OA
ATOM     24  C   UNL     1       1.180  -9.667  14.542  0.00  0.00    +0.277 C 
ENDBRANCH  18  23
BRANCH  17  25
ATOM     25  O   UNL     1      -0.930  -7.716  12.775  0.00  0.00    -0.491 OA
ATOM     26  C   UNL     1      -1.942  -7.412  11.813  0.00  0.00    +0.277 C 
ENDBRANCH  17  25
ENDBRANCH  11  15
BRANCH   1  28
ATOM     27  N   UNL     1      -0.626  -1.601   6.149  0.00  0.00    -0.315 N 
ATOM     28  C   UNL     1      -0.341  -2.861   6.532  0.00  0.00    +0.218 C 
ATOM     29  O   UNL     1      -0.720  -3.799   5.863  0.00  0.00    -0.275 OA
ATOM     30  H   UNL     1      -0.323  -0.851   6.685  0.00  0.00    +0.149 HD
BRANCH  27  31
ATOM     31  C   UNL     1      -1.392  -1.364   4.923  0.00  0.00    +0.106 C 
BRANCH  31  32
ATOM     32  C   UNL     1      -1.575   0.141   4.720  0.00  0.00    +0.047 C 
BRANCH  32  33
ATOM     33  C   UNL     1      -2.376   0.389   3.439  0.00  0.00    +0.161 C 
BRANCH  33  34
ATOM     34  O   UNL     1      -2.546   1.795   3.249  0.00  0.00    -0.377 OA
BRANCH  34  36
ATOM     35  C   UNL     1      -4.775   2.213   2.413  0.00  0.00    +0.037 C 
ATOM     36  C   UNL     1      -3.285   2.137   2.075  0.00  0.00    +0.112 C 
ATOM     37  C   UNL     1      -2.811   3.495   1.552  0.00  0.00    +0.037 C 
ENDBRANCH  34  36
ENDBRANCH  33  34
ENDBRANCH  32  33
ENDBRANCH  31  32
ENDBRANCH  27  31
ENDBRANCH   1  28
TORSDOF 10
