REMARK  Name = ZINC65481339
REMARK  9 active torsions:
REMARK  status: ('A' for Active; 'I' for Inactive)
REMARK    1  A    between atoms: C_1  and  C_2
REMARK    2  A    between atoms: C_2  and  N_3
REMARK    3  A    between atoms: N_3  and  C_4
REMARK    4  A    between atoms: N_3  and  C_6
REMARK    5  A    between atoms: C_4  and  C_5
REMARK    6  A    between atoms: C_6  and  C_7
REMARK    7  A    between atoms: C_6  and  C_16
REMARK    8  A    between atoms: C_7  and  N_8
REMARK    9  A    between atoms: N_11  and  N_12
REMARK                            x       y       z     vdW  Elec       q    Type
REMARK                         _______ _______ _______ _____ _____    ______ ____
ROOT
ATOM      1  C   UNL     1       1.409  -2.068  -2.730  0.00  0.00    +0.098 C 
ENDROOT
BRANCH   1   2
ATOM      2  N   UNL     1       2.659  -1.309  -2.816  0.00  0.00    -0.299 N 
ATOM      3  C   UNL     1       3.308  -1.210  -3.993  0.00  0.00    +0.316 C 
ATOM      4  O   UNL     1       2.857  -1.752  -4.984  0.00  0.00    -0.251 OA
ATOM      5  N   UNL     1       4.458  -0.512  -4.072  0.00  0.00    -0.217 N 
ATOM      6  H   UNL     1       3.020  -0.877  -2.026  0.00  0.00    +0.150 HD
ATOM      7  H   UNL     1       4.926  -0.441  -4.919  0.00  0.00    +0.174 HD
BRANCH   5   8
ATOM      8  N   UNL     1       4.979   0.112  -2.931  0.00  0.00    -0.217 N 
ATOM      9  C   UNL     1       6.129   0.810  -3.010  0.00  0.00    +0.313 C 
ATOM     10  O   UNL     1       6.581   1.352  -2.019  0.00  0.00    -0.252 OA
ATOM     11  N   UNL     1       6.778   0.909  -4.187  0.00  0.00    -0.312 N 
ATOM     12  H   UNL     1       4.512   0.041  -2.084  0.00  0.00    +0.174 HD
ATOM     13  H   UNL     1       6.418   0.477  -4.977  0.00  0.00    +0.147 HD
ATOM     14  H   UNL     1       7.606   1.411  -4.244  0.00  0.00    +0.147 HD
ENDBRANCH   5   8
ENDBRANCH   1   2
BRANCH   1  15
ATOM     15  C   UNL     1       0.815  -1.915  -1.328  0.00  0.00    +0.016 C 
BRANCH  15  16
ATOM     16  C   UNL     1      -0.525  -2.601  -1.273  0.00  0.00    +0.093 A 
ATOM     17  C   UNL     1      -0.797  -3.746  -0.621  0.00  0.00    +0.043 A 
ATOM     18  C   UNL     1      -2.167  -4.024  -0.835  0.00  0.00    +0.041 A 
ATOM     19  C   UNL     1      -2.650  -3.032  -1.605  0.00  0.00    +0.195 A 
ATOM     20  O   UNL     1      -1.653  -2.171  -1.862  0.00  0.00    -0.469 OA
ENDBRANCH  15  16
BRANCH  15  21
ATOM     21  N   UNL     1       0.648  -0.489  -1.020  0.00  0.00    +0.387 N 
ATOM     22  H   UNL     1       1.552  -0.040  -1.006  0.00  0.00    -0.081 HD
BRANCH  21  24
ATOM     23  C   UNL     1      -0.240   1.650  -1.814  0.00  0.00    -0.017 C 
ATOM     24  C   UNL     1      -0.195   0.139  -2.045  0.00  0.00    -0.081 C 
ENDBRANCH  21  24
BRANCH  21  25
ATOM     25  C   UNL     1       0.010  -0.344   0.295  0.00  0.00    -0.081 C 
ATOM     26  C   UNL     1       0.952  -0.868   1.381  0.00  0.00    -0.017 C 
ENDBRANCH  21  25
ENDBRANCH  15  21
ENDBRANCH   1  15
TORSDOF 7
