REMARK  Name = ZINC64688263
REMARK  8 active torsions:
REMARK  status: ('A' for Active; 'I' for Inactive)
REMARK    1  A    between atoms: C_1  and  C_2
REMARK    2  A    between atoms: C_2  and  O_3
REMARK    3  A    between atoms: O_3  and  C_4
REMARK    4  A    between atoms: C_4  and  C_6
REMARK    5  A    between atoms: C_16  and  N_18
REMARK    6  A    between atoms: C_19  and  C_21
REMARK    7  A    between atoms: C_21  and  S_22
REMARK    8  A    between atoms: S_22  and  C_23
REMARK                            x       y       z     vdW  Elec       q    Type
REMARK                         _______ _______ _______ _____ _____    ______ ____
ROOT
ATOM      1  C   UNL     1       1.451  -2.345  -2.520  0.00  0.00    +0.067 C 
ATOM      2  C   UNL     1       1.642  -3.654  -2.642  0.00  0.00    -0.044 C 
ATOM      3  C   UNL     1       1.267  -4.614  -1.533  0.00  0.00    +0.032 C 
ATOM      4  C   UNL     1       0.965  -5.994  -2.007  0.00  0.00    +0.004 C 
ATOM      5  C   UNL     1       2.161  -6.860  -2.304  0.00  0.00    +0.000 C 
ATOM      6  C   UNL     1       2.740  -6.591  -3.675  0.00  0.00    +0.001 C 
ATOM      7  C   UNL     1       3.325  -5.195  -3.765  0.00  0.00    +0.018 C 
ATOM      8  C   UNL     1       2.326  -4.114  -3.911  0.00  0.00    +0.075 C 
ATOM      9  S   UNL     1       3.053  -2.556  -4.556  0.00  0.00    -0.126 S 
ATOM     10  C   UNL     1       1.932  -1.423  -3.622  0.00  0.00    +0.169 C 
ENDROOT
BRANCH  10  11
ATOM     11  N   UNL     1       2.672  -0.284  -3.072  0.00  0.00    -0.299 N 
ATOM     12  C   UNL     1       3.835   0.100  -3.636  0.00  0.00    +0.224 C 
ATOM     13  O   UNL     1       4.268  -0.498  -4.599  0.00  0.00    -0.275 OA
ATOM     14  H   UNL     1       2.326   0.193  -2.302  0.00  0.00    +0.150 HD
BRANCH  12  15
ATOM     15  C   UNL     1       4.596   1.270  -3.071  0.00  0.00    +0.171 C 
BRANCH  15  16
ATOM     16  S   UNL     1       6.106   1.536  -4.041  0.00  0.00    -0.098 S 
BRANCH  16  17
ATOM     17  C   UNL     1       6.830   2.838  -3.310  0.00  0.00    +0.108 C 
ATOM     18  N   UNL     1       6.285   3.424  -2.258  0.00  0.00    -0.231 NA
ATOM     19  C   UNL     1       6.742   4.540  -1.708  0.00  0.00    +0.224 C 
ATOM     20  N   UNL     1       7.670   5.297  -2.282  0.00  0.00    -0.218 NA
ATOM     21  C   UNL     1       8.119   4.880  -3.461  0.00  0.00    +0.163 C 
ATOM     22  N   UNL     1       8.551   5.479  -4.531  0.00  0.00    -0.219 NA
ATOM     23  C   UNL     1       8.531   4.657  -5.589  0.00  0.00    +0.218 C 
ATOM     24  N   UNL     1       8.257   3.421  -5.274  0.00  0.00    -0.254 NA
ATOM     25  C   UNL     1       8.132   3.393  -3.817  0.00  0.00    +0.229 C 
ENDBRANCH  16  17
ENDBRANCH  15  16
ENDBRANCH  12  15
ENDBRANCH  10  11
BRANCH   1  26
ATOM     26  C   UNL     1       0.776  -1.799  -1.335  0.00  0.00    +0.338 C 
ATOM     27  O   UNL     1       0.495  -2.530  -0.405  0.00  0.00    -0.245 OA
BRANCH  26  28
ATOM     28  O   UNL     1       0.468  -0.488  -1.279  0.00  0.00    -0.462 OA
BRANCH  28  30
ATOM     29  C   UNL     1      -0.454   1.476  -0.215  0.00  0.00    +0.048 C 
ATOM     30  C   UNL     1      -0.188  -0.026  -0.096  0.00  0.00    +0.229 C 
ENDBRANCH  28  30
ENDBRANCH  26  28
ENDBRANCH   1  26
TORSDOF 7
