REMARK  Name = ZINC42199194
REMARK  5 active torsions:
REMARK  status: ('A' for Active; 'I' for Inactive)
REMARK    1  A    between atoms: C_3  and  N_15
REMARK    2  A    between atoms: C_6  and  C_7
REMARK    3  A    between atoms: N_11  and  C_12
REMARK    4  A    between atoms: C_12  and  C_13
REMARK    5  A    between atoms: C_13  and  N_14
REMARK                            x       y       z     vdW  Elec       q    Type
REMARK                         _______ _______ _______ _____ _____    ______ ____
ROOT
ATOM      1  C   UNL     1      -1.263  -0.772   0.034  0.00  0.00    +0.182 A 
ATOM      2  N   UNL     1      -2.445  -0.318   0.395  0.00  0.00    -0.108 NA
ATOM      3  N   UNL     1      -3.340  -1.228   0.251  0.00  0.00    -0.023 NA
ATOM      4  N   UNL     1      -2.809  -2.311  -0.203  0.00  0.00    -0.044 NA
ATOM      5  N   UNL     1      -1.437  -2.056  -0.368  0.00  0.00    -0.227 N 
ENDROOT
BRANCH   1  11
ATOM      6  C   UNL     1       0.004   1.372   0.101  0.00  0.00    +0.014 A 
ATOM      7  C   UNL     1       1.197   2.066   0.122  0.00  0.00    +0.033 A 
ATOM      8  C   UNL     1       2.399   1.381   0.101  0.00  0.00    +0.126 A 
ATOM      9  C   UNL     1       2.414  -0.002   0.057  0.00  0.00    +0.033 A 
ATOM     10  C   UNL     1       1.228  -0.707   0.035  0.00  0.00    +0.014 A 
ATOM     11  C   UNL     1       0.013  -0.022   0.057  0.00  0.00    +0.021 A 
BRANCH   8  12
ATOM     12  N   UNL     1       3.675   2.131   0.123  0.00  0.00    +0.056 N 
ATOM     13  O   UNL     1       3.665   3.340   0.161  0.00  0.00    -0.126 OA
ATOM     14  O   UNL     1       4.727   1.536   0.104  0.00  0.00    -0.126 OA
ENDBRANCH   8  12
ENDBRANCH   1  11
BRANCH   5  15
ATOM     15  C   UNL     1      -0.413  -2.979  -0.865  0.00  0.00    +0.128 C 
BRANCH  15  16
ATOM     16  C   UNL     1       0.123  -3.819   0.296  0.00  0.00    -0.063 C 
BRANCH  16  17
ATOM     17  N   UNL     1       1.149  -4.744  -0.202  0.00  0.00    +0.379 N 
ATOM     18  H   UNL     1       1.502  -5.298   0.564  0.00  0.00    -0.090 HD
ATOM     19  H   UNL     1       0.744  -5.352  -0.898  0.00  0.00    -0.090 HD
ATOM     20  H   UNL     1       1.905  -4.218  -0.613  0.00  0.00    -0.090 HD
ENDBRANCH  16  17
ENDBRANCH  15  16
ENDBRANCH   5  15
TORSDOF 5
