REMARK  Name = ZINC62953168
REMARK  5 active torsions:
REMARK  status: ('A' for Active; 'I' for Inactive)
REMARK    1  A    between atoms: C_1  and  C_2
REMARK    2  A    between atoms: C_2  and  C_3
REMARK    3  A    between atoms: C_3  and  C_19
REMARK    4  A    between atoms: C_10  and  C_16
REMARK    5  A    between atoms: C_12  and  N_15
REMARK                            x       y       z     vdW  Elec       q    Type
REMARK                         _______ _______ _______ _____ _____    ______ ____
ROOT
ATOM      1  C   UNL     1      -1.416  -0.573   0.033  0.00  0.00    -0.029 C 
ATOM      2  C   UNL     1      -2.157  -0.051  -1.199  0.00  0.00    +0.025 C 
ATOM      3  C   UNL     1      -3.605  -0.549  -1.169  0.00  0.00    +0.107 C 
ATOM      4  N   UNL     1      -3.599  -2.013  -1.044  0.00  0.00    -0.315 N 
ATOM      5  C   UNL     1      -2.840  -2.626   0.054  0.00  0.00    +0.107 C 
ATOM      6  C   UNL     1      -1.400  -2.103   0.010  0.00  0.00    +0.025 C 
ATOM      7  C   UNL     1      -4.295  -2.801  -1.946  0.00  0.00    +0.134 A 
ATOM      8  C   UNL     1      -5.602  -3.220  -1.642  0.00  0.00    +0.078 A 
ATOM      9  C   UNL     1      -6.288  -4.016  -2.566  0.00  0.00    +0.040 A 
ATOM     10  C   UNL     1      -5.643  -4.357  -3.748  0.00  0.00    +0.044 A 
ATOM     11  C   UNL     1      -4.350  -3.903  -3.975  0.00  0.00    +0.135 A 
ATOM     12  N   UNL     1      -3.728  -3.150  -3.089  0.00  0.00    -0.238 NA
ATOM     13  C   UNL     1      -2.127  -0.090   1.299  0.00  0.00    +0.011 C 
ENDROOT
BRANCH   8  14
ATOM     14  C   UNL     1      -6.238  -2.828  -0.371  0.00  0.00    +0.245 C 
ATOM     15  O   UNL     1      -5.673  -2.054   0.378  0.00  0.00    -0.270 OA
ATOM     16  N   UNL     1      -7.445  -3.328  -0.040  0.00  0.00    -0.325 N 
ATOM     17  H   UNL     1      -7.895  -3.945  -0.637  0.00  0.00    +0.145 HD
ATOM     18  H   UNL     1      -7.864  -3.070   0.797  0.00  0.00    +0.145 HD
ENDBRANCH   8  14
BRANCH  10  19
ATOM     19  N   UNL     1      -6.291  -5.152  -4.703  0.00  0.00    -0.357 N 
ATOM     20  H   UNL     1      -7.194  -5.467  -4.540  0.00  0.00    +0.142 HD
ATOM     21  H   UNL     1      -5.837  -5.388  -5.527  0.00  0.00    +0.142 HD
ENDBRANCH  10  19
BRANCH   1  23
ATOM     22  C   UNL     1       0.006   1.481   0.047  0.00  0.00    +0.004 C 
ATOM     23  C   UNL     1       0.021  -0.049   0.024  0.00  0.00    +0.003 C 
ENDBRANCH   1  23
TORSDOF 3
