REMARK  Name = ZINC09159336
REMARK  10 active torsions:
REMARK  status: ('A' for Active; 'I' for Inactive)
REMARK    1  A    between atoms: C_1  and  O_2
REMARK    2  A    between atoms: O_2  and  C_3
REMARK    3  A    between atoms: C_3  and  C_5
REMARK    4  A    between atoms: C_9  and  N_10
REMARK    5  A    between atoms: C_11  and  C_13
REMARK    6  A    between atoms: N_15  and  N_16
REMARK    7  A    between atoms: C_17  and  C_18
REMARK    8  A    between atoms: C_22  and  O_24
REMARK    9  A    between atoms: O_24  and  C_25
REMARK   10  A    between atoms: C_25  and  C_26
REMARK                            x       y       z     vdW  Elec       q    Type
REMARK                         _______ _______ _______ _____ _____    ______ ____
ROOT
ATOM      1  C   UNL     1      -2.413   8.009   0.066  0.00  0.00    +0.318 C 
ATOM      2  O   UNL     1      -3.454   7.384   0.072  0.00  0.00    -0.263 OA
ATOM      3  N   UNL     1      -1.234   7.354   0.052  0.00  0.00    -0.199 N 
ATOM      4  H   UNL     1      -0.403   7.853   0.047  0.00  0.00    +0.178 HD
ENDROOT
BRANCH   1   6
ATOM      5  N   UNL     1      -3.615  10.153   0.089  0.00  0.00    -0.271 N 
ATOM      6  C   UNL     1      -2.437   9.499   0.074  0.00  0.00    +0.305 C 
ATOM      7  O   UNL     1      -1.396  10.123   0.068  0.00  0.00    -0.265 OA
ATOM      8  H   UNL     1      -4.447   9.655   0.094  0.00  0.00    +0.156 HD
BRANCH   5  13
ATOM      9  C   UNL     1      -4.741  12.382   0.105  0.00  0.00    +0.091 A 
ATOM     10  C   UNL     1      -4.489  13.813   0.116  0.00  0.00    -0.021 A 
ATOM     11  C   UNL     1      -3.186  14.168   0.105  0.00  0.00    -0.004 A 
ATOM     12  S   UNL     1      -2.299  12.636   0.089  0.00  0.00    -0.077 S 
ATOM     13  C   UNL     1      -3.638  11.537   0.097  0.00  0.00    +0.087 A 
ATOM     14  C   UNL     1      -2.628  15.558   0.107  0.00  0.00    +0.043 C 
ATOM     15  C   UNL     1      -3.758  16.532  -0.256  0.00  0.00    +0.005 C 
ATOM     16  C   UNL     1      -4.990  16.197   0.591  0.00  0.00    +0.005 C 
ATOM     17  C   UNL     1      -5.590  14.867   0.133  0.00  0.00    +0.037 C 
BRANCH   9  18
ATOM     18  C   UNL     1      -6.106  11.851   0.108  0.00  0.00    +0.342 C 
ATOM     19  O   UNL     1      -6.668  11.625   1.163  0.00  0.00    -0.245 OA
BRANCH  18  21
ATOM     20  C   UNL     1      -8.090  11.085  -0.980  0.00  0.00    +0.280 C 
ATOM     21  O   UNL     1      -6.739  11.611  -1.058  0.00  0.00    -0.464 OA
ENDBRANCH  18  21
ENDBRANCH   9  18
ENDBRANCH   5  13
ENDBRANCH   1   6
BRANCH   3  22
ATOM     22  N   UNL     1      -1.211   5.953   0.044  0.00  0.00    -0.187 NA
ATOM     23  C   UNL     1      -0.076   5.323   0.030  0.00  0.00    +0.138 C 
BRANCH  23  24
ATOM     24  C   UNL     1      -0.051   3.849   0.022  0.00  0.00    -0.002 A 
ATOM     25  C   UNL     1      -1.248   3.127   0.030  0.00  0.00    +0.010 A 
ATOM     26  C   UNL     1      -1.221   1.748   0.017  0.00  0.00    +0.004 A 
ATOM     27  C   UNL     1      -0.013   1.076   0.008  0.00  0.00    +0.046 A 
ATOM     28  C   UNL     1       1.182   1.784   0.000  0.00  0.00    +0.122 A 
ATOM     29  C   UNL     1       1.167   3.168   0.007  0.00  0.00    +0.055 A 
BRANCH  28  30
ATOM     30  O   UNL     1       2.366   1.117  -0.015  0.00  0.00    -0.483 OA
BRANCH  30  31
ATOM     31  C   UNL     1       2.307  -0.311  -0.022  0.00  0.00    +0.324 C 
BRANCH  31  32
ATOM     32  C   UNL     1       3.705  -0.872  -0.038  0.00  0.00    +0.248 C 
ATOM     33  O   UNL     1       4.659  -0.123  -0.043  0.00  0.00    -0.272 OA
ATOM     34  N   UNL     1       3.897  -2.206  -0.047  0.00  0.00    -0.327 N 
ATOM     35  H   UNL     1       3.134  -2.805  -0.043  0.00  0.00    +0.145 HD
ATOM     36  H   UNL     1       4.797  -2.567  -0.058  0.00  0.00    +0.145 HD
ENDBRANCH  31  32
ENDBRANCH  30  31
ENDBRANCH  28  30
ENDBRANCH  23  24
ENDBRANCH   3  22
TORSDOF 9
