REMARK  Name = ZINC08744458
REMARK  8 active torsions:
REMARK  status: ('A' for Active; 'I' for Inactive)
REMARK    1  A    between atoms: C_1  and  C_2
REMARK    2  A    between atoms: C_4  and  C_17
REMARK    3  A    between atoms: C_5  and  C_16
REMARK    4  A    between atoms: N_6  and  C_7
REMARK    5  A    between atoms: C_10  and  N_13
REMARK    6  A    between atoms: N_13  and  C_14
REMARK    7  A    between atoms: N_13  and  C_15
REMARK    8  A    between atoms: N_24  and  C_27
REMARK                            x       y       z     vdW  Elec       q    Type
REMARK                         _______ _______ _______ _____ _____    ______ ____
ROOT
ATOM      1  C   UNL     1       0.414  -3.423  -1.450  0.00  0.00    +0.028 C 
ATOM      2  C   UNL     1      -0.250  -3.473  -2.669  0.00  0.00    +0.102 C 
ATOM      3  C   UNL     1      -1.120  -2.376  -3.116  0.00  0.00    +0.276 C 
ATOM      4  O   UNL     1      -1.299  -1.281  -2.348  0.00  0.00    -0.268 OA
ATOM      5  N   UNL     1      -1.724  -2.486  -4.287  0.00  0.00    -0.123 NA
ATOM      6  C   UNL     1      -1.566  -3.554  -5.065  0.00  0.00    +0.340 C 
ATOM      7  O   UNL     1      -2.155  -3.582  -6.131  0.00  0.00    -0.250 OA
ATOM      8  N   UNL     1      -0.793  -4.601  -4.740  0.00  0.00    -0.188 N 
ATOM      9  C   UNL     1      -0.110  -4.628  -3.576  0.00  0.00    +0.264 C 
ATOM     10  O   UNL     1       0.596  -5.575  -3.283  0.00  0.00    -0.269 OA
ENDROOT
BRANCH   1  14
ATOM     11  C   UNL     1       0.797   1.442  -0.163  0.00  0.00    +0.064 C 
ATOM     12  C   UNL     1       0.595  -0.051  -0.135  0.00  0.00    +0.022 A 
ATOM     13  C   UNL     1       0.699  -0.869  -1.194  0.00  0.00    +0.031 A 
ATOM     14  C   UNL     1       0.422  -2.226  -0.699  0.00  0.00    -0.003 A 
ATOM     15  C   UNL     1       0.169  -2.089   0.660  0.00  0.00    +0.028 A 
ATOM     16  N   UNL     1       0.283  -0.786   0.976  0.00  0.00    -0.317 N 
ATOM     17  C   UNL     1      -0.168  -3.205   1.616  0.00  0.00    +0.064 C 
BRANCH  16  18
ATOM     18  C   UNL     1       0.104  -0.256   2.262  0.00  0.00    +0.047 A 
ATOM     19  C   UNL     1       0.984  -0.594   3.281  0.00  0.00    +0.028 A 
ATOM     20  C   UNL     1       0.808  -0.073   4.547  0.00  0.00    +0.025 A 
ATOM     21  C   UNL     1      -0.250   0.791   4.801  0.00  0.00    +0.029 A 
ATOM     22  C   UNL     1      -1.131   1.129   3.781  0.00  0.00    +0.025 A 
ATOM     23  C   UNL     1      -0.951   0.612   2.514  0.00  0.00    +0.028 A 
BRANCH  21  24
ATOM     24  N   UNL     1      -0.429   1.319   6.083  0.00  0.00    -0.336 N 
ATOM     25  C   UNL     1       0.572   1.072   7.123  0.00  0.00    +0.129 C 
ATOM     26  C   UNL     1      -1.619   2.119   6.386  0.00  0.00    +0.129 C 
ENDBRANCH  21  24
ENDBRANCH  16  18
ENDBRANCH   1  14
BRANCH   8  27
ATOM     27  C   UNL     1      -0.689  -5.682  -5.626  0.00  0.00    +0.046 A 
ATOM     28  C   UNL     1      -1.216  -6.919  -5.279  0.00  0.00    +0.025 A 
ATOM     29  C   UNL     1      -1.112  -7.982  -6.153  0.00  0.00    +0.017 A 
ATOM     30  C   UNL     1      -0.484  -7.816  -7.375  0.00  0.00    +0.018 A 
ATOM     31  C   UNL     1       0.042  -6.585  -7.723  0.00  0.00    +0.017 A 
ATOM     32  C   UNL     1      -0.064  -5.517  -6.855  0.00  0.00    +0.025 A 
ATOM     33 BR   UNL     1      -0.343  -9.275  -8.570  0.00  0.00    -0.050 Br
ENDBRANCH   8  27
TORSDOF 4
