REMARK  Name = ZINC39922902
REMARK  5 active torsions:
REMARK  status: ('A' for Active; 'I' for Inactive)
REMARK    1  A    between atoms: C_4  and  O_25
REMARK    2  A    between atoms: C_5  and  C_7
REMARK    3  A    between atoms: N_8  and  N_9
REMARK    4  A    between atoms: C_10  and  C_12
REMARK    5  A    between atoms: C_15  and  C_18
REMARK                            x       y       z     vdW  Elec       q    Type
REMARK                         _______ _______ _______ _____ _____    ______ ____
ROOT
ATOM      1  N   UNL     1       2.382  -4.207  -0.052  0.00  0.00    -0.205 N 
ATOM      2  C   UNL     1       3.570  -4.845  -0.061  0.00  0.00    +0.263 C 
ATOM      3  O   UNL     1       4.601  -4.206  -0.059  0.00  0.00    -0.271 OA
ATOM      4  H   UNL     1       1.557  -4.718  -0.053  0.00  0.00    +0.177 HD
ENDROOT
BRANCH   2   5
ATOM      5  C   UNL     1       3.616  -6.351  -0.075  0.00  0.00    +0.240 C 
ATOM      6  C   UNL     1       3.448  -6.906   1.328  0.00  0.00    +0.041 C 
ATOM      7  C   UNL     1       4.598  -7.569   1.553  0.00  0.00    +0.093 C 
ATOM      8  N   UNL     1       5.417  -7.478   0.472  0.00  0.00    -0.153 NA
ATOM      9  N   UNL     1       4.952  -6.826  -0.470  0.00  0.00    -0.170 NA
BRANCH   7  10
ATOM     10  C   UNL     1       4.926  -8.296   2.805  0.00  0.00    +0.020 A 
ATOM     11  C   UNL     1       4.066  -8.225   3.899  0.00  0.00    +0.011 A 
ATOM     12  C   UNL     1       4.375  -8.904   5.061  0.00  0.00    +0.001 A 
ATOM     13  C   UNL     1       5.536  -9.653   5.140  0.00  0.00    +0.001 A 
ATOM     14  C   UNL     1       6.393  -9.726   4.058  0.00  0.00    +0.020 A 
ATOM     15  C   UNL     1       6.092  -9.056   2.888  0.00  0.00    +0.050 A 
ATOM     16 CL   UNL     1       7.165  -9.155   1.527  0.00  0.00    -0.083 Cl
ENDBRANCH   7  10
ENDBRANCH   2   5
BRANCH   1  18
ATOM     17  C   UNL     1       1.195  -2.193  -0.029  0.00  0.00    +0.142 C 
ATOM     18  N   UNL     1       2.339  -2.807  -0.039  0.00  0.00    -0.188 NA
BRANCH  17  23
ATOM     19  C   UNL     1      -0.114   1.323   0.005  0.00  0.00    +0.001 A 
ATOM     20  C   UNL     1       1.063   2.052   0.008  0.00  0.00    +0.004 A 
ATOM     21  C   UNL     1       2.285   1.406  -0.001  0.00  0.00    +0.046 A 
ATOM     22  C   UNL     1       2.339   0.022  -0.013  0.00  0.00    +0.125 A 
ATOM     23  C   UNL     1       1.150  -0.720  -0.016  0.00  0.00    +0.036 A 
ATOM     24  C   UNL     1      -0.079  -0.055  -0.007  0.00  0.00    +0.013 A 
BRANCH  22  25
ATOM     25  O   UNL     1       3.539  -0.614  -0.023  0.00  0.00    -0.506 OA
ATOM     26  H   UNL     1       3.890  -0.806   0.858  0.00  0.00    +0.292 HD
ENDBRANCH  22  25
ENDBRANCH  17  23
ENDBRANCH   1  18
TORSDOF 5
