REMARK  Name = ZINC64033246
REMARK  0 active torsions:
REMARK  status: ('A' for Active; 'I' for Inactive)
REMARK                            x       y       z     vdW  Elec       q    Type
REMARK                         _______ _______ _______ _____ _____    ______ ____
ROOT
ATOM      1  C   UNL     1      -0.018   1.516   0.010  0.00  0.00    +0.018 C 
ATOM      2  C   UNL     1       1.160   2.173   0.003  0.00  0.00    +0.111 C 
ATOM      3  N   UNL     1       2.341   1.580  -0.012  0.00  0.00    -0.235 NA
ATOM      4  C   UNL     1       2.530   0.281  -0.021  0.00  0.00    +0.177 C 
ATOM      5  C   UNL     1       1.375  -0.632  -0.015  0.00  0.00    +0.108 C 
ATOM      6  N   UNL     1       1.860  -1.840  -0.026  0.00  0.00    -0.235 NA
ATOM      7  C   UNL     1       3.197  -1.776  -0.039  0.00  0.00    +0.224 C 
ATOM      8  N   UNL     1       3.616  -0.534  -0.036  0.00  0.00    -0.215 NA
ATOM      9  C   UNL     1       0.002  -0.004   0.002  0.00  0.00    +0.157 C 
ATOM     10 CL   UNL     1      -0.899  -0.575  -1.452  0.00  0.00    -0.110 Cl
ENDROOT
TORSDOF 0
