REMARK  Name = ZINC47353955
REMARK  10 active torsions:
REMARK  status: ('A' for Active; 'I' for Inactive)
REMARK    1  A    between atoms: C_1  and  C_2
REMARK    2  A    between atoms: C_2  and  C_3
REMARK    3  A    between atoms: C_2  and  C_4
REMARK    4  A    between atoms: C_7  and  C_10
REMARK    5  A    between atoms: C_10  and  C_29
REMARK    6  A    between atoms: N_13  and  C_17
REMARK    7  A    between atoms: C_17  and  C_18
REMARK    8  A    between atoms: C_18  and  O_19
REMARK    9  A    between atoms: O_19  and  C_20
REMARK   10  A    between atoms: C_24  and  N_26
REMARK                            x       y       z     vdW  Elec       q    Type
REMARK                         _______ _______ _______ _____ _____    ______ ____
ROOT
ATOM      1  C   UNL     1      -5.419  -2.005   0.043  0.00  0.00    +0.135 C 
ATOM      2  C   UNL     1      -5.481  -3.389  -0.572  0.00  0.00    +0.251 C 
ATOM      3  O   UNL     1      -5.189  -3.699  -1.707  0.00  0.00    -0.272 OA
ATOM      4  N   UNL     1      -5.928  -4.202   0.405  0.00  0.00    -0.221 N 
ATOM      5  C   UNL     1      -6.154  -3.531   1.541  0.00  0.00    +0.310 C 
ATOM      6  O   UNL     1      -6.561  -4.050   2.562  0.00  0.00    -0.252 OA
ATOM      7  N   UNL     1      -5.881  -2.219   1.425  0.00  0.00    -0.281 N 
ATOM      8  C   UNL     1      -6.353  -1.042  -0.693  0.00  0.00    +0.047 C 
ATOM      9  H   UNL     1      -5.971  -1.546   2.118  0.00  0.00    +0.152 HD
ENDROOT
BRANCH   1  13
ATOM     10  C   UNL     1      -1.412  -0.526   0.013  0.00  0.00    -0.045 A 
ATOM     11  C   UNL     1      -2.259  -0.204   1.056  0.00  0.00    +0.004 A 
ATOM     12  C   UNL     1      -3.556  -0.683   1.066  0.00  0.00    +0.006 A 
ATOM     13  C   UNL     1      -4.006  -1.482   0.032  0.00  0.00    -0.015 A 
ATOM     14  C   UNL     1      -3.159  -1.803  -1.012  0.00  0.00    +0.006 A 
ATOM     15  C   UNL     1      -1.863  -1.321  -1.024  0.00  0.00    +0.004 A 
BRANCH  10  17
ATOM     16  C   UNL     1      -0.019   1.526   0.010  0.00  0.00    +0.012 C 
ATOM     17  C   UNL     1       0.002  -0.004   0.002  0.00  0.00    +0.013 C 
ATOM     18  C   UNL     1       0.742  -0.511   1.242  0.00  0.00    +0.012 C 
ENDBRANCH  10  17
ENDBRANCH   1  13
BRANCH   4  19
ATOM     19  C   UNL     1      -6.140  -5.643   0.244  0.00  0.00    +0.159 C 
BRANCH  19  20
ATOM     20  C   UNL     1      -4.855  -6.391   0.604  0.00  0.00    +0.248 C 
BRANCH  20  21
ATOM     21  O   UNL     1      -4.567  -6.204   1.991  0.00  0.00    -0.490 OA
BRANCH  21  22
ATOM     22  C   UNL     1      -3.450  -6.807   2.476  0.00  0.00    +0.123 A 
ATOM     23  C   UNL     1      -2.644  -7.559   1.633  0.00  0.00    +0.046 A 
ATOM     24  C   UNL     1      -1.509  -8.171   2.129  0.00  0.00    +0.006 A 
ATOM     25  C   UNL     1      -1.176  -8.035   3.464  0.00  0.00    +0.033 A 
ATOM     26  C   UNL     1      -1.978  -7.287   4.306  0.00  0.00    +0.130 A 
ATOM     27  C   UNL     1      -3.111  -6.668   3.814  0.00  0.00    +0.078 A 
BRANCH  26  28
ATOM     28  N   UNL     1      -1.618  -7.143   5.735  0.00  0.00    +0.057 N 
ATOM     29  O   UNL     1      -0.624  -7.681   6.165  0.00  0.00    -0.126 OA
ATOM     30  O   UNL     1      -2.319  -6.489   6.472  0.00  0.00    -0.126 OA
ENDBRANCH  26  28
ENDBRANCH  21  22
ENDBRANCH  20  21
ENDBRANCH  19  20
ENDBRANCH   4  19
TORSDOF 7
