REMARK  Name = ZINC48831927
REMARK  5 active torsions:
REMARK  status: ('A' for Active; 'I' for Inactive)
REMARK    1  A    between atoms: C_2  and  C_9
REMARK    2  A    between atoms: C_5  and  N_6
REMARK    3  A    between atoms: N_11  and  N_12
REMARK    4  A    between atoms: N_15  and  C_16
REMARK    5  A    between atoms: C_16  and  C_17
REMARK                            x       y       z     vdW  Elec       q    Type
REMARK                         _______ _______ _______ _____ _____    ______ ____
ROOT
ATOM      1  C   UNL     1       1.404   3.454   0.007  0.00  0.00    +0.261 C 
ATOM      2  O   UNL     1       0.408   4.153   0.020  0.00  0.00    -0.269 OA
ATOM      3  N   UNL     1       2.626   4.023  -0.002  0.00  0.00    -0.229 N 
ATOM      4  H   UNL     1       3.420   3.466  -0.012  0.00  0.00    +0.173 HD
ENDROOT
BRANCH   3   5
ATOM      5  N   UNL     1       2.749   5.419   0.004  0.00  0.00    -0.218 N 
ATOM      6  C   UNL     1       3.971   5.987  -0.005  0.00  0.00    +0.316 C 
ATOM      7  O   UNL     1       4.078   7.199   0.001  0.00  0.00    -0.251 OA
ATOM      8  N   UNL     1       5.074   5.214  -0.019  0.00  0.00    -0.290 N 
ATOM      9  H   UNL     1       1.955   5.976   0.014  0.00  0.00    +0.174 HD
ATOM     10  H   UNL     1       4.989   4.247  -0.023  0.00  0.00    +0.151 HD
BRANCH   8  11
ATOM     11  C   UNL     1       6.403   5.832  -0.028  0.00  0.00    +0.219 C 
BRANCH  11  12
ATOM     12  C   UNL     1       7.474   4.739  -0.044  0.00  0.00    +0.405 C 
ATOM     13  F   UNL     1       7.318   3.950  -1.189  0.00  0.00    -0.169 F 
ATOM     14  F   UNL     1       8.742   5.330  -0.053  0.00  0.00    -0.169 F 
ATOM     15  F   UNL     1       7.340   3.939   1.096  0.00  0.00    -0.169 F 
ENDBRANCH  11  12
ENDBRANCH   8  11
ENDBRANCH   3   5
BRANCH   1  17
ATOM     16  C   UNL     1      -0.016   1.344   0.009  0.00  0.00    +0.053 A 
ATOM     17  C   UNL     1       1.275   1.988   0.001  0.00  0.00    +0.047 A 
ATOM     18  C   UNL     1       2.380   1.167  -0.014  0.00  0.00    +0.060 A 
ATOM     19  S   UNL     1       1.741  -0.384  -0.017  0.00  0.00    -0.072 S 
ATOM     20  C   UNL     1       0.002  -0.004   0.002  0.00  0.00    +0.164 A 
BRANCH  20  21
ATOM     21  N   UNL     1      -1.145  -0.940   0.009  0.00  0.00    +0.063 N 
ATOM     22  O   UNL     1      -2.275  -0.511   0.022  0.00  0.00    -0.126 OA
ATOM     23  O   UNL     1      -0.951  -2.134   0.000  0.00  0.00    -0.126 OA
ENDBRANCH  20  21
ENDBRANCH   1  17
TORSDOF 5
