REMARK  Name = ZINC36797383
REMARK  7 active torsions:
REMARK  status: ('A' for Active; 'I' for Inactive)
REMARK    1  A    between atoms: C_1  and  C_2
REMARK    2  A    between atoms: C_3  and  N_20
REMARK    3  A    between atoms: C_4  and  C_19
REMARK    4  A    between atoms: N_5  and  C_7
REMARK    5  A    between atoms: C_7  and  C_8
REMARK    6  A    between atoms: C_15  and  C_17
REMARK    7  A    between atoms: C_17  and  O_18
REMARK                            x       y       z     vdW  Elec       q    Type
REMARK                         _______ _______ _______ _____ _____    ______ ____
ROOT
ATOM      1  C   UNL     1       0.075  -3.195   1.599  0.00  0.00    +0.239 C 
ENDROOT
BRANCH   1   2
ATOM      2  C   UNL     1       1.499  -3.614   1.860  0.00  0.00    +0.237 C 
ATOM      3  O   UNL     1       2.416  -2.969   1.398  0.00  0.00    -0.274 OA
ATOM      4  N   UNL     1       1.753  -4.706   2.608  0.00  0.00    -0.295 N 
ATOM      5  C   UNL     1       0.660  -5.430   3.272  0.00  0.00    +0.108 C 
ATOM      6  C   UNL     1       0.735  -6.908   2.876  0.00  0.00    +0.019 C 
ATOM      7  C   UNL     1       2.131  -7.447   3.194  0.00  0.00    +0.003 C 
ATOM      8  C   UNL     1       3.175  -6.676   2.384  0.00  0.00    +0.025 C 
ATOM      9  C   UNL     1       3.128  -5.199   2.769  0.00  0.00    +0.101 C 
BRANCH   9  10
ATOM     10  C   UNL     1       4.068  -4.404   1.862  0.00  0.00    +0.178 C 
BRANCH  10  11
ATOM     11  O   UNL     1       3.697  -4.606   0.497  0.00  0.00    -0.393 OA
ATOM     12  H   UNL     1       4.252  -4.130  -0.136  0.00  0.00    +0.209 HD
ENDBRANCH  10  11
ENDBRANCH   9  10
ENDBRANCH   1   2
BRANCH   1  17
ATOM     13  C   UNL     1       0.072   1.640   0.247  0.00  0.00    +0.069 C 
ATOM     14  C   UNL     1       0.065   0.134   0.197  0.00  0.00    +0.081 A 
ATOM     15  C   UNL     1       0.043  -0.649  -0.967  0.00  0.00    +0.068 A 
ATOM     16  C   UNL     1       0.044  -1.953  -0.592  0.00  0.00    +0.058 A 
ATOM     17  N   UNL     1       0.066  -1.989   0.767  0.00  0.00    -0.258 N 
ATOM     18  N   UNL     1       0.085  -0.667   1.232  0.00  0.00    -0.174 NA
ATOM     19  C   UNL     1       0.024  -3.145  -1.514  0.00  0.00    +0.067 C 
BRANCH  15  20
ATOM     20  N   UNL     1       0.022  -0.167  -2.290  0.00  0.00    -0.355 N 
ATOM     21  H   UNL     1       0.024   0.789  -2.458  0.00  0.00    +0.142 HD
ATOM     22  H   UNL     1       0.007  -0.790  -3.033  0.00  0.00    +0.142 HD
ENDBRANCH  15  20
ENDBRANCH   1  17
TORSDOF 5
