REMARK  Name = ZINC33073339
REMARK  4 active torsions:
REMARK  status: ('A' for Active; 'I' for Inactive)
REMARK    1  A    between atoms: C_1  and  C_2
REMARK    2  A    between atoms: C_5  and  N_9
REMARK    3  A    between atoms: C_10  and  C_12
REMARK    4  A    between atoms: C_13  and  C_23
REMARK                            x       y       z     vdW  Elec       q    Type
REMARK                         _______ _______ _______ _____ _____    ______ ____
ROOT
ATOM      1  N   UNL     1       0.058  -4.170  -0.023  0.00  0.00    -0.281 N 
ATOM      2  C   UNL     1       0.174  -4.851   1.134  0.00  0.00    +0.255 C 
ATOM      3  O   UNL     1       0.172  -4.253   2.195  0.00  0.00    -0.269 OA
ATOM      4  H   UNL     1      -0.017  -4.651  -0.863  0.00  0.00    +0.155 HD
ENDROOT
BRANCH   2   5
ATOM      5  C   UNL     1       0.304  -6.311   1.117  0.00  0.00    +0.080 A 
ATOM      6  C   UNL     1       0.426  -7.168   2.171  0.00  0.00    -0.017 A 
ATOM      7  C   UNL     1       0.538  -8.541   1.942  0.00  0.00    +0.076 A 
ATOM      8  C   UNL     1       0.679  -9.645   2.919  0.00  0.00    +0.260 A 
ATOM      9  O   UNL     1       0.710  -9.419   4.116  0.00  0.00    -0.267 OA
ATOM     10  N   UNL     1       0.771 -10.904   2.450  0.00  0.00    -0.313 N 
ATOM     11  H   UNL     1       0.864 -11.639   3.077  0.00  0.00    +0.170 HD
ATOM     12  C   UNL     1       0.736 -11.167   1.120  0.00  0.00    +0.200 A 
ATOM     13  N   UNL     1       0.614 -10.217   0.233  0.00  0.00    -0.230 NA
ATOM     14  C   UNL     1       0.515  -8.943   0.587  0.00  0.00    +0.116 A 
ATOM     15  S   UNL     1       0.334  -7.409  -0.290  0.00  0.00    -0.064 S 
ATOM     16  C   UNL     1       0.440  -6.634   3.580  0.00  0.00    +0.046 C 
ENDBRANCH   2   5
BRANCH   1  21
ATOM     17  C   UNL     1       0.002   1.503   0.010  0.00  0.00    +0.047 C 
ATOM     18  C   UNL     1       0.018  -0.004   0.002  0.00  0.00    -0.015 A 
ATOM     19  C   UNL     1      -0.726  -0.696  -0.936  0.00  0.00    +0.008 A 
ATOM     20  C   UNL     1      -0.714  -2.077  -0.947  0.00  0.00    +0.024 A 
ATOM     21  C   UNL     1       0.045  -2.772  -0.014  0.00  0.00    +0.036 A 
ATOM     22  C   UNL     1       0.791  -2.076   0.927  0.00  0.00    +0.062 A 
ATOM     23  C   UNL     1       0.780  -0.693   0.930  0.00  0.00    +0.128 A 
ATOM     24  F   UNL     1       1.510  -0.013   1.842  0.00  0.00    -0.205 F 
ENDBRANCH   1  21
TORSDOF 2
