REMARK  Name = ZINC16955683
REMARK  8 active torsions:
REMARK  status: ('A' for Active; 'I' for Inactive)
REMARK    1  A    between atoms: C_1  and  C_2
REMARK    2  A    between atoms: C_2  and  C_23
REMARK    3  A    between atoms: C_4  and  N_9
REMARK    4  A    between atoms: C_6  and  C_7
REMARK    5  A    between atoms: C_6  and  C_8
REMARK    6  A    between atoms: C_10  and  C_11
REMARK    7  A    between atoms: C_15  and  S_22
REMARK    8  A    between atoms: N_16  and  C_19
REMARK                            x       y       z     vdW  Elec       q    Type
REMARK                         _______ _______ _______ _____ _____    ______ ____
ROOT
ATOM      1  N   UNL     1       2.764   3.951   0.086  0.00  0.00    -0.291 NA
ATOM      2  C   UNL     1       1.535   3.409   0.198  0.00  0.00    +0.100 C 
ENDROOT
BRANCH   1   6
ATOM      3  C   UNL     1       4.002   7.586   2.248  0.00  0.00    -0.010 C 
ATOM      4  C   UNL     1       4.634   7.148   0.921  0.00  0.00    -0.071 C 
ATOM      5  C   UNL     1       4.401   5.653   0.714  0.00  0.00    +0.014 C 
ATOM      6  C   UNL     1       2.954   5.392   0.300  0.00  0.00    +0.102 C 
ATOM      7  C   UNL     1       2.681   6.135  -1.008  0.00  0.00    +0.014 C 
ATOM      8  C   UNL     1       2.890   7.635  -0.819  0.00  0.00    -0.071 C 
ATOM      9  C   UNL     1       1.709   8.224  -0.039  0.00  0.00    -0.010 C 
ATOM     10  C   UNL     1       2.882   8.286  -2.221  0.00  0.00    -0.010 C 
ATOM     11  C   UNL     1       6.158   7.368   1.046  0.00  0.00    -0.010 C 
ATOM     12  N   UNL     1       4.191   8.014  -0.205  0.00  0.00    +0.386 N 
ATOM     13  H   UNL     1       4.911   7.977  -0.936  0.00  0.00    -0.084 HD
ATOM     14  H   UNL     1       4.109   8.975   0.147  0.00  0.00    -0.084 HD
ENDBRANCH   1   6
BRANCH   2  15
ATOM     15  C   UNL     1       1.373   2.039   0.113  0.00  0.00    +0.204 C 
ATOM     16  C   UNL     1       2.534   1.128   0.044  0.00  0.00    +0.255 C 
ATOM     17  O   UNL     1       3.673   1.565   0.062  0.00  0.00    -0.272 OA
ATOM     18  N   UNL     1       2.307  -0.191  -0.038  0.00  0.00    -0.158 NA
ATOM     19  C   UNL     1       1.091  -0.687  -0.059  0.00  0.00    +0.152 C 
ATOM     20  N   UNL     1      -0.035   0.077   0.000  0.00  0.00    -0.249 N 
ATOM     21  C   UNL     1       0.037   1.422   0.085  0.00  0.00    +0.239 C 
ATOM     22  O   UNL     1      -0.971   2.104   0.132  0.00  0.00    -0.274 OA
BRANCH  20  23
ATOM     23  C   UNL     1      -1.348  -0.573  -0.030  0.00  0.00    +0.083 C 
ATOM     24  C   UNL     1      -2.384  -0.120   1.001  0.00  0.00    +0.025 C 
ATOM     25  C   UNL     1      -1.711  -1.486   1.143  0.00  0.00    +0.025 C 
ENDBRANCH  20  23
BRANCH  19  26
ATOM     26  S   UNL     1       0.906  -2.436  -0.170  0.00  0.00    -0.110 S 
ATOM     27  H   UNL     1       2.261  -2.823  -0.207  0.00  0.00    +0.110 HD
ENDBRANCH  19  26
ENDBRANCH   2  15
TORSDOF 4
