REMARK  Name = ZINC19324244
REMARK  5 active torsions:
REMARK  status: ('A' for Active; 'I' for Inactive)
REMARK    1  A    between atoms: C_1  and  C_2
REMARK    2  A    between atoms: C_9  and  N_10
REMARK    3  A    between atoms: N_14  and  C_17
REMARK    4  A    between atoms: C_17  and  C_18
REMARK    5  A    between atoms: C_25  and  C_26
REMARK                            x       y       z     vdW  Elec       q    Type
REMARK                         _______ _______ _______ _____ _____    ______ ____
ROOT
ATOM      1  N   UNL     1       0.046  -0.144   4.706  0.00  0.00    -0.181 NA
ATOM      2  C   UNL     1       0.066  -0.823   5.835  0.00  0.00    +0.185 C 
ATOM      3  N   UNL     1       0.091  -2.204   5.860  0.00  0.00    -0.304 N 
ATOM      4  C   UNL     1      -0.748  -2.871   6.870  0.00  0.00    +0.193 C 
ATOM      5  N   UNL     1      -0.506  -2.239   8.176  0.00  0.00    -0.267 NA
ATOM      6  C   UNL     1      -0.777  -0.794   8.119  0.00  0.00    +0.193 C 
ATOM      7  N   UNL     1       0.068  -0.197   7.067  0.00  0.00    -0.304 N 
ATOM      8  H   UNL     1       0.600   0.598   7.230  0.00  0.00    +0.150 HD
ATOM      9  H   UNL     1       0.638  -2.712   5.241  0.00  0.00    +0.150 HD
ENDROOT
BRANCH   1  18
ATOM     10  C   UNL     1      -0.018   1.503   0.010  0.00  0.00    +0.046 C 
ATOM     11  C   UNL     1       0.002  -0.004   0.002  0.00  0.00    -0.024 A 
ATOM     12  C   UNL     1       0.006  -0.683  -1.179  0.00  0.00    +0.005 A 
ATOM     13  C   UNL     1       0.025  -2.075  -1.208  0.00  0.00    +0.001 A 
ATOM     14  C   UNL     1       0.040  -2.800  -0.054  0.00  0.00    +0.012 A 
ATOM     15  C   UNL     1       0.037  -2.135   1.180  0.00  0.00    +0.022 A 
ATOM     16  C   UNL     1       0.023  -0.716   1.210  0.00  0.00    +0.079 A 
ATOM     17  N   UNL     1       0.025  -0.097   2.396  0.00  0.00    -0.210 NA
ATOM     18  C   UNL     1       0.045  -0.803   3.517  0.00  0.00    +0.254 A 
ATOM     19  N   UNL     1       0.063  -2.140   3.522  0.00  0.00    -0.215 NA
ATOM     20  C   UNL     1       0.052  -2.833   2.404  0.00  0.00    +0.051 A 
ATOM     21  C   UNL     1       0.072  -4.339   2.431  0.00  0.00    +0.066 C 
ENDBRANCH   1  18
BRANCH   5  22
ATOM     22  C   UNL     1      -1.304  -2.883   9.228  0.00  0.00    +0.124 C 
BRANCH  22  23
ATOM     23  C   UNL     1      -0.856  -2.382  10.577  0.00  0.00    -0.015 A 
ATOM     24  C   UNL     1       0.157  -3.033  11.266  0.00  0.00    +0.008 A 
ATOM     25  C   UNL     1       0.537  -2.536  12.503  0.00  0.00    +0.020 A 
ATOM     26  C   UNL     1      -0.101  -1.418  13.005  0.00  0.00    +0.111 A 
ATOM     27  N   UNL     1      -1.061  -0.825  12.322  0.00  0.00    -0.263 NA
ATOM     28  C   UNL     1      -1.444  -1.266  11.140  0.00  0.00    +0.115 A 
ENDBRANCH  22  23
ENDBRANCH   5  22
TORSDOF 3
