REMARK  Name = ZINC07722402
REMARK  8 active torsions:
REMARK  status: ('A' for Active; 'I' for Inactive)
REMARK    1  A    between atoms: C_1  and  C_2
REMARK    2  A    between atoms: C_2  and  C_3
REMARK    3  A    between atoms: C_6  and  C_9
REMARK    4  A    between atoms: C_11  and  C_26
REMARK    5  A    between atoms: C_12  and  C_14
REMARK    6  A    between atoms: C_14  and  O_16
REMARK    7  A    between atoms: O_16  and  C_17
REMARK    8  A    between atoms: C_17  and  C_18
REMARK                            x       y       z     vdW  Elec       q    Type
REMARK                         _______ _______ _______ _____ _____    ______ ____
ROOT
ATOM      1  C   UNL     1      -9.103  -3.369   0.995  0.00  0.00    +0.348 C 
ATOM      2  O   UNL     1      -9.982  -3.695   0.221  0.00  0.00    -0.244 OA
ENDROOT
BRANCH   1   6
ATOM      3  C   UNL     1      -5.396  -1.997   0.043  0.00  0.00    +0.109 A 
ATOM      4  N   UNL     1      -6.170  -2.285  -0.991  0.00  0.00    -0.243 NA
ATOM      5  C   UNL     1      -7.386  -2.735  -0.829  0.00  0.00    +0.060 A 
ATOM      6  C   UNL     1      -7.816  -2.893   0.484  0.00  0.00    +0.119 A 
ATOM      7  S   UNL     1      -6.362  -2.360   1.373  0.00  0.00    -0.060 S 
ATOM      8  C   UNL     1      -8.273  -3.064  -2.001  0.00  0.00    +0.067 C 
BRANCH   3  12
ATOM      9  C   UNL     1      -1.412  -0.526   0.013  0.00  0.00    -0.048 A 
ATOM     10  C   UNL     1      -2.048  -0.765   1.218  0.00  0.00    +0.004 A 
ATOM     11  C   UNL     1      -3.342  -1.243   1.234  0.00  0.00    +0.011 A 
ATOM     12  C   UNL     1      -4.010  -1.485   0.032  0.00  0.00    +0.007 A 
ATOM     13  C   UNL     1      -3.362  -1.240  -1.180  0.00  0.00    +0.011 A 
ATOM     14  C   UNL     1      -2.069  -0.758  -1.182  0.00  0.00    +0.004 A 
BRANCH   9  16
ATOM     15  C   UNL     1      -0.019   1.526   0.010  0.00  0.00    +0.009 C 
ATOM     16  C   UNL     1       0.002  -0.004   0.002  0.00  0.00    +0.032 C 
ENDBRANCH   9  16
ENDBRANCH   3  12
ENDBRANCH   1   6
BRANCH   1  17
ATOM     17  O   UNL     1      -9.313  -3.446   2.325  0.00  0.00    -0.453 OA
BRANCH  17  18
ATOM     18  C   UNL     1     -10.591  -3.918   2.754  0.00  0.00    +0.308 C 
BRANCH  18  19
ATOM     19  C   UNL     1     -10.642  -3.936   4.260  0.00  0.00    +0.173 A 
ATOM     20  N   UNL     1     -10.261  -5.016   4.920  0.00  0.00    -0.196 NA
ATOM     21  C   UNL     1     -10.303  -5.035   6.250  0.00  0.00    +0.217 A 
ATOM     22  N   UNL     1     -10.730  -3.966   6.914  0.00  0.00    -0.181 NA
ATOM     23  C   UNL     1     -11.112  -2.882   6.248  0.00  0.00    +0.217 A 
ATOM     24  N   UNL     1     -11.062  -2.869   4.918  0.00  0.00    -0.196 NA
ATOM     25  N   UNL     1     -11.555  -1.770   6.933  0.00  0.00    -0.327 N 
ATOM     26  N   UNL     1      -9.906  -6.163   6.938  0.00  0.00    -0.327 N 
ATOM     27  H   UNL     1     -11.588  -1.779   7.903  0.00  0.00    +0.145 HD
ATOM     28  H   UNL     1     -11.834  -0.979   6.446  0.00  0.00    +0.145 HD
ATOM     29  H   UNL     1      -9.595  -6.943   6.452  0.00  0.00    +0.145 HD
ATOM     30  H   UNL     1      -9.937  -6.176   7.907  0.00  0.00    +0.145 HD
ENDBRANCH  18  19
ENDBRANCH  17  18
ENDBRANCH   1  17
TORSDOF 6
