REMARK  Name = ZINC19959455
REMARK  9 active torsions:
REMARK  status: ('A' for Active; 'I' for Inactive)
REMARK    1  A    between atoms: C_1  and  C_2
REMARK    2  A    between atoms: C_5  and  C_9
REMARK    3  A    between atoms: C_6  and  C_8
REMARK    4  A    between atoms: C_14  and  N_18
REMARK    5  A    between atoms: N_18  and  C_19
REMARK    6  A    between atoms: C_22  and  O_27
REMARK    7  A    between atoms: C_24  and  O_25
REMARK    8  A    between atoms: O_25  and  C_26
REMARK    9  A    between atoms: O_27  and  C_28
REMARK                            x       y       z     vdW  Elec       q    Type
REMARK                         _______ _______ _______ _____ _____    ______ ____
ROOT
ATOM      1  C   UNL     1       0.050  -4.321   0.015  0.00  0.00    +0.002 A 
ATOM      2  C   UNL     1       1.032  -5.015  -0.607  0.00  0.00    +0.056 A 
ATOM      3  S   UNL     1       0.352  -6.656  -0.753  0.00  0.00    -0.076 S 
ATOM      4  C   UNL     1      -1.221  -6.379   0.015  0.00  0.00    +0.114 A 
ATOM      5  C   UNL     1      -1.181  -5.016   0.375  0.00  0.00    +0.055 A 
ATOM      6  C   UNL     1      -2.343  -4.522   1.027  0.00  0.00    +0.135 A 
ATOM      7  N   UNL     1      -3.355  -5.345   1.254  0.00  0.00    -0.220 NA
ATOM      8  C   UNL     1      -3.322  -6.615   0.893  0.00  0.00    +0.224 A 
ATOM      9  N   UNL     1      -2.275  -7.128   0.276  0.00  0.00    -0.228 NA
ENDROOT
BRANCH   1  14
ATOM     10  C   UNL     1       0.727   1.266   1.236  0.00  0.00    +0.044 C 
ATOM     11  C   UNL     1       0.550  -0.197   0.916  0.00  0.00    -0.050 A 
ATOM     12  C   UNL     1       0.402  -0.601  -0.398  0.00  0.00    +0.004 A 
ATOM     13  C   UNL     1       0.239  -1.938  -0.697  0.00  0.00    +0.009 A 
ATOM     14  C   UNL     1       0.225  -2.883   0.329  0.00  0.00    -0.014 A 
ATOM     15  C   UNL     1       0.375  -2.469   1.652  0.00  0.00    -0.042 A 
ATOM     16  C   UNL     1       0.542  -1.129   1.938  0.00  0.00    +0.007 A 
ATOM     17  C   UNL     1       0.361  -3.483   2.767  0.00  0.00    +0.044 C 
ENDBRANCH   1  14
BRANCH   6  18
ATOM     18  N   UNL     1      -2.416  -3.198   1.421  0.00  0.00    -0.296 N 
ATOM     19  H   UNL     1      -1.712  -2.579   1.172  0.00  0.00    +0.154 HD
BRANCH  18  20
ATOM     20  C   UNL     1      -3.507  -2.751   2.179  0.00  0.00    +0.075 A 
ATOM     21  C   UNL     1      -4.284  -3.661   2.882  0.00  0.00    +0.030 A 
ATOM     22  C   UNL     1      -5.359  -3.220   3.629  0.00  0.00    +0.047 A 
ATOM     23  C   UNL     1      -5.666  -1.868   3.678  0.00  0.00    +0.124 A 
ATOM     24  C   UNL     1      -4.893  -0.955   2.977  0.00  0.00    +0.093 A 
ATOM     25  C   UNL     1      -3.810  -1.392   2.232  0.00  0.00    +0.145 A 
BRANCH  25  26
ATOM     26  O   UNL     1      -3.047  -0.498   1.549  0.00  0.00    -0.493 OA
ATOM     27  C   UNL     1      -3.416   0.879   1.649  0.00  0.00    +0.277 C 
ENDBRANCH  25  26
BRANCH  23  28
ATOM     28  O   UNL     1      -6.725  -1.438   4.414  0.00  0.00    -0.495 OA
ATOM     29  C   UNL     1      -7.478  -2.433   5.111  0.00  0.00    +0.277 C 
ENDBRANCH  23  28
ENDBRANCH  18  20
ENDBRANCH   6  18
TORSDOF 5
