REMARK  Name = ZINC00999758
REMARK  7 active torsions:
REMARK  status: ('A' for Active; 'I' for Inactive)
REMARK    1  A    between atoms: C_1  and  C_2
REMARK    2  A    between atoms: C_4  and  C_19
REMARK    3  A    between atoms: C_4  and  C_20
REMARK    4  A    between atoms: N_8  and  C_9
REMARK    5  A    between atoms: C_12  and  C_15
REMARK    6  A    between atoms: C_15  and  O_17
REMARK    7  A    between atoms: O_17  and  C_18
REMARK                            x       y       z     vdW  Elec       q    Type
REMARK                         _______ _______ _______ _____ _____    ______ ____
ROOT
ATOM      1  C   UNL     1      -3.594   6.058   0.285  0.00  0.00    +0.061 C 
ATOM      2  C   UNL     1      -4.917   5.345   0.169  0.00  0.00    +0.013 C 
ATOM      3  C   UNL     1      -6.035   6.016   0.381  0.00  0.00    +0.017 C 
ATOM      4  C   UNL     1      -7.347   5.269   0.263  0.00  0.00    +0.048 C 
ATOM      5  N   UNL     1      -7.279   3.841  -0.087  0.00  0.00    -0.317 N 
ATOM      6  C   UNL     1      -6.066   3.287  -0.281  0.00  0.00    +0.142 C 
ATOM      7  S   UNL     1      -5.964   1.627  -0.688  0.00  0.00    -0.018 S 
ATOM      8  N   UNL     1      -4.937   3.999  -0.162  0.00  0.00    -0.256 N 
ATOM      9  C   UNL     1      -8.196   5.974  -0.797  0.00  0.00    +0.036 C 
ATOM     10  C   UNL     1      -8.079   5.392   1.601  0.00  0.00    +0.036 C 
ATOM     11  H   UNL     1      -8.087   3.312  -0.176  0.00  0.00    +0.149 HD
ENDROOT
BRANCH   8  12
ATOM     12  C   UNL     1      -3.721   3.353  -0.378  0.00  0.00    +0.040 A 
ATOM     13  C   UNL     1      -3.152   3.349  -1.649  0.00  0.00    +0.024 A 
ATOM     14  C   UNL     1      -1.952   2.712  -1.865  0.00  0.00    +0.017 A 
ATOM     15  C   UNL     1      -1.303   2.068  -0.807  0.00  0.00    +0.059 A 
ATOM     16  C   UNL     1      -1.879   2.070   0.467  0.00  0.00    +0.017 A 
ATOM     17  C   UNL     1      -3.077   2.713   0.677  0.00  0.00    +0.024 A 
BRANCH  15  18
ATOM     18  C   UNL     1      -0.017   1.384  -1.036  0.00  0.00    +0.339 C 
ATOM     19  O   UNL     1       0.480   1.379  -2.145  0.00  0.00    -0.245 OA
BRANCH  18  20
ATOM     20  O   UNL     1       0.610   0.769  -0.014  0.00  0.00    -0.464 OA
ATOM     21  C   UNL     1       1.875   0.121  -0.311  0.00  0.00    +0.280 C 
ENDBRANCH  18  20
ENDBRANCH  15  18
ENDBRANCH   8  12
TORSDOF 3
