REMARK  Name = ZINC12904394
REMARK  5 active torsions:
REMARK  status: ('A' for Active; 'I' for Inactive)
REMARK    1  A    between atoms: C_1  and  C_2
REMARK    2  A    between atoms: C_9  and  N_14
REMARK    3  A    between atoms: C_15  and  C_17
REMARK    4  A    between atoms: C_17  and  C_18
REMARK    5  A    between atoms: C_18  and  N_19
REMARK                            x       y       z     vdW  Elec       q    Type
REMARK                         _______ _______ _______ _____ _____    ______ ____
ROOT
ATOM      1  N   UNL     1       1.143   1.898   0.001  0.00  0.00    -0.285 N 
ATOM      2  C   UNL     1      -0.014   1.209   0.011  0.00  0.00    +0.219 C 
ATOM      3  O   UNL     1       0.002  -0.004   0.013  0.00  0.00    -0.275 OA
ATOM      4  H   UNL     1       1.131   2.866  -0.068  0.00  0.00    +0.155 HD
ENDROOT
BRANCH   1  12
ATOM      5  C   UNL     1       7.288  -2.803   0.159  0.00  0.00    +0.062 C 
ATOM      6  C   UNL     1       5.898  -2.215   0.406  0.00  0.00    +0.256 C 
ATOM      7  C   UNL     1       4.948  -2.711  -0.654  0.00  0.00    +0.258 C 
ATOM      8  O   UNL     1       5.131  -3.788  -1.181  0.00  0.00    -0.271 OA
ATOM      9  N   UNL     1       3.891  -1.950  -1.016  0.00  0.00    -0.279 N 
ATOM     10  C   UNL     1       3.721  -0.694  -0.417  0.00  0.00    +0.077 A 
ATOM     11  C   UNL     1       2.512  -0.026  -0.508  0.00  0.00    +0.050 A 
ATOM     12  C   UNL     1       2.365   1.218   0.092  0.00  0.00    +0.035 A 
ATOM     13  C   UNL     1       3.429   1.790   0.777  0.00  0.00    +0.027 A 
ATOM     14  C   UNL     1       4.634   1.120   0.873  0.00  0.00    +0.049 A 
ATOM     15  C   UNL     1       4.786  -0.120   0.276  0.00  0.00    +0.143 A 
ATOM     16  O   UNL     1       5.968  -0.788   0.359  0.00  0.00    -0.478 OA
ATOM     17  H   UNL     1       3.260  -2.269  -1.679  0.00  0.00    +0.155 HD
ENDBRANCH   1  12
BRANCH   2  18
ATOM     18  C   UNL     1      -1.330   1.945   0.012  0.00  0.00    +0.115 C 
BRANCH  18  19
ATOM     19  C   UNL     1      -2.479   0.935   0.016  0.00  0.00    +0.112 C 
BRANCH  19  20
ATOM     20  N   UNL     1      -3.757   1.650   0.018  0.00  0.00    -0.327 N 
ATOM     21  C   UNL     1      -4.941   0.945   0.021  0.00  0.00    +0.150 C 
ATOM     22  N   UNL     1      -4.932  -0.350   0.018  0.00  0.00    -0.113 NA
ATOM     23  S   UNL     1      -6.539  -0.818   0.028  0.00  0.00    +0.101 S 
ATOM     24  O   UNL     1      -6.808  -1.432   1.281  0.00  0.00    -0.146 OA
ATOM     25  O   UNL     1      -6.814  -1.436  -1.222  0.00  0.00    -0.146 OA
ATOM     26  C   UNL     1      -7.319   0.773   0.027  0.00  0.00    +0.123 A 
ATOM     27  C   UNL     1      -6.230   1.655   0.023  0.00  0.00    +0.043 A 
ATOM     28  C   UNL     1      -6.512   3.029   0.021  0.00  0.00    +0.013 A 
ATOM     29  C   UNL     1      -7.817   3.470   0.022  0.00  0.00    +0.001 A 
ATOM     30  C   UNL     1      -8.871   2.575   0.026  0.00  0.00    +0.002 A 
ATOM     31  C   UNL     1      -8.611   1.212   0.028  0.00  0.00    +0.030 A 
ATOM     32  H   UNL     1      -3.771   2.620   0.016  0.00  0.00    +0.148 HD
ENDBRANCH  19  20
ENDBRANCH  18  19
ENDBRANCH   2  18
TORSDOF 4
