REMARK  Name = ZINC10191710
REMARK  9 active torsions:
REMARK  status: ('A' for Active; 'I' for Inactive)
REMARK    1  A    between atoms: C_1  and  C_2
REMARK    2  A    between atoms: C_4  and  C_14
REMARK    3  A    between atoms: C_5  and  C_13
REMARK    4  A    between atoms: N_6  and  C_7
REMARK    5  A    between atoms: C_14  and  O_16
REMARK    6  A    between atoms: O_16  and  C_17
REMARK    7  A    between atoms: C_17  and  C_18
REMARK    8  A    between atoms: N_20  and  N_21
REMARK    9  A    between atoms: C_27  and  C_30
REMARK                            x       y       z     vdW  Elec       q    Type
REMARK                         _______ _______ _______ _____ _____    ______ ____
ROOT
ATOM      1  C   UNL     1       2.429   4.200   0.001  0.00  0.00    +0.267 C 
ATOM      2  O   UNL     1       3.401   3.474  -0.012  0.00  0.00    -0.271 OA
ATOM      3  N   UNL     1       2.587   5.539   0.007  0.00  0.00    -0.221 N 
ATOM      4  H   UNL     1       1.810   6.119   0.018  0.00  0.00    +0.174 HD
ENDROOT
BRANCH   3   5
ATOM      5  N   UNL     1       3.875   6.092  -0.002  0.00  0.00    -0.137 N 
ATOM      6  C   UNL     1       4.447   6.662  -1.083  0.00  0.00    +0.263 C 
ATOM      7  O   UNL     1       3.965   6.788  -2.188  0.00  0.00    -0.271 OA
ATOM      8  C   UNL     1       5.816   7.110  -0.625  0.00  0.00    +0.114 C 
ATOM      9  C   UNL     1       5.951   8.623  -0.755  0.00  0.00    +0.035 C 
ATOM     10  C   UNL     1       7.333   9.059  -0.261  0.00  0.00    +0.006 C 
ATOM     11  C   UNL     1       8.413   8.361  -1.089  0.00  0.00    -0.014 C 
ATOM     12  C   UNL     1       8.280   6.845  -0.928  0.00  0.00    +0.006 C 
ATOM     13  C   UNL     1       6.902   6.400  -1.425  0.00  0.00    +0.035 C 
ATOM     14  C   UNL     1       9.794   8.806  -0.603  0.00  0.00    +0.007 C 
ATOM     15  N   UNL     1       5.870   6.708   0.786  0.00  0.00    -0.284 N 
ATOM     16  C   UNL     1       4.687   6.125   1.061  0.00  0.00    +0.326 C 
ATOM     17  O   UNL     1       4.392   5.676   2.152  0.00  0.00    -0.251 OA
ATOM     18  H   UNL     1       6.609   6.839   1.400  0.00  0.00    +0.151 HD
ENDBRANCH   3   5
BRANCH   1  19
ATOM     19  C   UNL     1       1.044   3.605   0.011  0.00  0.00    +0.329 C 
BRANCH  19  20
ATOM     20  O   UNL     1       1.140   2.156   0.003  0.00  0.00    -0.452 OA
BRANCH  20  21
ATOM     21  C   UNL     1      -0.018   1.467   0.010  0.00  0.00    +0.341 C 
ATOM     22  O   UNL     1      -1.079   2.060   0.018  0.00  0.00    -0.245 OA
BRANCH  21  26
ATOM     23  C   UNL     1       1.590  -3.374  -0.031  0.00  0.00    +0.064 C 
ATOM     24  C   UNL     1       0.731  -2.136  -0.016  0.00  0.00    +0.022 A 
ATOM     25  C   UNL     1       1.186  -0.871  -0.013  0.00  0.00    +0.038 A 
ATOM     26  C   UNL     1       0.002  -0.004   0.002  0.00  0.00    +0.080 A 
ATOM     27  C   UNL     1      -1.087  -0.849   0.013  0.00  0.00    +0.035 A 
ATOM     28  N   UNL     1      -0.635  -2.119  -0.004  0.00  0.00    -0.317 N 
ATOM     29  C   UNL     1      -2.534  -0.425   0.037  0.00  0.00    +0.065 C 
BRANCH  28  30
ATOM     30  C   UNL     1      -1.451  -3.259  -0.002  0.00  0.00    +0.047 A 
ATOM     31  C   UNL     1      -2.283  -3.521  -1.081  0.00  0.00    +0.026 A 
ATOM     32  C   UNL     1      -3.082  -4.648  -1.079  0.00  0.00    +0.002 A 
ATOM     33  C   UNL     1      -3.061  -5.509   0.003  0.00  0.00    +0.000 A 
ATOM     34  C   UNL     1      -2.236  -5.248   1.082  0.00  0.00    +0.002 A 
ATOM     35  C   UNL     1      -1.432  -4.126   1.083  0.00  0.00    +0.026 A 
ENDBRANCH  28  30
ENDBRANCH  21  26
ENDBRANCH  20  21
ENDBRANCH  19  20
ENDBRANCH   1  19
TORSDOF 6
