REMARK  Name = ZINC16009663
REMARK  6 active torsions:
REMARK  status: ('A' for Active; 'I' for Inactive)
REMARK    1  A    between atoms: C_1  and  S_2
REMARK    2  A    between atoms: S_2  and  C_3
REMARK    3  A    between atoms: C_3  and  C_4
REMARK    4  A    between atoms: C_4  and  C_5
REMARK    5  A    between atoms: N_13  and  C_16
REMARK    6  A    between atoms: C_19  and  N_22
REMARK                            x       y       z     vdW  Elec       q    Type
REMARK                         _______ _______ _______ _____ _____    ______ ____
ROOT
ATOM      1  C   UNL     1       1.701  -2.297  -2.963  0.00  0.00    +0.068 C 
ATOM      2  C   UNL     1       1.850  -3.808  -3.114  0.00  0.00    +0.107 C 
ATOM      3  C   UNL     1       2.232  -3.826  -4.640  0.00  0.00    +0.123 C 
ATOM      4  C   UNL     1       2.766  -5.156  -4.802  0.00  0.00    +0.233 C 
ATOM      5  O   UNL     1       2.701  -5.863  -5.784  0.00  0.00    -0.274 OA
ATOM      6  N   UNL     1       3.365  -5.445  -3.600  0.00  0.00    -0.210 N 
ATOM      7  C   UNL     1       3.063  -4.526  -2.612  0.00  0.00    +0.232 C 
ATOM      8  O   UNL     1       3.651  -4.333  -1.569  0.00  0.00    -0.274 OA
ATOM      9  C   UNL     1       1.361  -2.843  -5.278  0.00  0.00    +0.136 C 
ATOM     10  N   UNL     1       0.864  -1.959  -4.169  0.00  0.00    -0.295 NA
ATOM     11  C   UNL     1       2.040  -1.977  -6.310  0.00  0.00    +0.003 A 
ATOM     12  C   UNL     1       3.159  -1.175  -6.275  0.00  0.00    +0.008 A 
ATOM     13  C   UNL     1       3.546  -0.479  -7.407  0.00  0.00    +0.000 A 
ATOM     14  C   UNL     1       2.807  -0.593  -8.571  0.00  0.00    +0.002 A 
ATOM     15  C   UNL     1       1.686  -1.397  -8.609  0.00  0.00    +0.023 A 
ATOM     16  C   UNL     1       1.290  -2.100  -7.473  0.00  0.00    +0.039 A 
ATOM     17  N   UNL     1       0.212  -2.962  -7.264  0.00  0.00    -0.283 N 
ATOM     18  C   UNL     1       0.180  -3.440  -6.008  0.00  0.00    +0.243 C 
ATOM     19  O   UNL     1      -0.640  -4.206  -5.548  0.00  0.00    -0.273 OA
ATOM     20  H   UNL     1      -0.114  -2.130  -3.990  0.00  0.00    +0.123 HD
ATOM     21  H   UNL     1      -0.439  -3.189  -7.946  0.00  0.00    +0.155 HD
ENDROOT
BRANCH   6  22
ATOM     22  C   UNL     1       4.187  -6.562  -3.389  0.00  0.00    +0.044 A 
ATOM     23  C   UNL     1       4.439  -7.446  -4.429  0.00  0.00    +0.026 A 
ATOM     24  C   UNL     1       5.249  -8.545  -4.218  0.00  0.00    +0.034 A 
ATOM     25  C   UNL     1       5.809  -8.764  -2.973  0.00  0.00    +0.126 A 
ATOM     26  C   UNL     1       5.559  -7.885  -1.935  0.00  0.00    +0.034 A 
ATOM     27  C   UNL     1       4.755  -6.782  -2.141  0.00  0.00    +0.026 A 
BRANCH  25  28
ATOM     28  N   UNL     1       6.676  -9.943  -2.751  0.00  0.00    +0.056 N 
ATOM     29  O   UNL     1       6.895 -10.712  -3.657  0.00  0.00    -0.126 OA
ATOM     30  O   UNL     1       7.167 -10.136  -1.662  0.00  0.00    -0.126 OA
ENDBRANCH  25  28
ENDBRANCH   6  22
BRANCH   1  31
ATOM     31  C   UNL     1       0.966  -1.944  -1.668  0.00  0.00    +0.030 C 
BRANCH  31  32
ATOM     32  C   UNL     1       0.873  -0.423  -1.533  0.00  0.00    +0.070 C 
BRANCH  32  34
ATOM     33  C   UNL     1      -0.022   1.810   0.012  0.00  0.00    +0.084 C 
ATOM     34  S   UNL     1       0.002  -0.004   0.002  0.00  0.00    -0.164 S 
ENDBRANCH  32  34
ENDBRANCH  31  32
ENDBRANCH   1  31
TORSDOF 5
