REMARK  Name = ZINC39840960
REMARK  10 active torsions:
REMARK  status: ('A' for Active; 'I' for Inactive)
REMARK    1  A    between atoms: C_1  and  C_2
REMARK    2  A    between atoms: C_2  and  C_3
REMARK    3  A    between atoms: C_3  and  N_4
REMARK    4  A    between atoms: C_5  and  N_6
REMARK    5  A    between atoms: C_7  and  C_20
REMARK    6  A    between atoms: N_22  and  C_23
REMARK    7  A    between atoms: C_24  and  C_32
REMARK    8  A    between atoms: C_32  and  O_34
REMARK    9  A    between atoms: O_34  and  C_35
REMARK   10  A    between atoms: C_35  and  C_36
REMARK                            x       y       z     vdW  Elec       q    Type
REMARK                         _______ _______ _______ _____ _____    ______ ____
ROOT
ATOM      1  N   UNL     1       0.660  -1.963  -1.327  0.00  0.00    -0.313 N 
ATOM      2  C   UNL     1       1.709  -2.512  -0.743  0.00  0.00    +0.110 A 
ATOM      3  C   UNL     1       1.853  -3.916  -0.662  0.00  0.00    +0.076 A 
ATOM      4  C   UNL     1       0.864  -4.736  -1.212  0.00  0.00    +0.033 A 
ATOM      5  C   UNL     1      -0.229  -4.123  -1.820  0.00  0.00    +0.083 A 
ATOM      6  C   UNL     1      -0.311  -2.705  -1.861  0.00  0.00    +0.150 A 
ATOM      7  N   UNL     1      -1.371  -2.137  -2.445  0.00  0.00    -0.211 NA
ATOM      8  C   UNL     1      -2.351  -2.853  -2.985  0.00  0.00    +0.143 A 
ATOM      9  C   UNL     1      -3.433  -2.172  -3.582  0.00  0.00    +0.047 A 
ATOM     10  C   UNL     1      -4.450  -2.882  -4.141  0.00  0.00    +0.005 A 
ATOM     11  C   UNL     1      -4.411  -4.285  -4.119  0.00  0.00    +0.018 A 
ATOM     12  C   UNL     1      -3.369  -4.924  -3.544  0.00  0.00    +0.096 A 
ATOM     13  N   UNL     1      -2.343  -4.223  -2.980  0.00  0.00    -0.268 N 
ATOM     14  C   UNL     1      -1.312  -4.901  -2.423  0.00  0.00    +0.268 A 
ATOM     15  O   UNL     1      -1.294  -6.118  -2.412  0.00  0.00    -0.267 OA
ENDROOT
BRANCH   3  16
ATOM     16  C   UNL     1       3.030  -4.506  -0.007  0.00  0.00    +0.252 C 
ATOM     17  O   UNL     1       3.832  -3.791   0.563  0.00  0.00    -0.270 OA
ATOM     18  N   UNL     1       3.221  -5.840  -0.039  0.00  0.00    -0.275 N 
ATOM     19  H   UNL     1       2.581  -6.411  -0.494  0.00  0.00    +0.156 HD
BRANCH  18  20
ATOM     20  C   UNL     1       4.329  -6.396   0.577  0.00  0.00    +0.087 A 
ATOM     21  C   UNL     1       4.688  -7.735   0.641  0.00  0.00    +0.091 A 
ATOM     22  C   UNL     1       5.911  -8.061   1.354  0.00  0.00    -0.021 A 
ATOM     23  C   UNL     1       6.550  -6.990   1.873  0.00  0.00    -0.004 A 
ATOM     24  S   UNL     1       5.552  -5.605   1.413  0.00  0.00    -0.077 S 
ATOM     25  C   UNL     1       7.826  -6.997   2.657  0.00  0.00    +0.043 C 
ATOM     26  C   UNL     1       8.105  -8.438   3.111  0.00  0.00    +0.005 C 
ATOM     27  C   UNL     1       7.938  -9.376   1.913  0.00  0.00    +0.005 C 
ATOM     28  C   UNL     1       6.460  -9.470   1.526  0.00  0.00    +0.037 C 
BRANCH  21  29
ATOM     29  C   UNL     1       3.868  -8.775   0.017  0.00  0.00    +0.342 C 
ATOM     30  O   UNL     1       4.077  -9.104  -1.136  0.00  0.00    -0.245 OA
BRANCH  29  31
ATOM     31  O   UNL     1       2.882  -9.370   0.720  0.00  0.00    -0.461 OA
BRANCH  31  32
ATOM     32  C   UNL     1       2.123 -10.377   0.048  0.00  0.00    +0.229 C 
ATOM     33  C   UNL     1       1.059 -10.932   0.997  0.00  0.00    +0.048 C 
ENDBRANCH  31  32
ENDBRANCH  29  31
ENDBRANCH  21  29
ENDBRANCH  18  20
ENDBRANCH   3  16
BRANCH   2  34
ATOM     34  N   UNL     1       2.683  -1.701  -0.202  0.00  0.00    -0.344 N 
ATOM     35  H   UNL     1       2.635  -0.739  -0.320  0.00  0.00    +0.144 HD
ATOM     36  H   UNL     1       3.418  -2.091   0.297  0.00  0.00    +0.144 HD
ENDBRANCH   2  34
BRANCH   1  37
ATOM     37  C   UNL     1       0.558  -0.503  -1.383  0.00  0.00    +0.125 C 
BRANCH  37  39
ATOM     38  C   UNL     1      -0.280   1.531  -0.198  0.00  0.00    +0.005 C 
ATOM     39  C   UNL     1      -0.173   0.006  -0.139  0.00  0.00    +0.018 C 
ENDBRANCH  37  39
ENDBRANCH   1  37
TORSDOF 8
