REMARK  Name = ZINC51033035
REMARK  7 active torsions:
REMARK  status: ('A' for Active; 'I' for Inactive)
REMARK    1  A    between atoms: C_5  and  O_7
REMARK    2  A    between atoms: O_7  and  C_8
REMARK    3  A    between atoms: C_8  and  C_9
REMARK    4  A    between atoms: C_9  and  C_10
REMARK    5  A    between atoms: C_10  and  C_11
REMARK    6  A    between atoms: N_13  and  C_14
REMARK    7  A    between atoms: C_18  and  N_20
REMARK                            x       y       z     vdW  Elec       q    Type
REMARK                         _______ _______ _______ _____ _____    ______ ____
ROOT
ATOM      1  C   UNL     1      -0.954  -6.435  -0.037  0.00  0.00    +0.217 C 
ATOM      2  O   UNL     1       0.175  -6.879  -0.065  0.00  0.00    -0.275 OA
ATOM      3  N   UNL     1      -2.008  -7.275  -0.019  0.00  0.00    -0.285 N 
ATOM      4  H   UNL     1      -2.907  -6.923   0.070  0.00  0.00    +0.155 HD
ENDROOT
BRANCH   3   5
ATOM      5  C   UNL     1      -1.804  -8.655  -0.130  0.00  0.00    +0.035 A 
ATOM      6  C   UNL     1      -2.721  -9.440  -0.818  0.00  0.00    +0.023 A 
ATOM      7  C   UNL     1      -2.522 -10.802  -0.928  0.00  0.00    +0.004 A 
ATOM      8  C   UNL     1      -1.410 -11.389  -0.354  0.00  0.00    +0.023 A 
ATOM      9  C   UNL     1      -0.489 -10.610   0.335  0.00  0.00    +0.037 A 
ATOM     10  C   UNL     1      -0.684  -9.240   0.442  0.00  0.00    +0.046 A 
BRANCH   9  11
ATOM     11  N   UNL     1       0.636 -11.204   0.916  0.00  0.00    -0.270 N 
ATOM     12  C   UNL     1       1.235 -12.248   0.310  0.00  0.00    +0.301 C 
ATOM     13  O   UNL     1       0.750 -12.727  -0.697  0.00  0.00    -0.253 OA
ATOM     14  N   UNL     1       2.372 -12.762   0.820  0.00  0.00    -0.313 N 
ATOM     15  H   UNL     1       0.985 -10.865   1.756  0.00  0.00    +0.156 HD
ATOM     16  H   UNL     1       2.760 -12.380   1.623  0.00  0.00    +0.146 HD
ATOM     17  H   UNL     1       2.804 -13.513   0.384  0.00  0.00    +0.146 HD
ENDBRANCH   9  11
ENDBRANCH   3   5
BRANCH   1  18
ATOM     18  C   UNL     1      -1.178  -4.945  -0.023  0.00  0.00    +0.099 C 
BRANCH  18  19
ATOM     19  C   UNL     1       0.173  -4.226  -0.048  0.00  0.00    +0.050 C 
BRANCH  19  20
ATOM     20  C   UNL     1      -0.054  -2.713  -0.034  0.00  0.00    +0.229 C 
BRANCH  20  21
ATOM     21  O   UNL     1       1.207  -2.042  -0.057  0.00  0.00    -0.491 OA
BRANCH  21  26
ATOM     22  C   UNL     1      -0.051   1.372  -0.010  0.00  0.00    +0.004 A 
ATOM     23  C   UNL     1       1.134   2.084  -0.031  0.00  0.00    +0.001 A 
ATOM     24  C   UNL     1       2.344   1.416  -0.061  0.00  0.00    +0.019 A 
ATOM     25  C   UNL     1       2.371   0.034  -0.070  0.00  0.00    +0.059 A 
ATOM     26  C   UNL     1       1.183  -0.683  -0.048  0.00  0.00    +0.134 A 
ATOM     27  C   UNL     1      -0.030  -0.009  -0.019  0.00  0.00    +0.047 A 
ATOM     28 BR   UNL     1       4.027  -0.880  -0.112  0.00  0.00    -0.047 Br
ENDBRANCH  21  26
ENDBRANCH  20  21
ENDBRANCH  19  20
ENDBRANCH  18  19
ENDBRANCH   1  18
TORSDOF 7
