REMARK  Name = ZINC21253987
REMARK  8 active torsions:
REMARK  status: ('A' for Active; 'I' for Inactive)
REMARK    1  A    between atoms: C_1  and  C_2
REMARK    2  A    between atoms: C_2  and  O_3
REMARK    3  A    between atoms: O_3  and  C_4
REMARK    4  A    between atoms: C_7  and  C_12
REMARK    5  A    between atoms: C_9  and  O_10
REMARK    6  A    between atoms: O_10  and  C_11
REMARK    7  A    between atoms: C_17  and  C_23
REMARK    8  A    between atoms: C_27  and  N_29
REMARK                            x       y       z     vdW  Elec       q    Type
REMARK                         _______ _______ _______ _____ _____    ______ ____
ROOT
ATOM      1  C   UNL     1       2.177   4.309  -0.269  0.00  0.00    +0.032 C 
ATOM      2  C   UNL     1       1.113   3.498   0.473  0.00  0.00    +0.059 C 
ATOM      3  C   UNL     1       1.148   2.066   0.002  0.00  0.00    +0.018 C 
ATOM      4  C   UNL     1       2.301   1.503  -0.416  0.00  0.00    +0.020 C 
ATOM      5  C   UNL     1       2.315   0.063  -0.873  0.00  0.00    +0.063 C 
ATOM      6  C   UNL     1       1.315  -0.743  -0.042  0.00  0.00    +0.109 C 
ATOM      7  C   UNL     1       0.002  -0.004   0.002  0.00  0.00    +0.218 C 
ATOM      8  O   UNL     1      -1.040  -0.623   0.031  0.00  0.00    -0.275 OA
ATOM      9  N   UNL     1      -0.016   1.340   0.009  0.00  0.00    -0.289 N 
ATOM     10  C   UNL     1       3.503   2.230  -0.440  0.00  0.00    +0.162 C 
ATOM     11  O   UNL     1       4.524   1.687  -0.812  0.00  0.00    -0.292 OA
ATOM     12  C   UNL     1       3.546   3.672  -0.010  0.00  0.00    +0.088 C 
ATOM     13  H   UNL     1      -0.987   1.858   0.021  0.00  0.00    +0.155 HD
ENDROOT
BRANCH   1  17
ATOM     14  C   UNL     1       2.175   8.335   1.174  0.00  0.00    +0.162 A 
ATOM     15  C   UNL     1       2.414   7.284   2.045  0.00  0.00    +0.050 A 
ATOM     16  C   UNL     1       2.413   5.984   1.575  0.00  0.00    +0.008 A 
ATOM     17  C   UNL     1       2.175   5.729   0.237  0.00  0.00    -0.040 A 
ATOM     18  C   UNL     1       1.942   6.773  -0.638  0.00  0.00    +0.053 A 
ATOM     19  C   UNL     1       1.935   8.079  -0.173  0.00  0.00    +0.162 A 
BRANCH  19  20
ATOM     20  O   UNL     1       1.700   9.107  -1.031  0.00  0.00    -0.491 OA
ATOM     21  C   UNL     1       1.462   8.768  -2.399  0.00  0.00    +0.277 C 
ENDBRANCH  19  20
BRANCH  14  22
ATOM     22  O   UNL     1       2.176   9.615   1.634  0.00  0.00    -0.489 OA
BRANCH  22  24
ATOM     23  C   UNL     1       2.391  11.297   3.356  0.00  0.00    +0.048 C 
ATOM     24  C   UNL     1       2.430   9.803   3.027  0.00  0.00    +0.226 C 
ENDBRANCH  22  24
ENDBRANCH  14  22
ENDBRANCH   1  17
BRANCH   5  25
ATOM     25  C   UNL     1       1.931  -0.006  -2.328  0.00  0.00    -0.037 A 
ATOM     26  C   UNL     1       0.696   0.459  -2.740  0.00  0.00    +0.004 A 
ATOM     27  C   UNL     1       0.346   0.400  -4.076  0.00  0.00    +0.003 A 
ATOM     28  C   UNL     1       1.226  -0.134  -4.999  0.00  0.00    +0.033 A 
ATOM     29  C   UNL     1       2.459  -0.604  -4.586  0.00  0.00    +0.126 A 
ATOM     30  C   UNL     1       2.811  -0.540  -3.251  0.00  0.00    +0.037 A 
BRANCH  29  31
ATOM     31  N   UNL     1       3.401  -1.177  -5.574  0.00  0.00    +0.056 N 
ATOM     32  O   UNL     1       4.487  -1.591  -5.210  0.00  0.00    -0.126 OA
ATOM     33  O   UNL     1       3.091  -1.233  -6.750  0.00  0.00    -0.126 OA
ENDBRANCH  29  31
ENDBRANCH   5  25
TORSDOF 6
