REMARK  Name = ZINC39866657
REMARK  7 active torsions:
REMARK  status: ('A' for Active; 'I' for Inactive)
REMARK    1  A    between atoms: C_1  and  C_2
REMARK    2  A    between atoms: C_2  and  N_3
REMARK    3  A    between atoms: C_7  and  C_8
REMARK    4  A    between atoms: C_7  and  C_9
REMARK    5  A    between atoms: C_12  and  N_15
REMARK    6  A    between atoms: N_18  and  C_19
REMARK    7  A    between atoms: C_23  and  C_25
REMARK                            x       y       z     vdW  Elec       q    Type
REMARK                         _______ _______ _______ _____ _____    ______ ____
ROOT
ATOM      1  N   UNL     1      -1.372  -0.511   0.012  0.00  0.00    -0.246 N 
ATOM      2  C   UNL     1      -1.978  -0.739   1.166  0.00  0.00    +0.259 C 
ATOM      3  O   UNL     1      -1.419  -0.536   2.228  0.00  0.00    -0.269 OA
ATOM      4  C   UNL     1      -3.360  -1.249   1.107  0.00  0.00    +0.081 C 
ATOM      5  C   UNL     1      -4.206  -1.564   2.121  0.00  0.00    -0.024 C 
ATOM      6  C   UNL     1      -3.760  -1.405   3.552  0.00  0.00    +0.045 C 
ATOM      7  S   UNL     1      -3.623  -1.339  -0.658  0.00  0.00    -0.048 S 
ATOM      8  C   UNL     1      -2.024  -0.741  -1.180  0.00  0.00    +0.168 C 
ATOM      9  N   UNL     1      -1.576  -0.565  -2.403  0.00  0.00    -0.225 NA
ENDROOT
BRANCH   5  10
ATOM     10  C   UNL     1      -5.555  -2.061   1.825  0.00  0.00    -0.021 A 
ATOM     11  C   UNL     1      -6.482  -1.233   1.179  0.00  0.00    +0.010 A 
ATOM     12  C   UNL     1      -7.741  -1.701   0.904  0.00  0.00    +0.023 A 
ATOM     13  C   UNL     1      -8.099  -2.997   1.265  0.00  0.00    +0.025 A 
ATOM     14  C   UNL     1      -7.181  -3.824   1.907  0.00  0.00    +0.023 A 
ATOM     15  C   UNL     1      -5.917  -3.366   2.180  0.00  0.00    +0.010 A 
BRANCH  13  16
ATOM     16  N   UNL     1      -9.379  -3.468   0.984  0.00  0.00    -0.358 N 
ATOM     17  H   UNL     1     -10.020  -2.893   0.537  0.00  0.00    +0.142 HD
ATOM     18  H   UNL     1      -9.629  -4.371   1.235  0.00  0.00    +0.142 HD
ENDBRANCH  13  16
ENDBRANCH   5  10
BRANCH   9  19
ATOM     19  C   UNL     1      -2.379  -0.852  -3.473  0.00  0.00    +0.067 A 
ATOM     20  C   UNL     1      -3.125  -2.034  -3.493  0.00  0.00    +0.028 A 
ATOM     21  C   UNL     1      -3.936  -2.325  -4.572  0.00  0.00    +0.003 A 
ATOM     22  C   UNL     1      -4.017  -1.452  -5.639  0.00  0.00    +0.015 A 
ATOM     23  C   UNL     1      -3.277  -0.266  -5.633  0.00  0.00    +0.065 A 
ATOM     24  C   UNL     1      -2.460   0.037  -4.544  0.00  0.00    +0.043 A 
BRANCH  23  25
ATOM     25  C   UNL     1      -3.365   0.666  -6.774  0.00  0.00    +0.387 C 
ATOM     26  O   UNL     1      -4.086   0.401  -7.726  0.00  0.00    -0.241 OA
ATOM     27  O   UNL     1      -2.718   1.704  -6.767  0.00  0.00    -0.241 OA
ENDBRANCH  23  25
ENDBRANCH   9  19
BRANCH   1  29
ATOM     28  C   UNL     1      -0.019   1.526   0.010  0.00  0.00    +0.025 C 
ATOM     29  C   UNL     1       0.002  -0.004   0.002  0.00  0.00    +0.112 C 
ENDBRANCH   1  29
TORSDOF 5
