REMARK  Name = ZINC12143122
REMARK  4 active torsions:
REMARK  status: ('A' for Active; 'I' for Inactive)
REMARK    1  A    between atoms: C_7  and  C_12
REMARK    2  A    between atoms: C_12  and  C_13
REMARK    3  A    between atoms: N_15  and  C_16
REMARK    4  A    between atoms: C_16  and  C_21
REMARK                            x       y       z     vdW  Elec       q    Type
REMARK                         _______ _______ _______ _____ _____    ______ ____
ROOT
ATOM      1  C   UNL     1       2.447   0.312  -1.882  0.00  0.00    +0.216 C 
ATOM      2  O   UNL     1       2.030  -0.214  -0.872  0.00  0.00    -0.276 OA
ATOM      3  N   UNL     1       3.392  -0.302  -2.622  0.00  0.00    -0.306 N 
ATOM      4  H   UNL     1       3.672   0.082  -3.467  0.00  0.00    +0.150 HD
ENDROOT
BRANCH   3   5
ATOM      5  C   UNL     1       3.997  -1.549  -2.148  0.00  0.00    +0.060 C 
ATOM      6  C   UNL     1       4.639  -1.345  -0.753  0.00  0.00    +0.030 C 
ATOM      7  C   UNL     1       6.002  -0.690  -1.101  0.00  0.00    +0.002 C 
ATOM      8  C   UNL     1       6.451  -1.410  -2.389  0.00  0.00    +0.002 C 
ATOM      9  C   UNL     1       5.176  -1.956  -3.055  0.00  0.00    +0.030 C 
BRANCH   5  10
ATOM     10  C   UNL     1       2.966  -2.648  -2.099  0.00  0.00    -0.024 A 
ATOM     11  C   UNL     1       3.200  -3.782  -1.343  0.00  0.00    +0.008 A 
ATOM     12  C   UNL     1       2.254  -4.787  -1.294  0.00  0.00    +0.038 A 
ATOM     13  C   UNL     1       1.075  -4.663  -2.009  0.00  0.00    +0.123 A 
ATOM     14  C   UNL     1       0.843  -3.530  -2.769  0.00  0.00    +0.038 A 
ATOM     15  C   UNL     1       1.789  -2.523  -2.813  0.00  0.00    +0.008 A 
ATOM     16  F   UNL     1       0.151  -5.648  -1.964  0.00  0.00    -0.205 F 
ENDBRANCH   5  10
ENDBRANCH   3   5
BRANCH   1  17
ATOM     17  C   UNL     1       1.909   1.653  -2.311  0.00  0.00    +0.122 C 
BRANCH  17  24
ATOM     18  C   UNL     1       0.255   5.839  -2.168  0.00  0.00    +0.000 A 
ATOM     19  C   UNL     1      -1.104   5.731  -2.406  0.00  0.00    +0.001 A 
ATOM     20  C   UNL     1      -1.738   4.513  -2.282  0.00  0.00    +0.013 A 
ATOM     21  C   UNL     1      -1.005   3.382  -1.915  0.00  0.00    +0.042 A 
ATOM     22  C   UNL     1       0.366   3.502  -1.676  0.00  0.00    -0.015 A 
ATOM     23  C   UNL     1       0.989   4.723  -1.803  0.00  0.00    +0.006 A 
ATOM     24  C   UNL     1       0.857   2.125  -1.305  0.00  0.00    +0.113 C 
ATOM     25  N   UNL     1      -0.316   1.245  -1.353  0.00  0.00    -0.304 N 
ATOM     26  C   UNL     1      -1.389   1.972  -1.710  0.00  0.00    +0.245 C 
ATOM     27  O   UNL     1      -2.514   1.532  -1.843  0.00  0.00    -0.270 OA
ATOM     28  H   UNL     1      -0.317   0.294  -1.162  0.00  0.00    +0.150 HD
ENDBRANCH  17  24
ENDBRANCH   1  17
TORSDOF 4
