REMARK  Name = ZINC08614460
REMARK  8 active torsions:
REMARK  status: ('A' for Active; 'I' for Inactive)
REMARK    1  A    between atoms: C_1  and  C_2
REMARK    2  A    between atoms: C_2  and  C_4
REMARK    3  A    between atoms: C_2  and  N_14
REMARK    4  A    between atoms: N_12  and  C_13
REMARK    5  A    between atoms: C_15  and  C_17
REMARK    6  A    between atoms: C_17  and  S_18
REMARK    7  A    between atoms: S_18  and  C_19
REMARK    8  A    between atoms: C_22  and  C_25
REMARK                            x       y       z     vdW  Elec       q    Type
REMARK                         _______ _______ _______ _____ _____    ______ ____
ROOT
ATOM      1  N   UNL     1       0.688  -0.476  -1.203  0.00  0.00    -0.305 N 
ATOM      2  C   UNL     1       0.006  -0.608  -2.358  0.00  0.00    +0.224 C 
ATOM      3  O   UNL     1      -1.175  -0.336  -2.400  0.00  0.00    -0.275 OA
ATOM      4  H   UNL     1       1.632  -0.695  -1.170  0.00  0.00    +0.149 HD
ENDROOT
BRANCH   1   6
ATOM      5  C   UNL     1      -0.019   1.526   0.010  0.00  0.00    +0.036 C 
ATOM      6  C   UNL     1       0.002  -0.004   0.002  0.00  0.00    +0.136 C 
BRANCH   6   7
ATOM      7  C   UNL     1       0.731  -0.503   1.223  0.00  0.00    +0.131 A 
ATOM      8  N   UNL     1       2.021  -0.470   1.386  0.00  0.00    -0.230 NA
ATOM      9  C   UNL     1       2.342  -0.998   2.595  0.00  0.00    +0.089 A 
ATOM     10  C   UNL     1       3.550  -1.205   3.267  0.00  0.00    +0.030 A 
ATOM     11  C   UNL     1       3.550  -1.775   4.508  0.00  0.00    +0.002 A 
ATOM     12  C   UNL     1       2.360  -2.154   5.113  0.00  0.00    +0.002 A 
ATOM     13  C   UNL     1       1.156  -1.959   4.470  0.00  0.00    +0.028 A 
ATOM     14  C   UNL     1       1.137  -1.380   3.208  0.00  0.00    +0.069 A 
ATOM     15  N   UNL     1       0.135  -1.049   2.317  0.00  0.00    -0.329 N 
ATOM     16  C   UNL     1      -1.302  -1.252   2.513  0.00  0.00    +0.150 C 
ENDBRANCH   6   7
ENDBRANCH   1   6
BRANCH   2  17
ATOM     17  C   UNL     1       0.712  -1.094  -3.598  0.00  0.00    +0.173 C 
BRANCH  17  18
ATOM     18  S   UNL     1      -0.466  -1.164  -4.976  0.00  0.00    -0.077 S 
BRANCH  18  19
ATOM     19  C   UNL     1       0.498  -1.742  -6.333  0.00  0.00    +0.185 A 
ATOM     20  N   UNL     1       1.778  -2.041  -6.299  0.00  0.00    -0.201 NA
ATOM     21  H   UNL     1      -0.855  -1.831  -7.914  0.00  0.00    +0.191 HD
ATOM     22  C   UNL     1       2.179  -2.446  -7.512  0.00  0.00    +0.184 A 
ATOM     23  N   UNL     1       1.153  -2.409  -8.333  0.00  0.00    -0.152 NA
ATOM     24  N   UNL     1       0.050  -1.961  -7.589  0.00  0.00    -0.253 N 
BRANCH  22  25
ATOM     25  C   UNL     1       3.556  -2.869  -7.870  0.00  0.00    +0.039 A 
ATOM     26  C   UNL     1       4.560  -2.870  -6.904  0.00  0.00    +0.013 A 
ATOM     27  C   UNL     1       5.839  -3.264  -7.242  0.00  0.00    +0.001 A 
ATOM     28  C   UNL     1       6.125  -3.657  -8.538  0.00  0.00    +0.001 A 
ATOM     29  C   UNL     1       5.133  -3.658  -9.501  0.00  0.00    +0.021 A 
ATOM     30  C   UNL     1       3.848  -3.271  -9.173  0.00  0.00    +0.052 A 
ATOM     31 CL   UNL     1       2.601  -3.280 -10.381  0.00  0.00    -0.083 Cl
ENDBRANCH  22  25
ENDBRANCH  18  19
ENDBRANCH  17  18
ENDBRANCH   2  17
TORSDOF 6
