REMARK  Name = ZINC54378710
REMARK  8 active torsions:
REMARK  status: ('A' for Active; 'I' for Inactive)
REMARK    1  A    between atoms: C_1  and  C_2
REMARK    2  A    between atoms: C_5  and  C_17
REMARK    3  A    between atoms: C_7  and  O_8
REMARK    4  A    between atoms: O_8  and  C_9
REMARK    5  A    between atoms: C_10  and  C_15
REMARK    6  A    between atoms: C_15  and  N_16
REMARK    7  A    between atoms: C_17  and  C_18
REMARK    8  A    between atoms: C_17  and  C_19
REMARK                            x       y       z     vdW  Elec       q    Type
REMARK                         _______ _______ _______ _____ _____    ______ ____
ROOT
ATOM      1  O   UNL     1       0.025  -0.033   2.381  0.00  0.00    -0.436 OA
ENDROOT
BRANCH   1   8
ATOM      2  C   UNL     1      -0.077   1.529   0.029  0.00  0.00    +0.047 C 
ATOM      3  C   UNL     1      -0.028   0.023   0.003  0.00  0.00    -0.008 A 
ATOM      4  C   UNL     1      -0.025  -0.648  -1.205  0.00  0.00    +0.007 A 
ATOM      5  C   UNL     1       0.020  -2.030  -1.230  0.00  0.00    +0.004 A 
ATOM      6  C   UNL     1       0.063  -2.744  -0.046  0.00  0.00    -0.041 A 
ATOM      7  C   UNL     1       0.061  -2.078   1.164  0.00  0.00    +0.050 A 
ATOM      8  C   UNL     1       0.021  -0.691   1.192  0.00  0.00    +0.134 A 
BRANCH   6   9
ATOM      9  C   UNL     1       0.112  -4.250  -0.077  0.00  0.00    +0.013 C 
ATOM     10  C   UNL     1      -1.133  -4.786  -0.787  0.00  0.00    +0.012 C 
ATOM     11  C   UNL     1       1.364  -4.704  -0.829  0.00  0.00    +0.012 C 
ENDBRANCH   6   9
ENDBRANCH   1   8
BRANCH   1  12
ATOM     12  C   UNL     1       1.218   0.384   2.874  0.00  0.00    +0.243 A 
ATOM     13  C   UNL     1       1.284   0.977   4.131  0.00  0.00    +0.116 A 
ATOM     14  N   UNL     1       2.446   1.381   4.608  0.00  0.00    -0.252 NA
ATOM     15  C   UNL     1       3.547   1.223   3.893  0.00  0.00    +0.131 A 
ATOM     16  C   UNL     1       3.485   0.634   2.644  0.00  0.00    +0.134 A 
ATOM     17  N   UNL     1       2.324   0.222   2.163  0.00  0.00    -0.218 NA
BRANCH  13  18
ATOM     18  C   UNL     1       0.029   1.158   4.946  0.00  0.00    +0.139 C 
BRANCH  18  19
ATOM     19  N   UNL     1      -0.183  -0.026   5.788  0.00  0.00    -0.325 NA
ATOM     20  H   UNL     1       0.621  -0.205   6.371  0.00  0.00    +0.119 HD
ATOM     21  H   UNL     1      -1.019   0.071   6.345  0.00  0.00    +0.119 HD
ENDBRANCH  18  19
ENDBRANCH  13  18
ENDBRANCH   1  12
TORSDOF 5
