REMARK  Name = ZINC55292747
REMARK  5 active torsions:
REMARK  status: ('A' for Active; 'I' for Inactive)
REMARK    1  A    between atoms: C_3  and  C_6
REMARK    2  A    between atoms: N_8  and  C_9
REMARK    3  A    between atoms: C_12  and  C_14
REMARK    4  A    between atoms: N_16  and  C_17
REMARK    5  A    between atoms: C_20  and  N_24
REMARK                            x       y       z     vdW  Elec       q    Type
REMARK                         _______ _______ _______ _____ _____    ______ ____
ROOT
ATOM      1  C   UNL     1       9.524   0.313  -0.084  0.00  0.00    +0.255 C 
ATOM      2  O   UNL     1      10.470  -0.454  -0.093  0.00  0.00    -0.269 OA
ATOM      3  N   UNL     1       9.737   1.644  -0.075  0.00  0.00    -0.281 N 
ATOM      4  H   UNL     1       8.987   2.256  -0.136  0.00  0.00    +0.155 HD
ENDROOT
BRANCH   3   5
ATOM      5  C   UNL     1      11.042   2.144   0.022  0.00  0.00    +0.037 A 
ATOM      6  C   UNL     1      11.287   3.312   0.733  0.00  0.00    +0.045 A 
ATOM      7  C   UNL     1      12.574   3.806   0.829  0.00  0.00    +0.065 A 
ATOM      8  C   UNL     1      13.623   3.134   0.214  0.00  0.00    +0.062 A 
ATOM      9  C   UNL     1      13.378   1.965  -0.496  0.00  0.00    +0.065 A 
ATOM     10  C   UNL     1      12.091   1.469  -0.588  0.00  0.00    +0.045 A 
ATOM     11 CL   UNL     1      14.688   1.125  -1.264  0.00  0.00    -0.082 Cl
ATOM     12 CL   UNL     1      12.879   5.266   1.716  0.00  0.00    -0.082 Cl
BRANCH   8  13
ATOM     13  N   UNL     1      14.928   3.634   0.311  0.00  0.00    -0.356 N 
ATOM     14  H   UNL     1      15.098   4.450   0.807  0.00  0.00    +0.142 HD
ATOM     15  H   UNL     1      15.660   3.165  -0.118  0.00  0.00    +0.142 HD
ENDBRANCH   8  13
ENDBRANCH   3   5
BRANCH   1  19
ATOM     16  C   UNL     1       5.593  -0.597  -0.079  0.00  0.00    +0.073 A 
ATOM     17  C   UNL     1       6.412  -1.702  -0.090  0.00  0.00    +0.032 A 
ATOM     18  C   UNL     1       7.770  -1.513  -0.092  0.00  0.00    +0.022 A 
ATOM     19  C   UNL     1       8.200  -0.193  -0.084  0.00  0.00    +0.076 A 
ATOM     20  S   UNL     1       6.658   0.702  -0.080  0.00  0.00    -0.069 S 
BRANCH  16  23
ATOM     21  C   UNL     1       3.560   0.620  -0.071  0.00  0.00    +0.284 C 
ATOM     22  O   UNL     1       4.194   1.659  -0.070  0.00  0.00    -0.266 OA
ATOM     23  N   UNL     1       4.205  -0.563  -0.076  0.00  0.00    -0.273 N 
ATOM     24  H   UNL     1       3.700  -1.391  -0.076  0.00  0.00    +0.156 HD
BRANCH  21  27
ATOM     25  C   UNL     1      -0.017   1.349  -0.061  0.00  0.00    +0.042 A 
ATOM     26  C   UNL     1       1.319   1.780  -0.063  0.00  0.00    +0.054 A 
ATOM     27  C   UNL     1       2.095   0.656  -0.068  0.00  0.00    +0.189 A 
ATOM     28  O   UNL     1       1.275  -0.416  -0.068  0.00  0.00    -0.458 OA
ATOM     29  C   UNL     1       0.002  -0.002  -0.065  0.00  0.00    +0.196 A 
ENDBRANCH  21  27
ENDBRANCH  16  23
ENDBRANCH   1  19
TORSDOF 5
