REMARK  Name = ZINC19331462
REMARK  8 active torsions:
REMARK  status: ('A' for Active; 'I' for Inactive)
REMARK    1  A    between atoms: C_1  and  C_2
REMARK    2  A    between atoms: C_2  and  C_3
REMARK    3  A    between atoms: C_7  and  C_23
REMARK    4  A    between atoms: C_8  and  O_9
REMARK    5  A    between atoms: C_13  and  C_14
REMARK    6  A    between atoms: C_19  and  C_21
REMARK    7  A    between atoms: C_19  and  C_22
REMARK    8  A    between atoms: C_23  and  C_24
REMARK                            x       y       z     vdW  Elec       q    Type
REMARK                         _______ _______ _______ _____ _____    ______ ____
ROOT
ATOM      1  C   UNL     1      -1.433  -0.534   0.013  0.00  0.00    +0.023 C 
ATOM      2  C   UNL     1      -2.185  -0.038  -1.228  0.00  0.00    +0.096 C 
ATOM      3  N   UNL     1      -3.572  -0.524  -1.172  0.00  0.00    -0.285 NA
ATOM      4  C   UNL     1      -3.610  -1.994  -1.216  0.00  0.00    +0.096 C 
ATOM      5  C   UNL     1      -2.899  -2.548   0.025  0.00  0.00    +0.023 C 
ATOM      6  C   UNL     1      -1.427  -2.068   0.005  0.00  0.00    +0.132 C 
ATOM      7  C   UNL     1      -3.591  -1.993   1.275  0.00  0.00    +0.096 C 
ATOM      8  N   UNL     1      -3.554  -0.523   1.229  0.00  0.00    -0.285 NA
ATOM      9  C   UNL     1      -2.162  -0.051   1.273  0.00  0.00    +0.096 C 
ATOM     10  C   UNL     1      -4.250  -0.025   0.034  0.00  0.00    +0.130 C 
ENDROOT
BRANCH  10  11
ATOM     11  C   UNL     1      -5.699  -0.516   0.044  0.00  0.00    +0.026 C 
ATOM     12  C   UNL     1      -6.408   0.007   1.297  0.00  0.00    +0.034 C 
ATOM     13  C   UNL     1      -7.877  -0.423   1.260  0.00  0.00    +0.161 C 
ATOM     14  O   UNL     1      -8.486   0.070   0.066  0.00  0.00    -0.374 OA
ATOM     15  C   UNL     1      -7.895  -0.423  -1.138  0.00  0.00    +0.064 C 
ATOM     16  C   UNL     1      -6.426   0.006  -1.198  0.00  0.00    +0.041 C 
ATOM     17  C   UNL     1      -7.980  -1.950  -1.160  0.00  0.00    +0.041 C 
ATOM     18  C   UNL     1      -8.643   0.147  -2.345  0.00  0.00    +0.041 C 
ENDBRANCH  10  11
BRANCH   1  20
ATOM     19  C   UNL     1      -0.019   1.526   0.010  0.00  0.00    +0.004 C 
ATOM     20  C   UNL     1       0.002  -0.004   0.002  0.00  0.00    +0.008 C 
ENDBRANCH   1  20
BRANCH   6  21
ATOM     21  O   UNL     1      -0.762  -2.538  -1.169  0.00  0.00    -0.391 OA
ATOM     22  H   UNL     1      -0.722  -3.502  -1.239  0.00  0.00    +0.210 HD
ENDBRANCH   6  21
BRANCH   5  23
ATOM     23  C   UNL     1      -2.947  -4.077   0.017  0.00  0.00    +0.008 C 
ATOM     24  C   UNL     1      -4.404  -4.542   0.023  0.00  0.00    +0.004 C 
ENDBRANCH   5  23
TORSDOF 4
