REMARK  Name = ZINC20916853
REMARK  10 active torsions:
REMARK  status: ('A' for Active; 'I' for Inactive)
REMARK    1  A    between atoms: C_9  and  O_32
REMARK    2  A    between atoms: C_10  and  C_11
REMARK    3  A    between atoms: N_12  and  N_13
REMARK    4  A    between atoms: C_17  and  S_20
REMARK    5  A    between atoms: N_18  and  N_19
REMARK    6  A    between atoms: S_20  and  C_21
REMARK    7  A    between atoms: C_21  and  C_22
REMARK    8  A    between atoms: C_22  and  C_23
REMARK    9  A    between atoms: N_25  and  C_26
REMARK   10  A    between atoms: C_26  and  C_27
REMARK                            x       y       z     vdW  Elec       q    Type
REMARK                         _______ _______ _______ _____ _____    ______ ____
ROOT
ATOM      1  N   UNL     1       4.418   4.530  -0.015  0.00  0.00    -0.204 N 
ATOM      2  C   UNL     1       3.541   3.456  -0.013  0.00  0.00    +0.254 A 
ATOM      3  N   UNL     1       3.875   2.188  -0.023  0.00  0.00    -0.109 NA
ATOM      4  N   UNL     1       2.697   1.430  -0.010  0.00  0.00    -0.119 NA
ATOM      5  C   UNL     1       1.681   2.259  -0.002  0.00  0.00    +0.210 A 
ATOM      6  N   UNL     1       2.175   3.533   0.000  0.00  0.00    -0.211 N 
ATOM      7  H   UNL     1       4.027   5.559  -0.006  0.00  0.00    +0.177 HD
ENDROOT
BRANCH   6   8
ATOM      8  N   UNL     1       1.436   4.681   0.013  0.00  0.00    -0.294 N 
ATOM      9  H   UNL     1       0.337   4.628   0.023  0.00  0.00    +0.163 HD
ATOM     10  H   UNL     1       1.939   5.659   0.013  0.00  0.00    +0.163 HD
ENDBRANCH   6   8
BRANCH   1  12
ATOM     11  C   UNL     1       6.623   5.314  -0.032  0.00  0.00    +0.142 C 
ATOM     12  N   UNL     1       5.800   4.306  -0.030  0.00  0.00    -0.187 NA
BRANCH  11  22
ATOM     13  C   UNL     1      10.841   8.280  -0.074  0.00  0.00    +0.001 A 
ATOM     14  C   UNL     1       9.473   8.542  -0.059  0.00  0.00    +0.001 A 
ATOM     15  C   UNL     1       8.565   7.526  -0.050  0.00  0.00    +0.009 A 
ATOM     16  C   UNL     1       9.011   6.199  -0.056  0.00  0.00    -0.006 A 
ATOM     17  C   UNL     1      10.402   5.928  -0.066  0.00  0.00    -0.017 A 
ATOM     18  C   UNL     1      11.309   7.001  -0.070  0.00  0.00    +0.008 A 
ATOM     19  C   UNL     1      10.848   4.595  -0.078  0.00  0.00    +0.012 A 
ATOM     20  C   UNL     1       9.961   3.564  -0.075  0.00  0.00    +0.046 A 
ATOM     21  C   UNL     1       8.585   3.780  -0.059  0.00  0.00    +0.126 A 
ATOM     22  C   UNL     1       8.073   5.078  -0.047  0.00  0.00    +0.044 A 
BRANCH  21  23
ATOM     23  O   UNL     1       7.735   2.721  -0.057  0.00  0.00    -0.506 OA
ATOM     24  H   UNL     1       6.648   2.887  -0.045  0.00  0.00    +0.292 HD
ENDBRANCH  21  23
ENDBRANCH  11  22
ENDBRANCH   1  12
BRANCH   5  25
ATOM     25  S   UNL     1      -0.022   1.810   0.012  0.00  0.00    -0.084 S 
BRANCH  25  26
ATOM     26  C   UNL     1       0.002  -0.004   0.002  0.00  0.00    +0.086 C 
BRANCH  26  27
ATOM     27  C   UNL     1      -1.433  -0.534   0.013  0.00  0.00    +0.107 C 
BRANCH  27  28
ATOM     28  C   UNL     1      -1.413  -2.041   0.005  0.00  0.00    +0.214 C 
ATOM     29  O   UNL     1      -0.354  -2.632  -0.009  0.00  0.00    -0.276 OA
ATOM     30  N   UNL     1      -2.571  -2.730   0.012  0.00  0.00    -0.308 N 
ATOM     31  H   UNL     1      -3.531  -2.193   0.024  0.00  0.00    +0.149 HD
BRANCH  30  32
ATOM     32  C   UNL     1      -2.551  -4.195   0.004  0.00  0.00    +0.178 C 
BRANCH  32  33
ATOM     33  C   UNL     1      -3.965  -4.717   0.015  0.00  0.00    +0.122 A 
ATOM     34  C   UNL     1      -4.713  -4.983  -1.071  0.00  0.00    +0.046 A 
ATOM     35  C   UNL     1      -5.963  -5.448  -0.602  0.00  0.00    +0.041 A 
ATOM     36  C   UNL     1      -5.904  -5.439   0.742  0.00  0.00    +0.195 A 
ATOM     37  O   UNL     1      -4.689  -5.000   1.109  0.00  0.00    -0.466 OA
ENDBRANCH  32  33
ENDBRANCH  30  32
ENDBRANCH  27  28
ENDBRANCH  26  27
ENDBRANCH  25  26
ENDBRANCH   5  25
TORSDOF 10
