REMARK  Name = ZINC03897722
REMARK  4 active torsions:
REMARK  status: ('A' for Active; 'I' for Inactive)
REMARK    1  A    between atoms: C_6  and  O_11
REMARK    2  A    between atoms: O_11  and  C_12
REMARK    3  A    between atoms: C_14  and  N_22
REMARK    4  A    between atoms: C_15  and  N_19
REMARK                            x       y       z     vdW  Elec       q    Type
REMARK                         _______ _______ _______ _____ _____    ______ ____
ROOT
ATOM      1  C   UNL     1       5.924   3.356   0.111  0.00  0.00    +0.149 A 
ATOM      2  C   UNL     1       6.658   3.266   1.284  0.00  0.00    +0.072 A 
ATOM      3  C   UNL     1       7.798   2.475   1.328  0.00  0.00    +0.059 A 
ATOM      4  C   UNL     1       8.200   1.775   0.197  0.00  0.00    +0.148 A 
ATOM      5  C   UNL     1       7.467   1.867  -0.970  0.00  0.00    +0.058 A 
ATOM      6  C   UNL     1       6.328   2.650  -1.015  0.00  0.00    +0.085 A 
ATOM      7 CL   UNL     1       5.406   2.757  -2.482  0.00  0.00    -0.080 Cl
ENDROOT
BRANCH   4   8
ATOM      8  N   UNL     1       9.415   0.931   0.243  0.00  0.00    +0.058 N 
ATOM      9  O   UNL     1      10.156   0.876  -0.722  0.00  0.00    -0.126 OA
ATOM     10  O   UNL     1       9.674   0.291   1.247  0.00  0.00    -0.126 OA
ENDBRANCH   4   8
BRANCH   3  11
ATOM     11  N   UNL     1       8.540   2.383   2.509  0.00  0.00    -0.356 N 
ATOM     12  H   UNL     1       8.193   2.765   3.330  0.00  0.00    +0.142 HD
ATOM     13  H   UNL     1       9.401   1.936   2.506  0.00  0.00    +0.142 HD
ENDBRANCH   3  11
BRANCH   1  14
ATOM     14  O   UNL     1       4.808   4.129   0.065  0.00  0.00    -0.454 OA
BRANCH  14  20
ATOM     15  C   UNL     1      -1.225   2.342   0.603  0.00  0.00    +0.001 A 
ATOM     16  C   UNL     1      -1.167   3.733   0.537  0.00  0.00    +0.001 A 
ATOM     17  C   UNL     1       0.024   4.379   0.415  0.00  0.00    +0.008 A 
ATOM     18  C   UNL     1       1.216   3.636   0.361  0.00  0.00    -0.014 A 
ATOM     19  C   UNL     1       2.464   4.270   0.236  0.00  0.00    +0.054 A 
ATOM     20  C   UNL     1       3.602   3.515   0.186  0.00  0.00    +0.129 A 
ATOM     21  C   UNL     1       3.541   2.120   0.258  0.00  0.00    +0.047 A 
ATOM     22  C   UNL     1       2.349   1.477   0.380  0.00  0.00    +0.012 A 
ATOM     23  C   UNL     1       1.158   2.222   0.434  0.00  0.00    -0.018 A 
ATOM     24  C   UNL     1      -0.091   1.590   0.559  0.00  0.00    +0.008 A 
ENDBRANCH  14  20
ENDBRANCH   1  14
TORSDOF 4
