REMARK  Name = ZINC57741987
REMARK  8 active torsions:
REMARK  status: ('A' for Active; 'I' for Inactive)
REMARK    1  A    between atoms: C_1  and  C_2
REMARK    2  A    between atoms: C_2  and  N_3
REMARK    3  A    between atoms: N_3  and  C_4
REMARK    4  A    between atoms: N_3  and  C_6
REMARK    5  A    between atoms: C_4  and  C_5
REMARK    6  A    between atoms: C_9  and  N_13
REMARK    7  A    between atoms: C_10  and  C_12
REMARK    8  A    between atoms: C_14  and  C_16
REMARK                            x       y       z     vdW  Elec       q    Type
REMARK                         _______ _______ _______ _____ _____    ______ ____
ROOT
ATOM      1  N   UNL     1      -0.196  -6.179  -1.736  0.00  0.00    -0.281 N 
ATOM      2  C   UNL     1       0.593  -7.070  -1.104  0.00  0.00    +0.248 C 
ATOM      3  O   UNL     1       1.451  -6.684  -0.334  0.00  0.00    -0.270 OA
ATOM      4  H   UNL     1      -0.924  -6.488  -2.298  0.00  0.00    +0.155 HD
ENDROOT
BRANCH   2   5
ATOM      5  C   UNL     1       0.416  -8.515  -1.347  0.00  0.00    +0.039 A 
ATOM      6  C   UNL     1      -0.567  -8.961  -2.237  0.00  0.00    +0.017 A 
ATOM      7  C   UNL     1      -0.734 -10.309  -2.465  0.00  0.00    +0.049 A 
ATOM      8  C   UNL     1       0.073 -11.231  -1.811  0.00  0.00    +0.157 A 
ATOM      9  C   UNL     1       1.056 -10.792  -0.921  0.00  0.00    +0.088 A 
ATOM     10  C   UNL     1       1.232  -9.440  -0.693  0.00  0.00    +0.042 A 
ATOM     11  N   UNL     1       1.690 -11.935  -0.432  0.00  0.00    -0.288 N 
ATOM     12  H   UNL     1       2.419 -11.957   0.207  0.00  0.00    +0.172 HD
ATOM     13  C   UNL     1       1.103 -13.001  -1.011  0.00  0.00    +0.419 A 
ATOM     14  O   UNL     1       1.407 -14.162  -0.813  0.00  0.00    -0.223 OA
ATOM     15  O   UNL     1       0.133 -12.584  -1.839  0.00  0.00    -0.408 OA
ENDBRANCH   2   5
BRANCH   1  19
ATOM     16  C   UNL     1       0.491  -2.096  -1.278  0.00  0.00    +0.014 A 
ATOM     17  C   UNL     1       0.877  -2.977  -0.284  0.00  0.00    +0.023 A 
ATOM     18  C   UNL     1       0.651  -4.331  -0.433  0.00  0.00    +0.025 A 
ATOM     19  C   UNL     1       0.034  -4.808  -1.582  0.00  0.00    +0.037 A 
ATOM     20  C   UNL     1      -0.353  -3.921  -2.578  0.00  0.00    -0.028 A 
ATOM     21  C   UNL     1      -0.128  -2.567  -2.421  0.00  0.00    +0.026 A 
ATOM     22  C   UNL     1      -1.022  -4.434  -3.827  0.00  0.00    +0.046 C 
BRANCH  16  23
ATOM     23  N   UNL     1       0.722  -0.726  -1.124  0.00  0.00    -0.394 NA
ATOM     24  H   UNL     1       0.376  -0.234  -1.934  0.00  0.00    +0.126 HD
BRANCH  23  26
ATOM     25  C   UNL     1      -1.486  -0.389  -0.119  0.00  0.00    +0.022 C 
ATOM     26  C   UNL     1       0.025  -0.244   0.076  0.00  0.00    +0.081 C 
ENDBRANCH  23  26
BRANCH  23  27
ATOM     27  C   UNL     1       2.164  -0.485  -0.983  0.00  0.00    +0.081 C 
ATOM     28  C   UNL     1       2.876  -0.881  -2.278  0.00  0.00    +0.022 C 
ENDBRANCH  23  27
ENDBRANCH  16  23
ENDBRANCH   1  19
TORSDOF 5
