REMARK  Name = ZINC29030902
REMARK  11 active torsions:
REMARK  status: ('A' for Active; 'I' for Inactive)
REMARK    1  A    between atoms: C_1  and  C_2
REMARK    2  A    between atoms: C_2  and  C_3
REMARK    3  A    between atoms: C_3  and  C_4
REMARK    4  A    between atoms: C_4  and  N_5
REMARK    5  A    between atoms: N_5  and  C_6
REMARK    6  A    between atoms: C_7  and  N_19
REMARK    7  A    between atoms: N_8  and  C_15
REMARK    8  A    between atoms: C_15  and  C_16
REMARK    9  A    between atoms: C_16  and  C_17
REMARK   10  A    between atoms: C_16  and  C_18
REMARK   11  A    between atoms: C_20  and  C_22
REMARK                            x       y       z     vdW  Elec       q    Type
REMARK                         _______ _______ _______ _____ _____    ______ ____
ROOT
ATOM      1  N   UNL     1      -1.742   1.850   1.020  0.00  0.00    -0.264 N 
ATOM      2  C   UNL     1      -2.864   1.370   0.444  0.00  0.00    +0.228 C 
ATOM      3  O   UNL     1      -3.697   2.137   0.008  0.00  0.00    -0.275 OA
ENDROOT
BRANCH   2   4
ATOM      4  C   UNL     1      -3.083  -0.117   0.343  0.00  0.00    +0.116 C 
ATOM      5  C   UNL     1      -2.600  -0.612  -1.021  0.00  0.00    +0.113 C 
ATOM      6  C   UNL     1      -3.541  -0.143  -2.098  0.00  0.00    +0.218 C 
ATOM      7  O   UNL     1      -3.102   0.157  -3.188  0.00  0.00    -0.275 OA
ATOM      8  N   UNL     1      -4.864  -0.053  -1.866  0.00  0.00    -0.285 N 
ATOM      9  C   UNL     1      -5.386  -0.378  -0.611  0.00  0.00    +0.037 A 
ATOM     10  C   UNL     1      -4.551  -0.420   0.498  0.00  0.00    -0.014 A 
ATOM     11  C   UNL     1      -5.066  -0.740   1.738  0.00  0.00    +0.006 A 
ATOM     12  C   UNL     1      -6.414  -1.017   1.877  0.00  0.00    +0.000 A 
ATOM     13  C   UNL     1      -7.249  -0.975   0.776  0.00  0.00    +0.002 A 
ATOM     14  C   UNL     1      -6.739  -0.657  -0.468  0.00  0.00    +0.023 A 
ATOM     15  H   UNL     1      -5.541   0.278  -2.667  0.00  0.00    +0.155 HD
ENDBRANCH   2   4
BRANCH   1  16
ATOM     16  C   UNL     1      -0.824   0.963   1.622  0.00  0.00    +0.140 A 
ATOM     17  C   UNL     1      -0.970   0.593   2.944  0.00  0.00    +0.127 A 
ATOM     18  N   UNL     1      -0.062  -0.277   3.501  0.00  0.00    -0.280 N 
ATOM     19  C   UNL     1       0.956  -0.762   2.767  0.00  0.00    +0.331 A 
ATOM     20  O   UNL     1       1.748  -1.530   3.278  0.00  0.00    -0.246 OA
ATOM     21  N   UNL     1       1.113  -0.413   1.478  0.00  0.00    -0.273 N 
ATOM     22  H   UNL     1       1.952  -0.821   0.896  0.00  0.00    +0.173 HD
ATOM     23  C   UNL     1       0.252   0.436   0.884  0.00  0.00    +0.277 A 
ATOM     24  O   UNL     1       0.404   0.747  -0.286  0.00  0.00    -0.266 OA
BRANCH  17  25
ATOM     25  N   UNL     1      -2.009   1.089   3.694  0.00  0.00    -0.343 N 
ATOM     26  H   UNL     1      -2.119   0.790   4.747  0.00  0.00    +0.144 HD
ATOM     27  H   UNL     1      -2.731   1.785   3.242  0.00  0.00    +0.144 HD
ENDBRANCH  17  25
BRANCH  18  28
ATOM     28  C   UNL     1      -0.205  -0.679   4.903  0.00  0.00    +0.131 C 
BRANCH  28  29
ATOM     29  C   UNL     1      -1.076  -1.933   4.988  0.00  0.00    +0.003 C 
ATOM     30  C   UNL     1      -0.359  -3.099   4.303  0.00  0.00    +0.009 C 
ATOM     31  C   UNL     1      -1.328  -2.281   6.456  0.00  0.00    +0.009 C 
ENDBRANCH  28  29
ENDBRANCH  18  28
ENDBRANCH   1  16
BRANCH   1  32
ATOM     32  C   UNL     1      -1.476   3.290   1.020  0.00  0.00    +0.114 C 
BRANCH  32  33
ATOM     33  C   UNL     1      -0.573   3.642  -0.164  0.00  0.00    +0.019 C 
BRANCH  33  35
ATOM     34  C   UNL     1       0.608   5.499  -1.348  0.00  0.00    +0.004 C 
ATOM     35  C   UNL     1      -0.296   5.147  -0.164  0.00  0.00    -0.002 C 
ENDBRANCH  33  35
ENDBRANCH  32  33
ENDBRANCH   1  32
TORSDOF 8
