REMARK  Name = ZINC12367460
REMARK  6 active torsions:
REMARK  status: ('A' for Active; 'I' for Inactive)
REMARK    1  A    between atoms: C_3  and  O_24
REMARK    2  A    between atoms: C_4  and  C_8
REMARK    3  A    between atoms: N_9  and  N_10
REMARK    4  A    between atoms: N_13  and  N_14
REMARK    5  A    between atoms: C_15  and  C_16
REMARK    6  A    between atoms: C_21  and  O_22
REMARK                            x       y       z     vdW  Elec       q    Type
REMARK                         _______ _______ _______ _____ _____    ______ ____
ROOT
ATOM      1  N   UNL     1       3.284  -2.380  -0.633  0.00  0.00    -0.189 N 
ATOM      2  C   UNL     1       4.352  -3.112  -1.007  0.00  0.00    +0.339 C 
ATOM      3  O   UNL     1       5.460  -2.610  -1.020  0.00  0.00    -0.249 OA
ATOM      4  N   UNL     1       4.192  -4.402  -1.366  0.00  0.00    -0.189 N 
ATOM      5  H   UNL     1       3.399  -1.452  -0.375  0.00  0.00    +0.179 HD
ATOM      6  H   UNL     1       4.961  -4.929  -1.635  0.00  0.00    +0.179 HD
ENDROOT
BRANCH   1   8
ATOM      7  C   UNL     1       0.965  -2.224  -0.381  0.00  0.00    +0.142 C 
ATOM      8  N   UNL     1       2.008  -2.958  -0.619  0.00  0.00    -0.186 NA
BRANCH   7  12
ATOM      9  C   UNL     1       1.141   1.976  -0.996  0.00  0.00    +0.019 A 
ATOM     10  C   UNL     1       0.220   1.452  -0.108  0.00  0.00    +0.047 A 
ATOM     11  C   UNL     1       0.154   0.084   0.099  0.00  0.00    +0.126 A 
ATOM     12  C   UNL     1       1.026  -0.766  -0.594  0.00  0.00    +0.037 A 
ATOM     13  C   UNL     1       1.952  -0.226  -1.488  0.00  0.00    +0.028 A 
ATOM     14  C   UNL     1       2.004   1.139  -1.683  0.00  0.00    +0.019 A 
ATOM     15 BR   UNL     1       3.264   1.871  -2.889  0.00  0.00    -0.050 Br
BRANCH  11  16
ATOM     16  O   UNL     1      -0.751  -0.430   0.971  0.00  0.00    -0.506 OA
ATOM     17  H   UNL     1      -0.452  -0.436   1.891  0.00  0.00    +0.292 HD
ENDBRANCH  11  16
ENDBRANCH   7  12
ENDBRANCH   1   8
BRANCH   4  18
ATOM     18  N   UNL     1       2.917  -4.980  -1.351  0.00  0.00    -0.186 NA
ATOM     19  C   UNL     1       2.763  -6.222  -1.697  0.00  0.00    +0.142 C 
BRANCH  19  20
ATOM     20  C   UNL     1       1.421  -6.830  -1.681  0.00  0.00    +0.037 A 
ATOM     21  C   UNL     1       1.251  -8.166  -2.053  0.00  0.00    +0.028 A 
ATOM     22  C   UNL     1      -0.008  -8.730  -2.036  0.00  0.00    +0.019 A 
ATOM     23  C   UNL     1      -1.105  -7.976  -1.652  0.00  0.00    +0.019 A 
ATOM     24  C   UNL     1      -0.950  -6.653  -1.282  0.00  0.00    +0.047 A 
ATOM     25  C   UNL     1       0.308  -6.074  -1.288  0.00  0.00    +0.126 A 
ATOM     26 BR   UNL     1      -0.238 -10.538  -2.539  0.00  0.00    -0.050 Br
BRANCH  25  27
ATOM     27  O   UNL     1       0.463  -4.776  -0.919  0.00  0.00    -0.506 OA
ATOM     28  H   UNL     1       0.384  -4.147  -1.649  0.00  0.00    +0.292 HD
ENDBRANCH  25  27
ENDBRANCH  19  20
ENDBRANCH   4  18
TORSDOF 6
