REMARK  Name = ZINC09262237
REMARK  7 active torsions:
REMARK  status: ('A' for Active; 'I' for Inactive)
REMARK    1  A    between atoms: C_1  and  C_2
REMARK    2  A    between atoms: C_2  and  O_3
REMARK    3  A    between atoms: O_3  and  C_4
REMARK    4  A    between atoms: C_4  and  C_6
REMARK    5  A    between atoms: C_8  and  C_22
REMARK    6  A    between atoms: C_25  and  O_29
REMARK    7  A    between atoms: C_26  and  O_28
REMARK                            x       y       z     vdW  Elec       q    Type
REMARK                         _______ _______ _______ _____ _____    ______ ____
ROOT
ATOM      1  C   UNL     1       2.466   1.305   0.195  0.00  0.00    +0.211 C 
ATOM      2  C   UNL     1       2.444  -0.055  -0.506  0.00  0.00    +0.143 C 
ATOM      3  N   UNL     1       1.163  -0.709  -0.225  0.00  0.00    -0.303 N 
ATOM      4  C   UNL     1       0.855  -2.035  -0.145  0.00  0.00    +0.071 A 
ATOM      5  C   UNL     1       1.613  -3.193  -0.272  0.00  0.00    +0.028 A 
ATOM      6  C   UNL     1       0.951  -4.401  -0.129  0.00  0.00    +0.002 A 
ATOM      7  C   UNL     1      -0.408  -4.467   0.129  0.00  0.00    +0.002 A 
ATOM      8  C   UNL     1      -1.185  -3.331   0.260  0.00  0.00    +0.030 A 
ATOM      9  C   UNL     1      -0.537  -2.098   0.121  0.00  0.00    +0.091 A 
ATOM     10  N   UNL     1      -0.990  -0.831   0.194  0.00  0.00    -0.214 NA
ATOM     11  C   UNL     1       0.002  -0.004   0.002  0.00  0.00    +0.204 A 
ATOM     12  N   UNL     1      -0.017   1.384   0.010  0.00  0.00    -0.255 N 
ATOM     13  C   UNL     1       1.166   2.034   0.002  0.00  0.00    +0.236 C 
ATOM     14  O   UNL     1       1.180   3.236  -0.165  0.00  0.00    -0.274 OA
ATOM     15  H   UNL     1      -0.855   1.872   0.016  0.00  0.00    +0.158 HD
ENDROOT
BRANCH   2  16
ATOM     16  C   UNL     1       2.597   0.137  -1.993  0.00  0.00    -0.020 A 
ATOM     17  C   UNL     1       1.672   0.892  -2.690  0.00  0.00    +0.009 A 
ATOM     18  C   UNL     1       1.811   1.076  -4.053  0.00  0.00    +0.049 A 
ATOM     19  C   UNL     1       2.873   0.494  -4.726  0.00  0.00    +0.158 A 
ATOM     20  C   UNL     1       3.802  -0.271  -4.025  0.00  0.00    +0.159 A 
ATOM     21  C   UNL     1       3.659  -0.446  -2.658  0.00  0.00    +0.055 A 
BRANCH  20  22
ATOM     22  O   UNL     1       4.846  -0.844  -4.681  0.00  0.00    -0.503 OA
ATOM     23  H   UNL     1       4.661  -1.733  -5.014  0.00  0.00    +0.292 HD
ENDBRANCH  20  22
BRANCH  19  24
ATOM     24  O   UNL     1       3.009   0.669  -6.067  0.00  0.00    -0.503 OA
ATOM     25  H   UNL     1       2.561  -0.003  -6.599  0.00  0.00    +0.292 HD
ENDBRANCH  19  24
ENDBRANCH   2  16
BRANCH   1  26
ATOM     26  C   UNL     1       2.701   1.098   1.669  0.00  0.00    +0.322 C 
ATOM     27  O   UNL     1       2.835  -0.020   2.108  0.00  0.00    -0.250 OA
BRANCH  26  28
ATOM     28  O   UNL     1       2.760   2.154   2.495  0.00  0.00    -0.464 OA
BRANCH  28  30
ATOM     29  C   UNL     1       3.025   3.197   4.680  0.00  0.00    +0.048 C 
ATOM     30  C   UNL     1       2.989   1.879   3.902  0.00  0.00    +0.229 C 
ENDBRANCH  28  30
ENDBRANCH  26  28
ENDBRANCH   1  26
TORSDOF 6
