REMARK  Name = ZINC44026529
REMARK  8 active torsions:
REMARK  status: ('A' for Active; 'I' for Inactive)
REMARK    1  A    between atoms: C_1  and  C_2
REMARK    2  A    between atoms: C_2  and  C_3
REMARK    3  A    between atoms: C_2  and  C_4
REMARK    4  A    between atoms: C_5  and  C_11
REMARK    5  A    between atoms: N_7  and  C_9
REMARK    6  A    between atoms: C_12  and  C_13
REMARK    7  A    between atoms: C_12  and  C_15
REMARK    8  A    between atoms: N_17  and  C_18
REMARK                            x       y       z     vdW  Elec       q    Type
REMARK                         _______ _______ _______ _____ _____    ______ ____
ROOT
ATOM      1  C   UNL     1      -1.359  -1.852  -2.190  0.00  0.00    +0.036 C 
ATOM      2  C   UNL     1      -1.425  -3.195  -2.502  0.00  0.00    +0.114 C 
ENDROOT
BRANCH   1   4
ATOM      3  C   UNL     1      -1.412  -0.526   0.013  0.00  0.00    +0.074 A 
ATOM      4  C   UNL     1      -2.002  -1.351  -0.976  0.00  0.00    +0.036 A 
ATOM      5  C   UNL     1      -3.310  -1.593  -0.574  0.00  0.00    +0.134 A 
ATOM      6  N   UNL     1      -3.494  -0.950   0.591  0.00  0.00    -0.255 N 
ATOM      7  N   UNL     1      -2.304  -0.301   0.936  0.00  0.00    -0.174 NA
ATOM      8  C   UNL     1      -4.733  -0.935   1.372  0.00  0.00    +0.174 C 
ATOM      9 CL   UNL     1      -4.487  -2.549  -1.419  0.00  0.00    -0.062 Cl
BRANCH   3  11
ATOM     10  C   UNL     1      -0.019   1.526   0.010  0.00  0.00    +0.014 C 
ATOM     11  C   UNL     1       0.002  -0.004   0.002  0.00  0.00    +0.034 C 
ATOM     12  C   UNL     1       0.742  -0.511   1.242  0.00  0.00    +0.014 C 
ENDBRANCH   3  11
ENDBRANCH   1   4
BRANCH   2  13
ATOM     13  C   UNL     1      -0.778  -3.698  -3.722  0.00  0.00    +0.255 C 
ATOM     14  O   UNL     1      -0.183  -2.931  -4.456  0.00  0.00    -0.269 OA
ATOM     15  N   UNL     1      -0.844  -5.009  -4.027  0.00  0.00    -0.308 N 
ATOM     16  H   UNL     1      -1.318  -5.620  -3.442  0.00  0.00    +0.149 HD
BRANCH  15  17
ATOM     17  C   UNL     1      -0.198  -5.511  -5.243  0.00  0.00    +0.073 C 
ATOM     18  C   UNL     1      -1.169  -5.407  -6.438  0.00  0.00    +0.022 C 
ATOM     19  C   UNL     1      -0.881  -6.680  -7.272  0.00  0.00    +0.002 C 
ATOM     20  C   UNL     1      -0.633  -7.754  -6.184  0.00  0.00    +0.002 C 
ATOM     21  C   UNL     1       0.142  -7.003  -5.082  0.00  0.00    +0.022 C 
ENDBRANCH  15  17
ENDBRANCH   2  13
BRANCH   2  22
ATOM     22  C   UNL     1      -2.125  -4.097  -1.639  0.00  0.00    +0.104 C 
ATOM     23  N   UNL     1      -2.681  -4.813  -0.953  0.00  0.00    -0.191 NA
ENDBRANCH   2  22
TORSDOF 5
