REMARK  Name = ZINC05788753
REMARK  4 active torsions:
REMARK  status: ('A' for Active; 'I' for Inactive)
REMARK    1  A    between atoms: C_1  and  C_2
REMARK    2  A    between atoms: C_2  and  C_3
REMARK    3  A    between atoms: C_3  and  N_12
REMARK    4  A    between atoms: N_12  and  N_13
REMARK                            x       y       z     vdW  Elec       q    Type
REMARK                         _______ _______ _______ _____ _____    ______ ____
ROOT
ATOM      1  C   UNL     1      -1.427  -0.537   0.024  0.00  0.00    +0.033 C 
ATOM      2  C   UNL     1      -2.039  -0.861  -1.189  0.00  0.00    +0.043 C 
ATOM      3  C   UNL     1      -1.383  -0.619  -2.417  0.00  0.00    +0.051 C 
ATOM      4  C   UNL     1      -1.996  -0.942  -3.587  0.00  0.00    +0.124 C 
ATOM      5  C   UNL     1      -3.268  -1.512  -3.609  0.00  0.00    +0.042 C 
ATOM      6  C   UNL     1      -3.953  -1.770  -2.461  0.00  0.00    +0.054 C 
ATOM      7  C   UNL     1      -3.376  -1.468  -1.216  0.00  0.00    +0.188 C 
ATOM      8  O   UNL     1      -3.978  -1.700  -0.176  0.00  0.00    -0.287 OA
ATOM      9  F   UNL     1      -1.359  -0.705  -4.754  0.00  0.00    -0.205 F 
ENDROOT
BRANCH   1  11
ATOM     10  C   UNL     1       0.024   1.474   0.040  0.00  0.00    +0.010 C 
ATOM     11  C   UNL     1       0.001  -0.055   0.042  0.00  0.00    +0.049 C 
ENDBRANCH   1  11
BRANCH   1  12
ATOM     12  N   UNL     1      -2.110  -0.653   1.173  0.00  0.00    -0.267 N 
ATOM     13  H   UNL     1      -3.002  -1.034   1.170  0.00  0.00    +0.170 HD
BRANCH  12  14
ATOM     14  N   UNL     1      -1.534  -0.226   2.376  0.00  0.00    -0.221 N 
ATOM     15  C   UNL     1      -2.176  -0.438   3.543  0.00  0.00    +0.313 C 
ATOM     16  O   UNL     1      -1.676  -0.067   4.587  0.00  0.00    -0.252 OA
ATOM     17  N   UNL     1      -3.371  -1.060   3.551  0.00  0.00    -0.312 N 
ATOM     18  H   UNL     1      -0.674   0.222   2.370  0.00  0.00    +0.174 HD
ATOM     19  H   UNL     1      -3.770  -1.356   2.717  0.00  0.00    +0.147 HD
ATOM     20  H   UNL     1      -3.833  -1.213   4.390  0.00  0.00    +0.147 HD
ENDBRANCH  12  14
ENDBRANCH   1  12
TORSDOF 3
