REMARK  Name = ZINC48522901
REMARK  9 active torsions:
REMARK  status: ('A' for Active; 'I' for Inactive)
REMARK    1  A    between atoms: C_1  and  C_2
REMARK    2  A    between atoms: C_2  and  O_4
REMARK    3  A    between atoms: O_4  and  C_5
REMARK    4  A    between atoms: C_9  and  C_37
REMARK    5  A    between atoms: C_14  and  C_36
REMARK    6  A    between atoms: C_24  and  O_32
REMARK    7  A    between atoms: N_27  and  N_28
REMARK    8  A    between atoms: O_32  and  C_33
REMARK    9  A    between atoms: C_33  and  C_35
REMARK                            x       y       z     vdW  Elec       q    Type
REMARK                         _______ _______ _______ _____ _____    ______ ____
ROOT
ATOM      1  C   UNL     1      -1.353  -2.368  -2.263  0.00  0.00    +0.180 C 
ATOM      2  C   UNL     1      -2.501  -2.753  -1.331  0.00  0.00    +0.046 C 
ATOM      3  C   UNL     1      -2.324  -4.181  -0.819  0.00  0.00    +0.015 C 
ATOM      4  C   UNL     1      -2.276  -5.176  -1.980  0.00  0.00    -0.008 C 
ATOM      5  C   UNL     1      -2.066  -6.585  -1.469  0.00  0.00    +0.003 C 
ATOM      6  C   UNL     1      -1.355  -6.627  -0.125  0.00  0.00    +0.005 C 
ATOM      7  C   UNL     1      -1.307  -8.063   0.425  0.00  0.00    +0.013 C 
ATOM      8  C   UNL     1      -0.600  -8.953  -0.566  0.00  0.00    +0.015 C 
ATOM      9  C   UNL     1      -1.278  -8.864  -1.945  0.00  0.00    +0.008 C 
ATOM     10  C   UNL     1      -1.369  -7.477  -2.504  0.00  0.00    +0.001 C 
ATOM     11  C   UNL     1      -0.045  -6.861  -2.925  0.00  0.00    +0.031 C 
ATOM     12  C   UNL     1      -0.287  -5.461  -3.428  0.00  0.00    -0.027 C 
ATOM     13  C   UNL     1      -1.260  -4.723  -2.985  0.00  0.00    -0.064 C 
ATOM     14  C   UNL     1      -1.352  -3.291  -3.486  0.00  0.00    +0.075 C 
ATOM     15  C   UNL     1      -0.505  -9.933  -2.727  0.00  0.00    +0.055 C 
ATOM     16  C   UNL     1      -0.398 -11.075  -1.673  0.00  0.00    +0.223 C 
ATOM     17  C   UNL     1      -0.708 -10.447  -0.316  0.00  0.00    +0.083 C 
ATOM     18  N   UNL     1      -0.993 -11.025   0.780  0.00  0.00    -0.184 NA
ATOM     19  C   UNL     1       0.894  -8.637  -0.590  0.00  0.00    +0.018 C 
ATOM     20  C   UNL     1      -3.651  -5.156  -2.669  0.00  0.00    +0.016 C 
ENDROOT
BRANCH  18  21
ATOM     21  N   UNL     1      -0.937 -12.422   0.870  0.00  0.00    -0.191 N 
ATOM     22  C   UNL     1      -1.149 -13.030   2.054  0.00  0.00    +0.317 C 
ATOM     23  O   UNL     1      -1.101 -14.242   2.133  0.00  0.00    -0.251 OA
ATOM     24  N   UNL     1      -1.414 -12.293   3.152  0.00  0.00    -0.312 N 
ATOM     25  H   UNL     1      -0.747 -12.952   0.080  0.00  0.00    +0.179 HD
ATOM     26  H   UNL     1      -1.452 -11.326   3.089  0.00  0.00    +0.147 HD
ATOM     27  H   UNL     1      -1.566 -12.731   4.004  0.00  0.00    +0.147 HD
ENDBRANCH  18  21
BRANCH   1  28
ATOM     28  O   UNL     1      -1.518  -1.014  -2.690  0.00  0.00    -0.461 OA
BRANCH  28  30
ATOM     29  C   UNL     1      -0.496   1.113  -3.418  0.00  0.00    +0.136 C 
ATOM     30  C   UNL     1      -0.401  -0.321  -2.963  0.00  0.00    +0.304 C 
ATOM     31  O   UNL     1       0.680  -0.846  -2.843  0.00  0.00    -0.251 OA
ENDBRANCH  28  30
ENDBRANCH   1  28
BRANCH  16  32
ATOM     32  O   UNL     1      -1.353 -12.096  -1.968  0.00  0.00    -0.455 OA
BRANCH  32  33
ATOM     33  C   UNL     1      -0.938 -13.117  -2.733  0.00  0.00    +0.305 C 
ATOM     34  O   UNL     1       0.222 -13.191  -3.065  0.00  0.00    -0.251 OA
ATOM     35  C   UNL     1      -1.918 -14.171  -3.181  0.00  0.00    +0.136 C 
ENDBRANCH  32  33
ENDBRANCH  16  32
TORSDOF 5
