REMARK  Name = ZINC12375443
REMARK  4 active torsions:
REMARK  status: ('A' for Active; 'I' for Inactive)
REMARK    1  A    between atoms: C_4  and  O_19
REMARK    2  A    between atoms: C_5  and  C_7
REMARK    3  A    between atoms: O_19  and  C_20
REMARK    4  A    between atoms: C_20  and  C_21
REMARK                            x       y       z     vdW  Elec       q    Type
REMARK                         _______ _______ _______ _____ _____    ______ ____
ROOT
ATOM      1  C   UNL     1      -0.860   2.146   3.639  0.00  0.00    +0.001 A 
ATOM      2  C   UNL     1      -1.995   2.929   3.534  0.00  0.00    +0.004 A 
ATOM      3  C   UNL     1      -2.493   3.262   2.290  0.00  0.00    +0.046 A 
ATOM      4  C   UNL     1      -1.851   2.813   1.144  0.00  0.00    +0.125 A 
ATOM      5  C   UNL     1      -0.716   2.024   1.252  0.00  0.00    +0.003 A 
ATOM      6  C   UNL     1      -0.221   1.694   2.500  0.00  0.00    +0.008 A 
ENDROOT
BRANCH   5   7
ATOM      7  C   UNL     1      -0.019   1.532   0.011  0.00  0.00    +0.071 C 
ATOM      8  C   UNL     1       0.002  -0.004   0.002  0.00  0.00    +0.109 C 
ATOM      9  C   UNL     1       1.066  -0.522   0.927  0.00  0.00    +0.219 C 
ATOM     10  O   UNL     1       0.833  -1.523   1.572  0.00  0.00    -0.275 OA
ATOM     11  N   UNL     1       2.264   0.068   1.076  0.00  0.00    -0.270 N 
ATOM     12  C   UNL     1       2.475   1.348   0.494  0.00  0.00    +0.138 A 
ATOM     13  C   UNL     1       1.389   2.015  -0.000  0.00  0.00    +0.041 A 
ATOM     14  S   UNL     1       2.101   3.514  -0.611  0.00  0.00    -0.055 S 
ATOM     15  C   UNL     1       3.746   3.168  -0.164  0.00  0.00    +0.158 A 
ATOM     16  N   UNL     1       3.641   1.976   0.395  0.00  0.00    -0.210 NA
ATOM     17  N   UNL     1       4.879   3.944  -0.348  0.00  0.00    -0.337 N 
ATOM     18  H   UNL     1       2.973  -0.371   1.571  0.00  0.00    +0.156 HD
ATOM     19  H   UNL     1       5.742   3.622  -0.046  0.00  0.00    +0.144 HD
ATOM     20  H   UNL     1       4.809   4.810  -0.780  0.00  0.00    +0.144 HD
ENDBRANCH   5   7
BRANCH   4  21
ATOM     21  O   UNL     1      -2.336   3.144  -0.081  0.00  0.00    -0.487 OA
BRANCH  21  22
ATOM     22  C   UNL     1      -3.509   3.960  -0.117  0.00  0.00    +0.264 C 
BRANCH  22  23
ATOM     23  C   UNL     1      -3.896   4.221  -1.549  0.00  0.00    -0.010 A 
ATOM     24  C   UNL     1      -3.394   5.327  -2.210  0.00  0.00    +0.010 A 
ATOM     25  C   UNL     1      -3.745   5.565  -3.525  0.00  0.00    +0.039 A 
ATOM     26  C   UNL     1      -4.608   4.701  -4.178  0.00  0.00    +0.123 A 
ATOM     27  C   UNL     1      -5.114   3.596  -3.514  0.00  0.00    +0.039 A 
ATOM     28  C   UNL     1      -4.758   3.358  -2.200  0.00  0.00    +0.010 A 
ATOM     29  F   UNL     1      -4.955   4.935  -5.463  0.00  0.00    -0.205 F 
ENDBRANCH  22  23
ENDBRANCH  21  22
ENDBRANCH   4  21
TORSDOF 4
