REMARK  Name = ZINC36491564
REMARK  14 active torsions:
REMARK  status: ('A' for Active; 'I' for Inactive)
REMARK    1  A    between atoms: C_1  and  C_2
REMARK    2  A    between atoms: C_5  and  S_8
REMARK    3  A    between atoms: S_8  and  C_11
REMARK    4  A    between atoms: C_11  and  N_12
REMARK    5  A    between atoms: C_13  and  C_15
REMARK    6  A    between atoms: C_15  and  C_17
REMARK    7  A    between atoms: C_15  and  N_26
REMARK    8  A    between atoms: C_18  and  O_25
REMARK    9  A    between atoms: C_20  and  O_24
REMARK   10  A    between atoms: C_22  and  O_23
REMARK   11  A    between atoms: N_26  and  C_27
REMARK   12  A    between atoms: C_33  and  C_35
REMARK   13  A    between atoms: C_35  and  O_36
REMARK   14  A    between atoms: O_36  and  C_37
REMARK                            x       y       z     vdW  Elec       q    Type
REMARK                         _______ _______ _______ _____ _____    ______ ____
ROOT
ATOM      1  C   UNL     1       2.694  -4.973   3.317  0.00  0.00    +0.199 C 
ENDROOT
BRANCH   1   2
ATOM      2  C   UNL     1       1.930  -3.960   4.130  0.00  0.00    +0.065 A 
ATOM      3  C   UNL     1       0.985  -4.382   5.053  0.00  0.00    +0.129 A 
ATOM      4  C   UNL     1       0.282  -3.450   5.801  0.00  0.00    +0.091 A 
ATOM      5  C   UNL     1       0.524  -2.095   5.626  0.00  0.00    +0.124 A 
ATOM      6  C   UNL     1       1.469  -1.673   4.704  0.00  0.00    +0.091 A 
ATOM      7  C   UNL     1       2.176  -2.606   3.959  0.00  0.00    +0.129 A 
BRANCH   7   8
ATOM      8  O   UNL     1       3.106  -2.193   3.058  0.00  0.00    -0.506 OA
ATOM      9  H   UNL     1       2.753  -2.040   2.171  0.00  0.00    +0.292 HD
ENDBRANCH   7   8
BRANCH   5  10
ATOM     10  O   UNL     1      -0.166  -1.181   6.358  0.00  0.00    -0.507 OA
ATOM     11  H   UNL     1       0.258  -0.948   7.196  0.00  0.00    +0.292 HD
ENDBRANCH   5  10
BRANCH   3  12
ATOM     12  O   UNL     1       0.748  -5.709   5.225  0.00  0.00    -0.506 OA
ATOM     13  H   UNL     1       1.312  -6.127   5.890  0.00  0.00    +0.292 HD
ENDBRANCH   3  12
ENDBRANCH   1   2
BRANCH   1  15
ATOM     14  N   UNL     1       1.888  -5.017   0.979  0.00  0.00    -0.294 N 
ATOM     15  C   UNL     1       1.806  -5.517   2.228  0.00  0.00    +0.240 C 
ATOM     16  O   UNL     1       1.017  -6.404   2.476  0.00  0.00    -0.273 OA
ATOM     17  H   UNL     1       2.519  -4.307   0.781  0.00  0.00    +0.150 HD
BRANCH  14  18
ATOM     18  C   UNL     1       1.024  -5.545  -0.080  0.00  0.00    +0.278 C 
BRANCH  18  19
ATOM     19  S   UNL     1      -0.456  -4.507  -0.227  0.00  0.00    +0.013 S 
ATOM     20  O   UNL     1      -1.010  -4.260   1.058  0.00  0.00    -0.168 OA
ATOM     21  O   UNL     1      -1.274  -4.970  -1.293  0.00  0.00    -0.168 OA
BRANCH  19  26
ATOM     22  C   UNL     1       1.590   0.860  -2.076  0.00  0.00    +0.044 C 
ATOM     23  C   UNL     1       1.079  -0.481  -1.614  0.00  0.00    -0.050 A 
ATOM     24  C   UNL     1       0.718  -1.440  -2.542  0.00  0.00    +0.005 A 
ATOM     25  C   UNL     1       0.250  -2.669  -2.118  0.00  0.00    +0.027 A 
ATOM     26  C   UNL     1       0.143  -2.940  -0.767  0.00  0.00    +0.090 A 
ATOM     27  C   UNL     1       0.505  -1.981   0.161  0.00  0.00    +0.027 A 
ATOM     28  C   UNL     1       0.977  -0.753  -0.263  0.00  0.00    +0.005 A 
ENDBRANCH  19  26
ENDBRANCH  18  19
ENDBRANCH  14  18
ENDBRANCH   1  15
BRANCH   1  29
ATOM     29  N   UNL     1       3.128  -6.070   4.187  0.00  0.00    -0.281 N 
ATOM     30  C   UNL     1       3.770  -5.801   5.341  0.00  0.00    +0.242 C 
ATOM     31  O   UNL     1       4.220  -6.708   6.009  0.00  0.00    -0.273 OA
BRANCH  29  32
ATOM     32  C   UNL     1       2.862  -7.458   3.802  0.00  0.00    +0.077 C 
ATOM     33  C   UNL     1       1.970  -8.118   4.855  0.00  0.00    +0.022 C 
ATOM     34  C   UNL     1       1.693  -9.568   4.453  0.00  0.00    +0.002 C 
ATOM     35  C   UNL     1       3.016 -10.331   4.354  0.00  0.00    +0.000 C 
ATOM     36  C   UNL     1       3.908  -9.672   3.301  0.00  0.00    +0.002 C 
ATOM     37  C   UNL     1       4.185  -8.222   3.703  0.00  0.00    +0.022 C 
ENDBRANCH  29  32
BRANCH  30  38
ATOM     38  C   UNL     1       3.929  -4.375   5.800  0.00  0.00    +0.255 C 
BRANCH  38  39
ATOM     39  O   UNL     1       4.754  -4.340   6.967  0.00  0.00    -0.374 OA
ATOM     40  C   UNL     1       4.969  -3.026   7.487  0.00  0.00    +0.194 C 
ENDBRANCH  38  39
ENDBRANCH  30  38
ENDBRANCH   1  29
TORSDOF 12
