REMARK  Name = ZINC04708266
REMARK  7 active torsions:
REMARK  status: ('A' for Active; 'I' for Inactive)
REMARK    1  A    between atoms: C_1  and  C_2
REMARK    2  A    between atoms: C_2  and  C_3
REMARK    3  A    between atoms: C_9  and  C_11
REMARK    4  A    between atoms: C_12  and  N_26
REMARK    5  A    between atoms: C_23  and  C_24
REMARK    6  A    between atoms: C_23  and  C_25
REMARK    7  A    between atoms: C_23  and  N_49
REMARK                            x       y       z     vdW  Elec       q    Type
REMARK                         _______ _______ _______ _____ _____    ______ ____
ROOT
ATOM      1  C   UNL     1      -8.120  -0.953   1.217  0.00  0.00    +0.097 A 
ATOM      2  C   UNL     1      -8.925  -1.997   1.615  0.00  0.00    +0.053 A 
ATOM      3  C   UNL     1     -10.347  -1.928   1.315  0.00  0.00    +0.029 A 
ATOM      4  C   UNL     1     -11.364  -2.862   1.620  0.00  0.00    +0.016 A 
ATOM      5  C   UNL     1     -12.663  -2.603   1.232  0.00  0.00    -0.042 A 
ATOM      6  C   UNL     1     -12.963  -1.434   0.553  0.00  0.00    +0.042 A 
ATOM      7  N   UNL     1     -12.007  -0.564   0.270  0.00  0.00    -0.244 NA
ATOM      8  C   UNL     1     -10.757  -0.769   0.617  0.00  0.00    +0.111 A 
ATOM      9  S   UNL     1      -9.256   0.157   0.407  0.00  0.00    -0.062 S 
ATOM     10  C   UNL     1     -14.371  -1.112   0.120  0.00  0.00    +0.037 C 
ATOM     11  C   UNL     1     -15.229  -2.378   0.150  0.00  0.00    -0.072 C 
ATOM     12  C   UNL     1     -13.723  -3.622   1.562  0.00  0.00    -0.041 C 
ATOM     13  N   UNL     1     -15.058  -3.008   1.476  0.00  0.00    +0.384 N 
ATOM     14  H   UNL     1     -15.144  -2.288   2.203  0.00  0.00    -0.081 HD
ENDROOT
BRANCH   1  21
ATOM     15  C   UNL     1      -2.143   1.058   1.278  0.00  0.00    +0.103 A 
ATOM     16  N   UNL     1      -2.630  -0.059   1.782  0.00  0.00    -0.145 NA
ATOM     17  N   UNL     1      -3.854  -0.352   1.706  0.00  0.00    -0.126 NA
ATOM     18  C   UNL     1      -4.729   0.449   1.113  0.00  0.00    +0.188 A 
ATOM     19  S   UNL     1      -3.641   1.781   0.616  0.00  0.00    -0.035 S 
ATOM     20  N   UNL     1      -6.099   0.299   0.932  0.00  0.00    -0.259 N 
ATOM     21  C   UNL     1      -6.724  -0.800   1.400  0.00  0.00    +0.258 C 
ATOM     22  O   UNL     1      -6.088  -1.661   1.981  0.00  0.00    -0.269 OA
ATOM     23  H   UNL     1      -6.605   0.985   0.469  0.00  0.00    +0.157 HD
BRANCH  15  25
ATOM     24  C   UNL     1      -0.013   1.086   0.008  0.00  0.00    +0.011 C 
ATOM     25  C   UNL     1      -0.729   1.579   1.267  0.00  0.00    +0.061 C 
ENDBRANCH  15  25
ENDBRANCH   1  21
BRANCH  13  26
ATOM     26  C   UNL     1     -16.103  -4.033   1.689  0.00  0.00    -0.074 C 
ATOM     27  C   UNL     1     -15.822  -4.770   3.000  0.00  0.00    -0.014 C 
ATOM     28  C   UNL     1     -17.466  -3.344   1.773  0.00  0.00    -0.014 C 
ENDBRANCH  13  26
BRANCH   2  29
ATOM     29  N   UNL     1      -8.393  -3.087   2.291  0.00  0.00    -0.356 N 
ATOM     30  H   UNL     1      -7.444  -3.119   2.488  0.00  0.00    +0.142 HD
ATOM     31  H   UNL     1      -8.971  -3.816   2.566  0.00  0.00    +0.142 HD
ENDBRANCH   2  29
TORSDOF 4
