REMARK  Name = ZINC04709453
REMARK  7 active torsions:
REMARK  status: ('A' for Active; 'I' for Inactive)
REMARK    1  A    between atoms: C_1  and  C_2
REMARK    2  A    between atoms: C_6  and  N_23
REMARK    3  A    between atoms: C_7  and  N_8
REMARK    4  A    between atoms: C_9  and  C_11
REMARK    5  A    between atoms: C_12  and  N_22
REMARK    6  A    between atoms: C_14  and  C_21
REMARK    7  A    between atoms: C_16  and  C_20
REMARK                            x       y       z     vdW  Elec       q    Type
REMARK                         _______ _______ _______ _____ _____    ______ ____
ROOT
ATOM      1  C   UNL     1      -0.047   4.128   1.429  0.00  0.00    +0.097 A 
ATOM      2  C   UNL     1       0.578   5.127   2.143  0.00  0.00    +0.054 A 
ATOM      3  C   UNL     1       0.176   6.504   1.901  0.00  0.00    +0.030 A 
ATOM      4  C   UNL     1       0.670   7.689   2.502  0.00  0.00    -0.037 A 
ATOM      5  C   UNL     1       0.138   8.899   2.125  0.00  0.00    +0.025 A 
ATOM      6  C   UNL     1      -0.867   8.957   1.171  0.00  0.00    +0.014 A 
ATOM      7  N   UNL     1      -1.324   7.853   0.614  0.00  0.00    -0.353 N 
ATOM      8  C   UNL     1      -0.847   6.671   0.941  0.00  0.00    +0.088 A 
ATOM      9  S   UNL     1      -1.212   5.015   0.412  0.00  0.00    -0.064 S 
ATOM     10  C   UNL     1      -1.441  10.291   0.768  0.00  0.00    +0.063 C 
ATOM     11  C   UNL     1       1.762   7.623   3.539  0.00  0.00    +0.044 C 
ATOM     12  H   UNL     1      -2.122   7.907  -0.142  0.00  0.00    +0.166 HD
ENDROOT
BRANCH   1  14
ATOM     13  N   UNL     1      -0.541   1.897   0.714  0.00  0.00    -0.279 N 
ATOM     14  C   UNL     1       0.177   2.731   1.492  0.00  0.00    +0.257 C 
ATOM     15  O   UNL     1       1.020   2.283   2.249  0.00  0.00    -0.269 OA
ATOM     16  H   UNL     1      -1.233   2.305  -0.037  0.00  0.00    +0.155 HD
BRANCH  13  23
ATOM     17  C   UNL     1       2.048   0.757   0.404  0.00  0.00    +0.046 C 
ATOM     18  C   UNL     1       0.839  -0.085   0.720  0.00  0.00    -0.027 A 
ATOM     19  C   UNL     1       0.968  -1.452   0.868  0.00  0.00    +0.005 A 
ATOM     20  C   UNL     1      -0.141  -2.225   1.157  0.00  0.00    +0.003 A 
ATOM     21  C   UNL     1      -1.383  -1.633   1.300  0.00  0.00    +0.034 A 
ATOM     22  C   UNL     1      -1.518  -0.266   1.159  0.00  0.00    +0.148 A 
ATOM     23  C   UNL     1      -0.407   0.513   0.863  0.00  0.00    +0.067 A 
BRANCH  22  24
ATOM     24  N   UNL     1      -2.846   0.367   1.318  0.00  0.00    +0.058 N 
ATOM     25  O   UNL     1      -3.834  -0.324   1.493  0.00  0.00    -0.126 OA
ATOM     26  O   UNL     1      -2.952   1.580   1.273  0.00  0.00    -0.126 OA
ENDBRANCH  22  24
ENDBRANCH  13  23
ENDBRANCH   1  14
BRANCH   2  27
ATOM     27  N   UNL     1       1.568   4.827   3.068  0.00  0.00    -0.356 N 
ATOM     28  H   UNL     1       2.058   5.635   3.631  0.00  0.00    +0.142 HD
ATOM     29  H   UNL     1       1.864   3.781   3.238  0.00  0.00    +0.142 HD
ENDBRANCH   2  27
TORSDOF 4
