REMARK  Name = ZINC42828520
REMARK  6 active torsions:
REMARK  status: ('A' for Active; 'I' for Inactive)
REMARK    1  A    between atoms: C_1  and  C_2
REMARK    2  A    between atoms: C_8  and  C_10
REMARK    3  A    between atoms: C_10  and  N_11
REMARK    4  A    between atoms: C_12  and  C_14
REMARK    5  A    between atoms: C_16  and  N_20
REMARK    6  A    between atoms: N_18  and  C_19
REMARK                            x       y       z     vdW  Elec       q    Type
REMARK                         _______ _______ _______ _____ _____    ______ ____
ROOT
ATOM      1  N   UNL     1       2.717  -0.021   2.656  0.00  0.00    -0.310 N 
ATOM      2  C   UNL     1       4.002   0.331   2.861  0.00  0.00    +0.261 C 
ATOM      3  O   UNL     1       4.573   1.045   2.058  0.00  0.00    -0.269 OA
ATOM      4  H   UNL     1       2.283  -0.645   3.260  0.00  0.00    +0.149 HD
ENDROOT
BRANCH   2   5
ATOM      5  C   UNL     1       4.712  -0.146   4.053  0.00  0.00    +0.106 A 
ATOM      6  C   UNL     1       4.179  -0.919   5.064  0.00  0.00    +0.055 A 
ATOM      7  C   UNL     1       5.201  -1.142   5.996  0.00  0.00    +0.043 A 
ATOM      8  C   UNL     1       6.318  -0.513   5.545  0.00  0.00    +0.108 A 
ATOM      9  N   UNL     1       6.032   0.091   4.361  0.00  0.00    -0.344 N 
ATOM     10  C   UNL     1       6.972   0.868   3.549  0.00  0.00    +0.149 C 
BRANCH   7  11
ATOM     11  N   UNL     1       5.091  -1.884   7.186  0.00  0.00    -0.357 N 
ATOM     12  H   UNL     1       4.246  -2.298   7.423  0.00  0.00    +0.142 HD
ATOM     13  H   UNL     1       5.859  -1.982   7.770  0.00  0.00    +0.142 HD
ENDBRANCH   7  11
ENDBRANCH   2   5
BRANCH   1  14
ATOM     14  C   UNL     1       1.977   0.538   1.523  0.00  0.00    +0.108 C 
BRANCH  14  21
ATOM     15  C   UNL     1      -0.302   2.165   0.662  0.00  0.00    +0.008 C 
ATOM     16  C   UNL     1      -0.258   0.656   0.412  0.00  0.00    -0.010 C 
ATOM     17  C   UNL     1      -1.683   0.098   0.409  0.00  0.00    +0.003 C 
ATOM     18  C   UNL     1      -1.639  -1.411   0.159  0.00  0.00    +0.000 C 
ATOM     19  C   UNL     1      -0.828  -2.087   1.266  0.00  0.00    +0.000 C 
ATOM     20  C   UNL     1       0.596  -1.529   1.270  0.00  0.00    +0.005 C 
ATOM     21  C   UNL     1       0.552  -0.020   1.520  0.00  0.00    +0.009 C 
ENDBRANCH  14  21
ENDBRANCH   1  14
TORSDOF 4
