REMARK  Name = ZINC66627514
REMARK  9 active torsions:
REMARK  status: ('A' for Active; 'I' for Inactive)
REMARK    1  A    between atoms: C_1  and  C_2
REMARK    2  A    between atoms: C_2  and  C_4
REMARK    3  A    between atoms: C_2  and  C_21
REMARK    4  A    between atoms: C_4  and  N_5
REMARK    5  A    between atoms: C_6  and  C_8
REMARK    6  A    between atoms: C_8  and  N_9
REMARK    7  A    between atoms: N_12  and  C_13
REMARK    8  A    between atoms: C_13  and  C_14
REMARK    9  A    between atoms: C_21  and  N_22
REMARK                            x       y       z     vdW  Elec       q    Type
REMARK                         _______ _______ _______ _____ _____    ______ ____
ROOT
ATOM      1  N   UNL     1      -0.261  -0.195  -2.436  0.00  0.00    -0.314 N 
ATOM      2  C   UNL     1       0.129  -0.459  -3.699  0.00  0.00    +0.230 C 
ATOM      3  O   UNL     1       1.224  -0.934  -3.909  0.00  0.00    -0.274 OA
ATOM      4  H   UNL     1      -1.137   0.185  -2.268  0.00  0.00    +0.149 HD
ENDROOT
BRANCH   1   5
ATOM      5  C   UNL     1       0.640  -0.483  -1.317  0.00  0.00    +0.105 C 
BRANCH   5   7
ATOM      6  C   UNL     1      -0.256   1.420   0.032  0.00  0.00    +0.007 C 
ATOM      7  C   UNL     1      -0.040  -0.094  -0.002  0.00  0.00    -0.014 C 
BRANCH   7   8
ATOM      8  C   UNL     1       0.848  -0.509   1.173  0.00  0.00    -0.074 C 
BRANCH   8   9
ATOM      9  N   UNL     1       0.145  -0.242   2.435  0.00  0.00    +0.380 N 
ATOM     10  C   UNL     1       1.052  -0.495   3.561  0.00  0.00    -0.079 C 
ATOM     11  C   UNL     1       0.351  -0.142   4.875  0.00  0.00    -0.019 C 
ATOM     12  C   UNL     1      -0.905  -1.004   5.025  0.00  0.00    -0.004 C 
ATOM     13  C   UNL     1      -1.810  -0.787   3.809  0.00  0.00    -0.019 C 
ATOM     14  C   UNL     1      -1.029  -1.117   2.534  0.00  0.00    -0.079 C 
ATOM     15  H   UNL     1      -0.153   0.722   2.456  0.00  0.00    -0.082 HD
ENDBRANCH   8   9
ENDBRANCH   7   8
ENDBRANCH   5   7
ENDBRANCH   1   5
BRANCH   2  16
ATOM     16  C   UNL     1      -0.798  -0.162  -4.850  0.00  0.00    +0.201 C 
BRANCH  16  17
ATOM     17  N   UNL     1      -0.147  -0.535  -6.109  0.00  0.00    -0.291 N 
ATOM     18  C   UNL     1      -0.792  -0.358  -7.279  0.00  0.00    +0.300 C 
ATOM     19  O   UNL     1      -1.914   0.111  -7.290  0.00  0.00    -0.253 OA
ATOM     20  N   UNL     1      -0.193  -0.700  -8.437  0.00  0.00    -0.295 N 
ATOM     21  H   UNL     1       0.748  -0.909  -6.100  0.00  0.00    +0.151 HD
ATOM     22  H   UNL     1       0.702  -1.075  -8.428  0.00  0.00    +0.151 HD
BRANCH  20  23
ATOM     23  C   UNL     1      -0.894  -0.508  -9.709  0.00  0.00    +0.141 C 
BRANCH  23  24
ATOM     24  C   UNL     1      -0.014  -0.967 -10.842  0.00  0.00    -0.030 A 
ATOM     25  C   UNL     1       0.856  -0.077 -11.446  0.00  0.00    +0.006 A 
ATOM     26  C   UNL     1       1.664  -0.498 -12.485  0.00  0.00    +0.020 A 
ATOM     27  C   UNL     1       1.602  -1.809 -12.922  0.00  0.00    +0.041 A 
ATOM     28  C   UNL     1       0.732  -2.699 -12.318  0.00  0.00    +0.020 A 
ATOM     29  C   UNL     1      -0.071  -2.279 -11.274  0.00  0.00    +0.006 A 
ATOM     30 CL   UNL     1       2.617  -2.338 -14.228  0.00  0.00    -0.084 Cl
ENDBRANCH  23  24
ENDBRANCH  20  23
ENDBRANCH  16  17
ENDBRANCH   2  16
TORSDOF 8
