REMARK  Name = ZINC38596020
REMARK  13 active torsions:
REMARK  status: ('A' for Active; 'I' for Inactive)
REMARK    1  A    between atoms: C_1  and  C_2
REMARK    2  A    between atoms: C_2  and  C_4
REMARK    3  A    between atoms: C_2  and  N_24
REMARK    4  A    between atoms: C_4  and  C_6
REMARK    5  A    between atoms: C_4  and  N_11
REMARK    6  A    between atoms: N_14  and  C_17
REMARK    7  A    between atoms: C_17  and  C_18
REMARK    8  A    between atoms: C_25  and  C_27
REMARK    9  A    between atoms: C_29  and  O_38
REMARK   10  A    between atoms: C_30  and  O_36
REMARK   11  A    between atoms: C_32  and  N_33
REMARK   12  A    between atoms: O_36  and  C_37
REMARK   13  A    between atoms: O_38  and  C_39
REMARK                            x       y       z     vdW  Elec       q    Type
REMARK                         _______ _______ _______ _____ _____    ______ ____
ROOT
ATOM      1  C   UNL     1      -0.585  -0.711  -0.464  0.00  0.00    +0.113 C 
ENDROOT
BRANCH   1   2
ATOM      2  N   UNL     1       0.748  -0.385  -0.990  0.00  0.00    -0.297 NA
ATOM      3  C   UNL     1       0.988   1.065  -0.955  0.00  0.00    +0.066 C 
ATOM      4  C   UNL     1       2.405   1.356  -1.454  0.00  0.00    -0.063 C 
ATOM      5  N   UNL     1       2.554   0.850  -2.825  0.00  0.00    +0.384 N 
ATOM      6  C   UNL     1       2.336  -0.602  -2.840  0.00  0.00    -0.063 C 
ATOM      7  C   UNL     1       0.919  -0.910  -2.352  0.00  0.00    +0.066 C 
ATOM      8  H   UNL     1       1.878   1.298  -3.424  0.00  0.00    -0.081 HD
BRANCH   5   9
ATOM      9  C   UNL     1       3.909   1.146  -3.310  0.00  0.00    -0.043 C 
BRANCH   9  10
ATOM     10  C   UNL     1       4.025   0.739  -4.756  0.00  0.00    -0.064 A 
ATOM     11  C   UNL     1       4.431  -0.541  -5.083  0.00  0.00    +0.002 A 
ATOM     12  C   UNL     1       4.538  -0.915  -6.410  0.00  0.00    +0.000 A 
ATOM     13  C   UNL     1       4.237  -0.009  -7.410  0.00  0.00    +0.000 A 
ATOM     14  C   UNL     1       3.829   1.270  -7.083  0.00  0.00    +0.000 A 
ATOM     15  C   UNL     1       3.719   1.643  -5.756  0.00  0.00    +0.002 A 
ENDBRANCH   9  10
ENDBRANCH   5   9
ENDBRANCH   1   2
BRANCH   1  16
ATOM     16  C   UNL     1      -0.816  -2.196  -0.566  0.00  0.00    +0.009 A 
ATOM     17  C   UNL     1      -1.942  -2.863  -0.921  0.00  0.00    +0.013 A 
ATOM     18  C   UNL     1      -1.923  -4.245  -0.946  0.00  0.00    +0.008 A 
ATOM     19  C   UNL     1      -0.779  -4.893  -0.615  0.00  0.00    +0.045 A 
ATOM     20  S   UNL     1       0.325  -3.535  -0.259  0.00  0.00    -0.100 S 
ENDBRANCH   1  16
BRANCH   1  22
ATOM     21  C   UNL     1      -2.055  -0.635   1.555  0.00  0.00    +0.030 C 
ATOM     22  C   UNL     1      -0.673  -0.281   1.002  0.00  0.00    +0.092 C 
BRANCH  22  23
ATOM     23  N   UNL     1       0.356  -0.976   1.778  0.00  0.00    -0.307 N 
ATOM     24  C   UNL     1       0.818  -0.435   2.923  0.00  0.00    +0.247 C 
ATOM     25  O   UNL     1       0.380   0.631   3.311  0.00  0.00    -0.270 OA
ATOM     26  H   UNL     1       0.706  -1.826   1.468  0.00  0.00    +0.149 HD
BRANCH  24  27
ATOM     27  C   UNL     1       1.855  -1.135   3.705  0.00  0.00    +0.071 A 
ATOM     28  C   UNL     1       1.678  -2.475   4.062  0.00  0.00    +0.064 A 
ATOM     29  C   UNL     1       2.651  -3.126   4.793  0.00  0.00    +0.162 A 
ATOM     30  C   UNL     1       3.808  -2.447   5.174  0.00  0.00    +0.164 A 
ATOM     31  C   UNL     1       3.984  -1.117   4.820  0.00  0.00    +0.082 A 
ATOM     32  C   UNL     1       3.019  -0.463   4.085  0.00  0.00    +0.142 A 
BRANCH  32  33
ATOM     33  N   UNL     1       3.212   0.954   3.704  0.00  0.00    +0.057 N 
ATOM     34  O   UNL     1       4.163   1.569   4.127  0.00  0.00    -0.126 OA
ATOM     35  O   UNL     1       2.420   1.496   2.969  0.00  0.00    -0.126 OA
ENDBRANCH  32  33
BRANCH  30  36
ATOM     36  O   UNL     1       4.764  -3.089   5.894  0.00  0.00    -0.491 OA
ATOM     37  C   UNL     1       5.924  -2.334   6.250  0.00  0.00    +0.277 C 
ENDBRANCH  30  36
BRANCH  29  38
ATOM     38  O   UNL     1       2.482  -4.430   5.143  0.00  0.00    -0.491 OA
ATOM     39  C   UNL     1       1.272  -5.063   4.719  0.00  0.00    +0.277 C 
ENDBRANCH  29  38
ENDBRANCH  24  27
ENDBRANCH  22  23
ENDBRANCH   1  22
TORSDOF 10
