REMARK  Name = ZINC64890547
REMARK  9 active torsions:
REMARK  status: ('A' for Active; 'I' for Inactive)
REMARK    1  A    between atoms: C_1  and  C_2
REMARK    2  A    between atoms: C_2  and  C_3
REMARK    3  A    between atoms: C_2  and  C_4
REMARK    4  A    between atoms: C_4  and  C_6
REMARK    5  A    between atoms: C_4  and  N_26
REMARK    6  A    between atoms: C_9  and  C_12
REMARK    7  A    between atoms: N_24  and  C_25
REMARK    8  A    between atoms: N_26  and  S_27
REMARK    9  A    between atoms: S_27  and  C_30
REMARK                            x       y       z     vdW  Elec       q    Type
REMARK                         _______ _______ _______ _____ _____    ______ ____
ROOT
ATOM      1  C   UNL     1      -2.153  -0.073   1.156  0.00  0.00    +0.262 C 
ATOM      2  N   UNL     1      -3.448  -0.757   1.253  0.00  0.00    -0.341 N 
ATOM      3  C   UNL     1      -3.511  -1.369   2.396  0.00  0.00    +0.134 C 
ATOM      4  N   UNL     1      -2.366  -1.179   3.130  0.00  0.00    -0.247 N 
ATOM      5  O   UNL     1      -1.472  -0.362   2.387  0.00  0.00    -0.246 OA
ATOM      6  H   UNL     1      -2.195  -1.544   4.012  0.00  0.00    +0.196 HD
ATOM      7  H   UNL     1      -4.142  -0.753   0.575  0.00  0.00    +0.164 HD
ENDROOT
BRANCH   3   8
ATOM      8  C   UNL     1      -4.670  -2.168   2.851  0.00  0.00    +0.019 A 
ATOM      9  C   UNL     1      -5.471  -2.833   1.919  0.00  0.00    +0.013 A 
ATOM     10  C   UNL     1      -6.549  -3.577   2.340  0.00  0.00    +0.028 A 
ATOM     11  C   UNL     1      -6.848  -3.671   3.697  0.00  0.00    +0.068 A 
ATOM     12  C   UNL     1      -6.051  -3.008   4.635  0.00  0.00    +0.067 A 
ATOM     13  C   UNL     1      -4.961  -2.263   4.210  0.00  0.00    +0.039 A 
ATOM     14  N   UNL     1      -6.339  -3.093   5.995  0.00  0.00    -0.316 N 
ATOM     15  H   UNL     1      -5.780  -2.629   6.638  0.00  0.00    +0.169 HD
ATOM     16  C   UNL     1      -7.393  -3.820   6.419  0.00  0.00    +0.314 A 
ATOM     17  O   UNL     1      -7.649  -3.897   7.604  0.00  0.00    -0.262 OA
ATOM     18  C   UNL     1      -8.242  -4.527   5.417  0.00  0.00    +0.316 A 
ATOM     19  O   UNL     1      -9.196  -5.187   5.778  0.00  0.00    -0.262 OA
ATOM     20  N   UNL     1      -7.940  -4.427   4.107  0.00  0.00    -0.305 N 
ATOM     21  C   UNL     1      -8.766  -5.116   3.112  0.00  0.00    +0.153 C 
ENDBRANCH   3   8
BRANCH   1  22
ATOM     22  C   UNL     1      -1.355  -0.615  -0.031  0.00  0.00    +0.131 C 
BRANCH  22  24
ATOM     23  C   UNL     1      -0.324   1.651  -0.233  0.00  0.00    +0.009 C 
ATOM     24  C   UNL     1      -0.036   0.151  -0.151  0.00  0.00    +0.006 C 
ATOM     25  C   UNL     1       0.834  -0.136   1.074  0.00  0.00    +0.009 C 
ENDBRANCH  22  24
BRANCH  22  26
ATOM     26  N   UNL     1      -2.133  -0.445  -1.261  0.00  0.00    -0.182 NA
ATOM     27  H   UNL     1      -2.702   0.333  -1.371  0.00  0.00    +0.148 HD
BRANCH  26  28
ATOM     28  S   UNL     1      -2.040  -1.580  -2.463  0.00  0.00    +0.059 S 
ATOM     29  O   UNL     1      -2.917  -1.150  -3.496  0.00  0.00    -0.153 OA
ATOM     30  O   UNL     1      -0.658  -1.821  -2.688  0.00  0.00    -0.153 OA
BRANCH  28  31
ATOM     31  C   UNL     1      -2.715  -3.076  -1.820  0.00  0.00    +0.105 A 
ATOM     32  C   UNL     1      -1.895  -3.982  -1.175  0.00  0.00    +0.028 A 
ATOM     33  C   UNL     1      -2.424  -5.156  -0.671  0.00  0.00    +0.002 A 
ATOM     34  C   UNL     1      -3.773  -5.422  -0.811  0.00  0.00    +0.000 A 
ATOM     35  C   UNL     1      -4.593  -4.515  -1.456  0.00  0.00    +0.002 A 
ATOM     36  C   UNL     1      -4.065  -3.340  -1.956  0.00  0.00    +0.028 A 
ENDBRANCH  28  31
ENDBRANCH  26  28
ENDBRANCH  22  26
ENDBRANCH   1  22
TORSDOF 6
