REMARK  Name = ZINC36609341
REMARK  14 active torsions:
REMARK  status: ('A' for Active; 'I' for Inactive)
REMARK    1  A    between atoms: C_1  and  C_2
REMARK    2  A    between atoms: C_2  and  C_3
REMARK    3  A    between atoms: C_2  and  C_4
REMARK    4  A    between atoms: C_2  and  N_5
REMARK    5  A    between atoms: C_6  and  C_8
REMARK    6  A    between atoms: C_8  and  C_10
REMARK    7  A    between atoms: C_8  and  N_19
REMARK    8  A    between atoms: C_11  and  O_18
REMARK    9  A    between atoms: C_13  and  O_17
REMARK   10  A    between atoms: C_15  and  O_16
REMARK   11  A    between atoms: N_19  and  C_20
REMARK   12  A    between atoms: C_26  and  C_28
REMARK   13  A    between atoms: C_30  and  N_35
REMARK   14  A    between atoms: C_33  and  O_34
REMARK                            x       y       z     vdW  Elec       q    Type
REMARK                         _______ _______ _______ _____ _____    ______ ____
ROOT
ATOM      1  C   UNL     1       3.986   0.070  -1.553  0.00  0.00    +0.204 C 
ENDROOT
BRANCH   1   2
ATOM      2  C   UNL     1       4.886  -1.043  -1.083  0.00  0.00    +0.065 A 
ATOM      3  C   UNL     1       6.241  -0.811  -0.903  0.00  0.00    +0.129 A 
ATOM      4  C   UNL     1       7.069  -1.835  -0.470  0.00  0.00    +0.091 A 
ATOM      5  C   UNL     1       6.542  -3.093  -0.216  0.00  0.00    +0.124 A 
ATOM      6  C   UNL     1       5.187  -3.325  -0.396  0.00  0.00    +0.091 A 
ATOM      7  C   UNL     1       4.358  -2.299  -0.824  0.00  0.00    +0.129 A 
BRANCH   7   8
ATOM      8  O   UNL     1       3.029  -2.526  -0.996  0.00  0.00    -0.506 OA
ATOM      9  H   UNL     1       2.792  -2.826  -1.884  0.00  0.00    +0.292 HD
ENDBRANCH   7   8
BRANCH   5  10
ATOM     10  O   UNL     1       7.354  -4.097   0.207  0.00  0.00    -0.507 OA
ATOM     11  H   UNL     1       7.438  -4.156   1.169  0.00  0.00    +0.292 HD
ENDBRANCH   5  10
BRANCH   3  12
ATOM     12  O   UNL     1       6.758   0.422  -1.151  0.00  0.00    -0.506 OA
ATOM     13  H   UNL     1       6.830   0.983  -0.367  0.00  0.00    +0.292 HD
ENDBRANCH   3  12
ENDBRANCH   1   2
BRANCH   1  15
ATOM     14  N   UNL     1       3.686   1.023   0.710  0.00  0.00    -0.309 N 
ATOM     15  C   UNL     1       4.048   1.214  -0.574  0.00  0.00    +0.239 C 
ATOM     16  O   UNL     1       4.425   2.307  -0.941  0.00  0.00    -0.273 OA
ATOM     17  H   UNL     1       3.384   0.149   1.004  0.00  0.00    +0.149 HD
BRANCH  14  19
ATOM     18  C   UNL     1       2.832   3.265   1.184  0.00  0.00    +0.031 C 
ATOM     19  C   UNL     1       3.746   2.135   1.662  0.00  0.00    +0.026 C 
ATOM     20  C   UNL     1       5.184   2.647   1.757  0.00  0.00    +0.031 C 
ATOM     21  C   UNL     1       3.284   1.653   3.039  0.00  0.00    +0.031 C 
ENDBRANCH  14  19
ENDBRANCH   1  15
BRANCH   1  22
ATOM     22  N   UNL     1       4.428   0.531  -2.872  0.00  0.00    -0.251 N 
ATOM     23  C   UNL     1       3.686   1.423  -3.557  0.00  0.00    +0.255 C 
ATOM     24  O   UNL     1       3.820   1.528  -4.761  0.00  0.00    -0.269 OA
BRANCH  22  25
ATOM     25  C   UNL     1       5.620   0.046  -3.418  0.00  0.00    +0.038 A 
ATOM     26  C   UNL     1       5.673  -1.240  -3.941  0.00  0.00    +0.023 A 
ATOM     27  C   UNL     1       6.852  -1.716  -4.481  0.00  0.00    +0.002 A 
ATOM     28  C   UNL     1       7.979  -0.914  -4.502  0.00  0.00    +0.000 A 
ATOM     29  C   UNL     1       7.929   0.366  -3.982  0.00  0.00    +0.002 A 
ATOM     30  C   UNL     1       6.752   0.850  -3.445  0.00  0.00    +0.023 A 
ENDBRANCH  22  25
BRANCH  23  31
ATOM     31  C   UNL     1       2.712   2.273  -2.847  0.00  0.00    +0.081 A 
ATOM     32  C   UNL     1       2.028   1.778  -1.733  0.00  0.00    +0.049 A 
ATOM     33  C   UNL     1       1.119   2.577  -1.075  0.00  0.00    +0.127 A 
ATOM     34  C   UNL     1       0.879   3.870  -1.511  0.00  0.00    +0.036 A 
ATOM     35  C   UNL     1       1.548   4.371  -2.610  0.00  0.00    +0.048 A 
ATOM     36  C   UNL     1       2.471   3.583  -3.282  0.00  0.00    +0.129 A 
BRANCH  33  37
ATOM     37  N   UNL     1       0.396   2.051   0.105  0.00  0.00    +0.056 N 
ATOM     38  O   UNL     1       0.612   0.928   0.495  0.00  0.00    -0.126 OA
ATOM     39  O   UNL     1      -0.412   2.746   0.677  0.00  0.00    -0.126 OA
ENDBRANCH  33  37
BRANCH  36  40
ATOM     40  O   UNL     1       3.132   4.077  -4.358  0.00  0.00    -0.506 OA
ATOM     41  H   UNL     1       2.682   3.926  -5.200  0.00  0.00    +0.292 HD
ENDBRANCH  36  40
ENDBRANCH  23  31
ENDBRANCH   1  22
TORSDOF 11
