REMARK  Name = ZINC02642296
REMARK  4 active torsions:
REMARK  status: ('A' for Active; 'I' for Inactive)
REMARK    1  A    between atoms: C_4  and  C_7
REMARK    2  A    between atoms: C_8  and  C_9
REMARK    3  A    between atoms: N_11  and  C_12
REMARK    4  A    between atoms: C_13  and  C_17
REMARK                            x       y       z     vdW  Elec       q    Type
REMARK                         _______ _______ _______ _____ _____    ______ ____
ROOT
ATOM      1  C   UNL     1       1.245   1.825   0.000  0.00  0.00    +0.241 C 
ATOM      2  O   UNL     1       1.228   3.042   0.007  0.00  0.00    -0.270 OA
ATOM      3  N   UNL     1       2.421   1.167  -0.015  0.00  0.00    -0.275 N 
ATOM      4  H   UNL     1       2.434   0.197  -0.020  0.00  0.00    +0.156 HD
ENDROOT
BRANCH   3   5
ATOM      5  C   UNL     1       3.612   1.876  -0.022  0.00  0.00    +0.089 A 
ATOM      6  C   UNL     1       4.911   1.382  -0.032  0.00  0.00    +0.080 A 
ATOM      7  C   UNL     1       5.976   2.356  -0.043  0.00  0.00    +0.028 A 
ATOM      8  C   UNL     1       5.621   3.654  -0.032  0.00  0.00    +0.048 A 
ATOM      9  S   UNL     1       3.842   3.592  -0.015  0.00  0.00    -0.081 S 
BRANCH   6  10
ATOM     10  C   UNL     1       5.179  -0.024  -0.035  0.00  0.00    +0.102 C 
ATOM     11  N   UNL     1       5.392  -1.140  -0.037  0.00  0.00    -0.191 NA
ENDBRANCH   6  10
ENDBRANCH   3   5
BRANCH   1  13
ATOM     12  C   UNL     1      -1.190   1.734   0.017  0.00  0.00    +0.013 C 
ATOM     13  C   UNL     1      -0.013   1.076   0.008  0.00  0.00    +0.068 C 
BRANCH  12  17
ATOM     14  C   UNL     1      -4.834  -0.436   0.022  0.00  0.00    +0.000 A 
ATOM     15  C   UNL     1      -4.857   0.947   0.030  0.00  0.00    +0.001 A 
ATOM     16  C   UNL     1      -3.677   1.660   0.029  0.00  0.00    +0.008 A 
ATOM     17  C   UNL     1      -2.454   0.981   0.019  0.00  0.00    -0.025 A 
ATOM     18  C   UNL     1      -2.439  -0.417   0.005  0.00  0.00    +0.008 A 
ATOM     19  C   UNL     1      -3.628  -1.116   0.012  0.00  0.00    +0.001 A 
ENDBRANCH  12  17
ENDBRANCH   1  13
TORSDOF 4
