REMARK  Name = ZINC37324694
REMARK  6 active torsions:
REMARK  status: ('A' for Active; 'I' for Inactive)
REMARK    1  A    between atoms: C_1  and  C_2
REMARK    2  A    between atoms: N_5  and  C_11
REMARK    3  A    between atoms: C_7  and  C_10
REMARK    4  A    between atoms: C_11  and  C_13
REMARK    5  A    between atoms: C_11  and  C_15
REMARK    6  A    between atoms: C_13  and  N_14
REMARK                            x       y       z     vdW  Elec       q    Type
REMARK                         _______ _______ _______ _____ _____    ______ ____
ROOT
ATOM      1  C   UNL     1      -2.785  -2.477   0.082  0.00  0.00    +0.070 C 
ENDROOT
BRANCH   1   2
ATOM      2  C   UNL     1      -2.847  -3.978   0.202  0.00  0.00    -0.027 A 
ATOM      3  C   UNL     1      -3.793  -4.567   1.021  0.00  0.00    +0.054 A 
ATOM      4  C   UNL     1      -3.852  -5.946   1.133  0.00  0.00    +0.168 A 
ATOM      5  C   UNL     1      -2.957  -6.738   0.418  0.00  0.00    +0.180 A 
ATOM      6  C   UNL     1      -2.011  -6.142  -0.401  0.00  0.00    +0.064 A 
ATOM      7  C   UNL     1      -1.962  -4.764  -0.512  0.00  0.00    +0.024 A 
ATOM      8 BR   UNL     1      -0.793  -7.213  -1.374  0.00  0.00    -0.046 Br
ATOM      9  O   UNL     1      -3.217  -8.050   0.695  0.00  0.00    -0.451 OA
ATOM     10  C   UNL     1      -4.010  -8.039   1.897  0.00  0.00    +0.466 C 
ATOM     11  O   UNL     1      -4.673  -6.761   1.857  0.00  0.00    -0.453 OA
ENDBRANCH   1   2
BRANCH   1  15
ATOM     12  C   UNL     1       0.308   1.334  -0.285  0.00  0.00    +0.039 C 
ATOM     13  C   UNL     1       0.194  -0.190  -0.208  0.00  0.00    +0.130 C 
ATOM     14  C   UNL     1      -1.282  -0.588  -0.110  0.00  0.00    +0.116 C 
ATOM     15  N   UNL     1      -1.381  -2.047   0.042  0.00  0.00    -0.292 NA
ATOM     16  C   UNL     1      -0.657  -2.497   1.240  0.00  0.00    +0.116 C 
ATOM     17  C   UNL     1       0.811  -2.080   1.129  0.00  0.00    +0.130 C 
ATOM     18  O   UNL     1       0.888  -0.663   0.950  0.00  0.00    -0.371 OA
ATOM     19  C   UNL     1       1.452  -2.781  -0.071  0.00  0.00    +0.039 C 
ENDBRANCH   1  15
BRANCH   1  20
ATOM     20  C   UNL     1      -3.490  -2.038  -1.203  0.00  0.00    -0.063 C 
BRANCH  20  21
ATOM     21  N   UNL     1      -4.914  -2.393  -1.125  0.00  0.00    +0.379 N 
ATOM     22  H   UNL     1      -5.339  -1.908  -0.349  0.00  0.00    -0.090 HD
ATOM     23  H   UNL     1      -5.375  -2.124  -1.982  0.00  0.00    -0.090 HD
ATOM     24  H   UNL     1      -5.006  -3.388  -0.992  0.00  0.00    -0.090 HD
ENDBRANCH  20  21
ENDBRANCH   1  20
TORSDOF 4
