REMARK  Name = ZINC06556820
REMARK  6 active torsions:
REMARK  status: ('A' for Active; 'I' for Inactive)
REMARK    1  A    between atoms: C_1  and  C_2
REMARK    2  A    between atoms: C_5  and  C_8
REMARK    3  A    between atoms: N_14  and  N_15
REMARK    4  A    between atoms: C_16  and  C_17
REMARK    5  A    between atoms: C_20  and  O_24
REMARK    6  A    between atoms: C_21  and  O_23
REMARK                            x       y       z     vdW  Elec       q    Type
REMARK                         _______ _______ _______ _____ _____    ______ ____
ROOT
ATOM      1  C   UNL     1      -2.503   1.006   0.019  0.00  0.00    +0.184 A 
ATOM      2  N   UNL     1      -2.638  -0.263   0.286  0.00  0.00    -0.152 NA
ATOM      3  N   UNL     1      -3.998  -0.587   0.180  0.00  0.00    -0.253 N 
ATOM      4  H   UNL     1      -4.392  -1.462   0.325  0.00  0.00    +0.191 HD
ATOM      5  C   UNL     1      -4.658   0.538  -0.160  0.00  0.00    +0.197 A 
ATOM      6  S   UNL     1      -6.345   0.682  -0.415  0.00  0.00    -0.010 S 
ATOM      7  N   UNL     1      -3.751   1.531  -0.258  0.00  0.00    -0.188 N 
ENDROOT
BRANCH   1  12
ATOM      8  C   UNL     1       2.452   3.933  -0.001  0.00  0.00    +0.044 C 
ATOM      9  C   UNL     1       1.155   3.167   0.008  0.00  0.00    -0.050 A 
ATOM     10  C   UNL     1       1.172   1.783   0.000  0.00  0.00    +0.004 A 
ATOM     11  C   UNL     1      -0.013   1.076   0.008  0.00  0.00    +0.012 A 
ATOM     12  C   UNL     1      -1.229   1.758   0.017  0.00  0.00    +0.021 A 
ATOM     13  C   UNL     1      -1.240   3.153   0.030  0.00  0.00    +0.012 A 
ATOM     14  C   UNL     1      -0.048   3.849   0.023  0.00  0.00    +0.004 A 
ENDBRANCH   1  12
BRANCH   7  15
ATOM     15  N   UNL     1      -4.026   2.865  -0.586  0.00  0.00    -0.171 NA
ATOM     16  C   UNL     1      -4.013   3.243  -1.828  0.00  0.00    +0.141 C 
BRANCH  16  17
ATOM     17  C   UNL     1      -4.303   4.646  -2.174  0.00  0.00    -0.002 A 
ATOM     18  C   UNL     1      -4.597   5.570  -1.167  0.00  0.00    +0.013 A 
ATOM     19  C   UNL     1      -4.862   6.883  -1.492  0.00  0.00    +0.050 A 
ATOM     20  C   UNL     1      -4.849   7.289  -2.819  0.00  0.00    +0.158 A 
ATOM     21  C   UNL     1      -4.562   6.373  -3.829  0.00  0.00    +0.159 A 
ATOM     22  C   UNL     1      -4.289   5.056  -3.510  0.00  0.00    +0.058 A 
BRANCH  21  23
ATOM     23  O   UNL     1      -4.549   6.775  -5.128  0.00  0.00    -0.503 OA
ATOM     24  H   UNL     1      -5.404   6.697  -5.572  0.00  0.00    +0.292 HD
ENDBRANCH  21  23
BRANCH  20  25
ATOM     25  O   UNL     1      -5.117   8.584  -3.135  0.00  0.00    -0.503 OA
ATOM     26  H   UNL     1      -6.054   8.764  -3.294  0.00  0.00    +0.292 HD
ENDBRANCH  20  25
ENDBRANCH  16  17
ENDBRANCH   7  15
TORSDOF 5
