REMARK  Name = ZINC40687348
REMARK  2 active torsions:
REMARK  status: ('A' for Active; 'I' for Inactive)
REMARK    1  A    between atoms: C_11  and  N_26
REMARK    2  A    between atoms: C_12  and  N_16
REMARK                            x       y       z     vdW  Elec       q    Type
REMARK                         _______ _______ _______ _____ _____    ______ ____
ROOT
ATOM      1  C   UNL     1       0.953  -1.690  -3.279  0.00  0.00    +0.000 A 
ATOM      2  C   UNL     1       2.244  -1.303  -3.591  0.00  0.00    +0.002 A 
ATOM      3  C   UNL     1       3.142  -1.010  -2.588  0.00  0.00    +0.024 A 
ATOM      4  C   UNL     1       2.757  -1.102  -1.249  0.00  0.00    +0.038 A 
ATOM      5  C   UNL     1       1.462  -1.490  -0.947  0.00  0.00    -0.025 A 
ATOM      6  C   UNL     1       0.564  -1.783  -1.956  0.00  0.00    +0.005 A 
ATOM      7  C   UNL     1       1.304  -1.509   0.557  0.00  0.00    +0.056 C 
ATOM      8  C   UNL     1       2.679  -1.081   1.095  0.00  0.00    +0.117 C 
ATOM      9  N   UNL     1       3.503  -0.853  -0.095  0.00  0.00    -0.284 N 
ATOM     10  C   UNL     1       4.833  -0.448  -0.077  0.00  0.00    +0.129 A 
ATOM     11  C   UNL     1       5.163   0.907  -0.144  0.00  0.00    +0.104 A 
ATOM     12  C   UNL     1       6.514   1.258  -0.123  0.00  0.00    +0.150 A 
ATOM     13  N   UNL     1       7.429   0.295  -0.041  0.00  0.00    -0.221 NA
ATOM     14  C   UNL     1       7.075  -0.972   0.020  0.00  0.00    +0.200 A 
ATOM     15  N   UNL     1       5.811  -1.346   0.009  0.00  0.00    -0.332 N 
ATOM     16  H   UNL     1       5.591  -2.290   0.059  0.00  0.00    +0.168 HD
ENDROOT
BRANCH  12  17
ATOM     17  N   UNL     1       6.898   2.594  -0.187  0.00  0.00    -0.277 N 
ATOM     18  C   UNL     1       8.238   2.930  -0.166  0.00  0.00    +0.165 A 
ATOM     19  N   UNL     1       9.284   2.139  -0.095  0.00  0.00    -0.225 NA
ATOM     20  C   UNL     1      10.550   2.610  -0.082  0.00  0.00    +0.080 A 
ATOM     21  C   UNL     1      11.755   1.873  -0.009  0.00  0.00    +0.029 A 
ATOM     22  C   UNL     1      12.967   2.512  -0.006  0.00  0.00    +0.002 A 
ATOM     23  C   UNL     1      13.058   3.895  -0.074  0.00  0.00    +0.001 A 
ATOM     24  C   UNL     1      11.900   4.647  -0.147  0.00  0.00    +0.017 A 
ATOM     25  C   UNL     1      10.681   4.016  -0.150  0.00  0.00    +0.041 A 
ATOM     26  S   UNL     1       8.989   4.550  -0.235  0.00  0.00    -0.052 S 
ATOM     27  H   UNL     1       6.224   3.290  -0.247  0.00  0.00    +0.156 HD
ENDBRANCH  12  17
BRANCH  11  28
ATOM     28  N   UNL     1       4.164   1.889  -0.230  0.00  0.00    -0.353 N 
ATOM     29  H   UNL     1       3.230   1.639  -0.151  0.00  0.00    +0.143 HD
ATOM     30  H   UNL     1       4.408   2.818  -0.368  0.00  0.00    +0.143 HD
ENDBRANCH  11  28
TORSDOF 2
