REMARK  Name = ZINC57124947
REMARK  6 active torsions:
REMARK  status: ('A' for Active; 'I' for Inactive)
REMARK    1  A    between atoms: C_1  and  C_2
REMARK    2  A    between atoms: C_5  and  S_9
REMARK    3  A    between atoms: C_6  and  C_8
REMARK    4  A    between atoms: S_9  and  N_12
REMARK    5  A    between atoms: N_12  and  N_13
REMARK    6  A    between atoms: N_16  and  C_17
REMARK                            x       y       z     vdW  Elec       q    Type
REMARK                         _______ _______ _______ _____ _____    ______ ____
ROOT
ATOM      1  N   UNL     1       1.136  -5.248   0.333  0.00  0.00    -0.107 NA
ATOM      2  H   UNL     1       1.821  -5.749  -0.137  0.00  0.00    +0.172 HD
ENDROOT
BRANCH   1   3
ATOM      3  N   UNL     1       1.222  -5.078   1.721  0.00  0.00    -0.216 N 
ATOM      4  C   UNL     1       1.328  -6.153   2.527  0.00  0.00    +0.315 C 
ATOM      5  O   UNL     1       1.402  -6.005   3.731  0.00  0.00    -0.251 OA
ATOM      6  N   UNL     1       1.351  -7.392   1.997  0.00  0.00    -0.294 N 
ATOM      7  H   UNL     1       1.206  -4.186   2.102  0.00  0.00    +0.172 HD
ATOM      8  H   UNL     1       1.291  -7.510   1.036  0.00  0.00    +0.151 HD
BRANCH   6   9
ATOM      9  C   UNL     1       1.465  -8.561   2.873  0.00  0.00    +0.097 C 
ATOM     10  C   UNL     1       0.067  -8.968   3.366  0.00  0.00    +0.046 C 
ATOM     11  C   UNL     1       0.176 -10.373   4.024  0.00  0.00    +0.168 C 
ATOM     12  S   UNL     1       1.323 -11.208   2.849  0.00  0.00    -0.029 S 
ATOM     13  O   UNL     1       0.560 -11.886   1.861  0.00  0.00    -0.174 OA
ATOM     14  O   UNL     1       2.303 -11.924   3.589  0.00  0.00    -0.174 OA
ATOM     15  C   UNL     1       2.108  -9.730   2.088  0.00  0.00    +0.188 C 
ENDBRANCH   6   9
ENDBRANCH   1   3
BRANCH   1  16
ATOM     16  S   UNL     1      -0.134  -4.594  -0.504  0.00  0.00    +0.074 S 
ATOM     17  O   UNL     1      -1.319  -5.099   0.096  0.00  0.00    -0.152 OA
ATOM     18  O   UNL     1       0.156  -4.770  -1.884  0.00  0.00    -0.152 OA
BRANCH  16  23
ATOM     19  C   UNL     1      -0.077   1.350   0.528  0.00  0.00    +0.044 C 
ATOM     20  C   UNL     1      -0.091  -0.134   0.270  0.00  0.00    -0.050 A 
ATOM     21  C   UNL     1      -1.151  -0.903   0.714  0.00  0.00    +0.005 A 
ATOM     22  C   UNL     1      -1.165  -2.264   0.477  0.00  0.00    +0.029 A 
ATOM     23  C   UNL     1      -0.118  -2.858  -0.204  0.00  0.00    +0.110 A 
ATOM     24  C   UNL     1       0.942  -2.090  -0.647  0.00  0.00    -0.024 A 
ATOM     25  C   UNL     1       0.953  -0.727  -0.414  0.00  0.00    +0.008 A 
ATOM     26  C   UNL     1       2.084  -2.737  -1.389  0.00  0.00    +0.046 C 
ENDBRANCH  16  23
ENDBRANCH   1  16
TORSDOF 4
