REMARK  Name = ZINC13048665
REMARK  11 active torsions:
REMARK  status: ('A' for Active; 'I' for Inactive)
REMARK    1  A    between atoms: C_1  and  C_2
REMARK    2  A    between atoms: C_5  and  C_30
REMARK    3  A    between atoms: C_6  and  N_8
REMARK    4  A    between atoms: C_9  and  C_11
REMARK    5  A    between atoms: C_11  and  S_12
REMARK    6  A    between atoms: S_12  and  C_13
REMARK    7  A    between atoms: C_17  and  C_28
REMARK    8  A    between atoms: N_23  and  C_24
REMARK    9  A    between atoms: C_24  and  C_25
REMARK   10  A    between atoms: C_25  and  C_26
REMARK   11  A    between atoms: C_25  and  C_27
REMARK                            x       y       z     vdW  Elec       q    Type
REMARK                         _______ _______ _______ _____ _____    ______ ____
ROOT
ATOM      1  C   UNL     1       1.627  -2.722  -0.779  0.00  0.00    +0.173 A 
ATOM      2  N   UNL     1       1.617  -4.032  -0.801  0.00  0.00    -0.223 NA
ATOM      3  C   UNL     1       0.630  -4.722  -1.419  0.00  0.00    +0.080 A 
ATOM      4  C   UNL     1       0.624  -6.120  -1.446  0.00  0.00    +0.043 A 
ATOM      5  C   UNL     1      -0.410  -6.786  -2.091  0.00  0.00    +0.065 A 
ATOM      6  C   UNL     1      -1.441  -6.067  -2.710  0.00  0.00    +0.016 A 
ATOM      7  C   UNL     1      -1.446  -4.702  -2.690  0.00  0.00    +0.016 A 
ATOM      8  C   UNL     1      -0.417  -4.013  -2.048  0.00  0.00    +0.065 A 
ATOM      9  C   UNL     1      -0.384  -2.542  -2.002  0.00  0.00    +0.262 A 
ATOM     10  O   UNL     1      -1.257  -1.875  -2.526  0.00  0.00    -0.267 OA
ATOM     11  N   UNL     1       0.652  -1.959  -1.356  0.00  0.00    -0.287 N 
ENDROOT
BRANCH   5  12
ATOM     12  C   UNL     1      -0.423  -8.265  -2.125  0.00  0.00    +0.387 C 
ATOM     13  O   UNL     1       0.468  -8.892  -1.589  0.00  0.00    -0.241 OA
ATOM     14  O   UNL     1      -1.424  -8.916  -2.749  0.00  0.00    -0.241 OA
ENDBRANCH   5  12
BRANCH   1  15
ATOM     15  S   UNL     1       2.956  -1.905   0.042  0.00  0.00    -0.078 S 
BRANCH  15  16
ATOM     16  C   UNL     1       3.911  -3.339   0.596  0.00  0.00    +0.173 C 
BRANCH  16  18
ATOM     17  N   UNL     1       5.997  -3.770   1.854  0.00  0.00    -0.285 N 
ATOM     18  C   UNL     1       5.132  -2.871   1.345  0.00  0.00    +0.227 C 
ATOM     19  O   UNL     1       5.336  -1.684   1.490  0.00  0.00    -0.275 OA
ATOM     20  H   UNL     1       5.794  -4.718   1.809  0.00  0.00    +0.155 HD
BRANCH  17  26
ATOM     21  C   UNL     1       9.511  -0.361   2.292  0.00  0.00    +0.044 C 
ATOM     22  C   UNL     1       8.913  -1.689   2.679  0.00  0.00    -0.049 A 
ATOM     23  C   UNL     1       9.543  -2.482   3.621  0.00  0.00    +0.004 A 
ATOM     24  C   UNL     1       8.998  -3.701   3.978  0.00  0.00    +0.005 A 
ATOM     25  C   UNL     1       7.822  -4.131   3.394  0.00  0.00    -0.029 A 
ATOM     26  C   UNL     1       7.188  -3.337   2.447  0.00  0.00    +0.037 A 
ATOM     27  C   UNL     1       7.741  -2.115   2.087  0.00  0.00    +0.027 A 
ATOM     28  C   UNL     1       7.228  -5.461   3.783  0.00  0.00    +0.045 C 
ENDBRANCH  17  26
ENDBRANCH  16  18
ENDBRANCH  15  16
ENDBRANCH   1  15
BRANCH  11  29
ATOM     29  C   UNL     1       0.733  -0.498  -1.282  0.00  0.00    +0.130 C 
BRANCH  29  30
ATOM     30  C   UNL     1       0.007  -0.011  -0.026  0.00  0.00    +0.003 C 
ATOM     31  C   UNL     1      -0.018   1.519  -0.013  0.00  0.00    +0.009 C 
ATOM     32  C   UNL     1       0.739  -0.520   1.216  0.00  0.00    +0.009 C 
ENDBRANCH  29  30
ENDBRANCH  11  29
TORSDOF 7
