REMARK  Name = ZINC31702103
REMARK  6 active torsions:
REMARK  status: ('A' for Active; 'I' for Inactive)
REMARK    1  A    between atoms: C_1  and  C_2
REMARK    2  A    between atoms: C_2  and  C_4
REMARK    3  A    between atoms: C_2  and  O_17
REMARK    4  A    between atoms: N_6  and  C_7
REMARK    5  A    between atoms: C_11  and  N_13
REMARK    6  A    between atoms: O_17  and  C_18
REMARK                            x       y       z     vdW  Elec       q    Type
REMARK                         _______ _______ _______ _____ _____    ______ ____
ROOT
ATOM      1  C   UNL     1       4.625   4.160   0.632  0.00  0.00    +0.258 C 
ATOM      2  O   UNL     1       5.474   3.473   1.159  0.00  0.00    -0.271 OA
ATOM      3  N   UNL     1       4.773   5.499   0.587  0.00  0.00    -0.282 N 
ATOM      4  H   UNL     1       3.965   6.129   0.187  0.00  0.00    +0.155 HD
ENDROOT
BRANCH   3   5
ATOM      5  C   UNL     1       5.957   6.088   1.048  0.00  0.00    +0.036 A 
ATOM      6  C   UNL     1       5.923   7.343   1.642  0.00  0.00    +0.026 A 
ATOM      7  C   UNL     1       7.090   7.920   2.102  0.00  0.00    +0.042 A 
ATOM      8  C   UNL     1       8.296   7.253   1.960  0.00  0.00    +0.154 A 
ATOM      9  C   UNL     1       8.333   6.004   1.363  0.00  0.00    +0.163 A 
ATOM     10  C   UNL     1       7.166   5.421   0.907  0.00  0.00    +0.059 A 
ATOM     11  F   UNL     1       9.438   7.821   2.405  0.00  0.00    -0.203 F 
BRANCH   9  12
ATOM     12  N   UNL     1       9.622   5.293   1.214  0.00  0.00    +0.059 N 
ATOM     13  O   UNL     1       9.655   4.194   0.690  0.00  0.00    -0.126 OA
ATOM     14  O   UNL     1      10.651   5.807   1.616  0.00  0.00    -0.126 OA
ENDBRANCH   9  12
ENDBRANCH   3   5
BRANCH   1  16
ATOM     15  C   UNL     1       3.404   3.740  -1.485  0.00  0.00    +0.062 C 
ATOM     16  C   UNL     1       3.403   3.517   0.029  0.00  0.00    +0.256 C 
BRANCH  16  17
ATOM     17  O   UNL     1       3.418   2.114   0.303  0.00  0.00    -0.478 OA
BRANCH  17  18
ATOM     18  C   UNL     1       2.220   1.473   0.308  0.00  0.00    +0.141 A 
ATOM     19  C   UNL     1       1.067   2.152  -0.059  0.00  0.00    +0.047 A 
ATOM     20  C   UNL     1      -0.150   1.499  -0.054  0.00  0.00    +0.005 A 
ATOM     21  C   UNL     1      -0.222   0.169   0.316  0.00  0.00    +0.022 A 
ATOM     22  C   UNL     1       0.926  -0.512   0.682  0.00  0.00    +0.063 A 
ATOM     23  C   UNL     1       2.147   0.138   0.679  0.00  0.00    +0.101 A 
ATOM     24 CL   UNL     1       3.587  -0.716   1.140  0.00  0.00    -0.078 Cl
ATOM     25 CL   UNL     1       0.833  -2.182   1.147  0.00  0.00    -0.082 Cl
ENDBRANCH  17  18
ENDBRANCH  16  17
ENDBRANCH   1  16
TORSDOF 5
