REMARK  Name = ZINC50098771
REMARK  9 active torsions:
REMARK  status: ('A' for Active; 'I' for Inactive)
REMARK    1  A    between atoms: C_1  and  C_2
REMARK    2  A    between atoms: C_2  and  C_4
REMARK    3  A    between atoms: C_2  and  N_10
REMARK    4  A    between atoms: C_4  and  C_5
REMARK    5  A    between atoms: N_13  and  C_14
REMARK    6  A    between atoms: C_16  and  C_22
REMARK    7  A    between atoms: C_16  and  C_23
REMARK    8  A    between atoms: C_18  and  C_20
REMARK    9  A    between atoms: C_18  and  C_21
REMARK                            x       y       z     vdW  Elec       q    Type
REMARK                         _______ _______ _______ _____ _____    ______ ____
ROOT
ATOM      1  N   UNL     1      -1.370  -0.185  -0.112  0.00  0.00    -0.297 N 
ATOM      2  C   UNL     1      -2.055  -0.280  -1.268  0.00  0.00    +0.300 C 
ATOM      3  O   UNL     1      -1.551   0.103  -2.306  0.00  0.00    -0.253 OA
ATOM      4  N   UNL     1      -3.299  -0.799  -1.274  0.00  0.00    -0.297 N 
ATOM      5  H   UNL     1      -1.772  -0.491   0.717  0.00  0.00    +0.151 HD
ATOM      6  H   UNL     1      -3.701  -1.105  -0.446  0.00  0.00    +0.151 HD
ENDROOT
BRANCH   4   7
ATOM      7  C   UNL     1      -4.045  -0.902  -2.535  0.00  0.00    +0.072 C 
ATOM      8  C   UNL     1      -4.788   0.411  -2.788  0.00  0.00    +0.009 C 
ATOM      9  C   UNL     1      -5.580   0.316  -4.091  0.00  0.00    -0.072 C 
ATOM     10  N   UNL     1      -6.466  -0.839  -4.110  0.00  0.00    +0.386 N 
ATOM     11  C   UNL     1      -5.918  -2.118  -3.688  0.00  0.00    -0.072 C 
ATOM     12  C   UNL     1      -5.078  -2.022  -2.418  0.00  0.00    +0.009 C 
ATOM     13  C   UNL     1      -5.106  -2.783  -4.802  0.00  0.00    -0.010 C 
ATOM     14  C   UNL     1      -7.111  -3.054  -3.378  0.00  0.00    -0.010 C 
ATOM     15  C   UNL     1      -4.632   0.333  -5.289  0.00  0.00    -0.010 C 
ATOM     16  C   UNL     1      -6.462   1.582  -4.185  0.00  0.00    -0.010 C 
ATOM     17  H   UNL     1      -7.280  -0.629  -3.526  0.00  0.00    -0.084 HD
ATOM     18  H   UNL     1      -6.836  -0.944  -5.058  0.00  0.00    -0.084 HD
ENDBRANCH   4   7
BRANCH   1  20
ATOM     19  C   UNL     1      -0.102   1.904  -0.009  0.00  0.00    +0.028 C 
ATOM     20  C   UNL     1      -0.018   0.379  -0.105  0.00  0.00    +0.076 C 
BRANCH  20  21
ATOM     21  C   UNL     1       0.756  -0.165   1.097  0.00  0.00    +0.057 C 
BRANCH  21  22
ATOM     22  C   UNL     1       0.946  -1.652   0.941  0.00  0.00    -0.039 A 
ATOM     23  C   UNL     1       0.005  -2.535   1.438  0.00  0.00    +0.011 A 
ATOM     24  C   UNL     1       0.206  -3.866   1.281  0.00  0.00    +0.045 A 
ATOM     25  S   UNL     1       1.763  -3.904   0.408  0.00  0.00    -0.105 S 
ATOM     26  C   UNL     1       2.038  -2.143   0.307  0.00  0.00    +0.049 A 
ENDBRANCH  21  22
ENDBRANCH  20  21
ENDBRANCH   1  20
TORSDOF 4
