REMARK  Name = ZINC14394966
REMARK  9 active torsions:
REMARK  status: ('A' for Active; 'I' for Inactive)
REMARK    1  A    between atoms: C_1  and  C_2
REMARK    2  A    between atoms: C_6  and  N_9
REMARK    3  A    between atoms: C_7  and  C_8
REMARK    4  A    between atoms: C_10  and  C_12
REMARK    5  A    between atoms: C_12  and  N_13
REMARK    6  A    between atoms: C_14  and  C_16
REMARK    7  A    between atoms: C_16  and  C_17
REMARK    8  A    between atoms: C_17  and  C_18
REMARK    9  A    between atoms: C_19  and  C_28
REMARK                            x       y       z     vdW  Elec       q    Type
REMARK                         _______ _______ _______ _____ _____    ______ ____
ROOT
ATOM      1  N   UNL     1       1.139   2.193   0.019  0.00  0.00    -0.307 N 
ATOM      2  C   UNL     1      -0.019   1.503   0.037  0.00  0.00    +0.214 C 
ATOM      3  O   UNL     1      -1.077   2.095   0.053  0.00  0.00    -0.276 OA
ATOM      4  H   UNL     1       1.985   1.719   0.003  0.00  0.00    +0.149 HD
ENDROOT
BRANCH   1   5
ATOM      5  C   UNL     1       1.119   3.658   0.026  0.00  0.00    +0.200 C 
BRANCH   5   7
ATOM      6  N   UNL     1       2.762   5.507   0.005  0.00  0.00    -0.284 N 
ATOM      7  C   UNL     1       2.533   4.179   0.004  0.00  0.00    +0.234 C 
ATOM      8  O   UNL     1       3.465   3.403  -0.016  0.00  0.00    -0.274 OA
ATOM      9  H   UNL     1       2.019   6.127  -0.060  0.00  0.00    +0.155 HD
BRANCH   6  15
ATOM     10  C   UNL     1       6.021   9.090  -0.839  0.00  0.00    +0.044 C 
ATOM     11  C   UNL     1       5.678   7.725  -0.300  0.00  0.00    -0.046 A 
ATOM     12  C   UNL     1       6.660   6.950   0.291  0.00  0.00    +0.004 A 
ATOM     13  C   UNL     1       6.350   5.697   0.786  0.00  0.00    +0.002 A 
ATOM     14  C   UNL     1       5.058   5.216   0.693  0.00  0.00    +0.023 A 
ATOM     15  C   UNL     1       4.071   5.992   0.101  0.00  0.00    +0.037 A 
ATOM     16  C   UNL     1       4.387   7.248  -0.401  0.00  0.00    -0.026 A 
ATOM     17  C   UNL     1       3.320   8.090  -1.051  0.00  0.00    +0.046 C 
ENDBRANCH   6  15
ENDBRANCH   5   7
ENDBRANCH   1   5
BRANCH   2  18
ATOM     18  C   UNL     1       0.001  -0.004   0.030  0.00  0.00    +0.100 C 
BRANCH  18  19
ATOM     19  C   UNL     1      -1.434  -0.533   0.053  0.00  0.00    +0.051 C 
BRANCH  19  20
ATOM     20  C   UNL     1      -1.414  -2.040   0.046  0.00  0.00    +0.036 A 
ATOM     21  C   UNL     1      -1.480  -2.730   1.204  0.00  0.00    +0.026 A 
ATOM     22  N   UNL     1      -1.466  -4.098   1.180  0.00  0.00    -0.311 N 
ATOM     23  H   UNL     1      -1.522  -4.610   2.037  0.00  0.00    +0.170 HD
ATOM     24  C   UNL     1      -1.376  -4.762   0.013  0.00  0.00    +0.327 A 
ATOM     25  O   UNL     1      -1.360  -5.977   0.014  0.00  0.00    -0.247 OA
ATOM     26  N   UNL     1      -1.303  -4.098  -1.156  0.00  0.00    -0.275 N 
ATOM     27  H   UNL     1      -1.237  -4.608  -2.014  0.00  0.00    +0.173 HD
ATOM     28  C   UNL     1      -1.319  -2.750  -1.175  0.00  0.00    +0.257 A 
ATOM     29  O   UNL     1      -1.254  -2.150  -2.232  0.00  0.00    -0.267 OA
ATOM     30  C   UNL     1      -1.575  -1.998   2.518  0.00  0.00    +0.064 C 
ENDBRANCH  19  20
ENDBRANCH  18  19
ENDBRANCH   2  18
TORSDOF 6
