REMARK  Name = ZINC63746521
REMARK  6 active torsions:
REMARK  status: ('A' for Active; 'I' for Inactive)
REMARK    1  A    between atoms: C_1  and  C_2
REMARK    2  A    between atoms: C_2  and  C_3
REMARK    3  A    between atoms: C_2  and  N_4
REMARK    4  A    between atoms: N_7  and  C_8
REMARK    5  A    between atoms: C_13  and  C_26
REMARK    6  A    between atoms: C_14  and  C_18
REMARK                            x       y       z     vdW  Elec       q    Type
REMARK                         _______ _______ _______ _____ _____    ______ ____
ROOT
ATOM      1  C   UNL     1      -3.365  -3.051  -0.734  0.00  0.00    +0.058 A 
ATOM      2  C   UNL     1      -2.213  -3.617  -1.184  0.00  0.00    +0.025 A 
ATOM      3  C   UNL     1      -2.211  -4.832  -1.876  0.00  0.00    +0.003 A 
ATOM      4  C   UNL     1      -3.347  -5.519  -2.140  0.00  0.00    +0.010 A 
ATOM      5  C   UNL     1      -4.601  -5.018  -1.715  0.00  0.00    +0.006 A 
ATOM      6  C   UNL     1      -5.894  -5.496  -1.842  0.00  0.00    -0.000 C 
ATOM      7  C   UNL     1      -6.777  -4.473  -1.162  0.00  0.00    +0.198 C 
ATOM      8  N   UNL     1      -5.877  -3.427  -0.666  0.00  0.00    -0.368 N 
ATOM      9  C   UNL     1      -4.642  -3.740  -0.976  0.00  0.00    +0.065 A 
ATOM     10  H   UNL     1      -6.151  -2.632  -0.183  0.00  0.00    +0.161 HD
ENDROOT
BRANCH   7  11
ATOM     11  C   UNL     1      -7.517  -5.110  -0.013  0.00  0.00    +0.243 C 
ATOM     12  O   UNL     1      -7.009  -5.151   1.087  0.00  0.00    -0.273 OA
ATOM     13  N   UNL     1      -8.744  -5.633  -0.209  0.00  0.00    -0.295 N 
ATOM     14  C   UNL     1      -9.331  -5.703  -1.557  0.00  0.00    +0.136 C 
ATOM     15  C   UNL     1      -9.827  -7.134  -1.794  0.00  0.00    +0.179 C 
ATOM     16  O   UNL     1     -10.675  -7.524  -0.711  0.00  0.00    -0.377 OA
ATOM     17  C   UNL     1     -10.022  -7.559   0.560  0.00  0.00    +0.179 C 
ATOM     18  C   UNL     1      -9.534  -6.155   0.917  0.00  0.00    +0.136 C 
ENDBRANCH   7  11
BRANCH   1  22
ATOM     19  N   UNL     1      -2.149  -0.232   1.169  0.00  0.00    -0.297 N 
ATOM     20  C   UNL     1      -2.215  -1.451   0.598  0.00  0.00    +0.304 C 
ATOM     21  O   UNL     1      -1.263  -2.205   0.663  0.00  0.00    -0.253 OA
ATOM     22  N   UNL     1      -3.335  -1.834  -0.046  0.00  0.00    -0.268 N 
ATOM     23  H   UNL     1      -2.908   0.369   1.117  0.00  0.00    +0.151 HD
ATOM     24  H   UNL     1      -4.121  -1.266  -0.031  0.00  0.00    +0.156 HD
BRANCH  19  26
ATOM     25  C   UNL     1      -0.842   1.712   1.872  0.00  0.00    +0.027 C 
ATOM     26  C   UNL     1      -0.931   0.184   1.869  0.00  0.00    +0.068 C 
ATOM     27  C   UNL     1      -0.970  -0.328   3.310  0.00  0.00    +0.027 C 
ENDBRANCH  19  26
ENDBRANCH   1  22
BRANCH   6  28
ATOM     28  C   UNL     1      -6.318  -6.733  -2.500  0.00  0.00    -0.019 A 
ATOM     29  C   UNL     1      -7.073  -6.682  -3.681  0.00  0.00    +0.008 A 
ATOM     30  C   UNL     1      -7.468  -7.852  -4.293  0.00  0.00    +0.001 A 
ATOM     31  C   UNL     1      -7.121  -9.075  -3.745  0.00  0.00    +0.000 A 
ATOM     32  C   UNL     1      -6.376  -9.136  -2.579  0.00  0.00    +0.001 A 
ATOM     33  C   UNL     1      -5.967  -7.977  -1.956  0.00  0.00    +0.008 A 
ENDBRANCH   6  28
TORSDOF 4
