REMARK  Name = ZINC04086379
REMARK  5 active torsions:
REMARK  status: ('A' for Active; 'I' for Inactive)
REMARK    1  A    between atoms: C_1  and  C_2
REMARK    2  A    between atoms: C_18  and  C_20
REMARK    3  A    between atoms: C_20  and  N_57
REMARK    4  A    between atoms: C_21  and  C_22
REMARK    5  A    between atoms: C_21  and  N_57
REMARK                            x       y       z     vdW  Elec       q    Type
REMARK                         _______ _______ _______ _____ _____    ______ ____
ROOT
ATOM      1  C   UNL     1       8.024   2.893  -7.033  0.00  0.00    +0.011 C 
ATOM      2  C   UNL     1       8.079   3.599  -5.677  0.00  0.00    -0.023 C 
ATOM      3  C   UNL     1       9.332   4.469  -5.611  0.00  0.00    +0.007 C 
ATOM      4  C   UNL     1      10.566   3.614  -5.909  0.00  0.00    +0.003 C 
ATOM      5  C   UNL     1      10.708   2.525  -4.842  0.00  0.00    +0.037 C 
ATOM      6  C   UNL     1       9.414   1.712  -4.777  0.00  0.00    +0.096 C 
ATOM      7  C   UNL     1       8.139   2.538  -4.569  0.00  0.00    +0.030 C 
ATOM      8  C   UNL     1       8.241   3.264  -3.225  0.00  0.00    +0.014 C 
ATOM      9  C   UNL     1       7.079   4.193  -2.994  0.00  0.00    +0.042 C 
ATOM     10  C   UNL     1       6.829   5.177  -4.155  0.00  0.00    +0.181 C 
ATOM     11  C   UNL     1       6.826   4.442  -5.496  0.00  0.00    +0.052 C 
ATOM     12  O   UNL     1       5.424   5.560  -3.898  0.00  0.00    -0.461 OA
ATOM     13  C   UNL     1       4.754   4.430  -3.568  0.00  0.00    +0.309 C 
ATOM     14  O   UNL     1       3.579   4.224  -3.761  0.00  0.00    -0.251 OA
ATOM     15  C   UNL     1       5.726   3.462  -2.913  0.00  0.00    +0.087 C 
ATOM     16  C   UNL     1       9.470   0.317  -4.159  0.00  0.00    +0.196 C 
ATOM     17  O   UNL     1       9.322   0.528  -5.565  0.00  0.00    -0.368 OA
ENDROOT
BRANCH  15  18
ATOM     18  C   UNL     1       5.335   3.211  -1.455  0.00  0.00    -0.067 C 
BRANCH  18  19
ATOM     19  N   UNL     1       4.072   2.451  -1.417  0.00  0.00    +0.382 N 
ATOM     20  H   UNL     1       4.201   1.556  -1.902  0.00  0.00    -0.085 HD
ATOM     21  H   UNL     1       3.337   2.993  -1.887  0.00  0.00    -0.085 HD
BRANCH  19  22
ATOM     22  C   UNL     1       3.671   2.195  -0.021  0.00  0.00    -0.047 C 
BRANCH  22  23
ATOM     23  C   UNL     1       2.379   1.418  -0.013  0.00  0.00    -0.061 A 
ATOM     24  C   UNL     1       1.171   2.089   0.002  0.00  0.00    +0.005 A 
ATOM     25  C   UNL     1      -0.017   1.381   0.010  0.00  0.00    +0.050 A 
ATOM     26  C   UNL     1       0.002  -0.004   0.002  0.00  0.00    +0.166 A 
ATOM     27  C   UNL     1       1.220  -0.680  -0.013  0.00  0.00    +0.166 A 
ATOM     28  C   UNL     1       2.405   0.036  -0.020  0.00  0.00    +0.051 A 
ATOM     29  O   UNL     1       0.973  -2.023  -0.019  0.00  0.00    -0.453 OA
ATOM     30  C   UNL     1      -0.396  -2.164   0.405  0.00  0.00    +0.466 C 
ATOM     31  O   UNL     1      -1.007  -0.923   0.006  0.00  0.00    -0.453 OA
ENDBRANCH  22  23
ENDBRANCH  19  22
ENDBRANCH  18  19
ENDBRANCH  15  18
TORSDOF 4
