REMARK  Name = ZINC00076387
REMARK  4 active torsions:
REMARK  status: ('A' for Active; 'I' for Inactive)
REMARK    1  A    between atoms: C_6  and  C_7
REMARK    2  A    between atoms: C_10  and  C_21
REMARK    3  A    between atoms: C_16  and  N_20
REMARK    4  A    between atoms: C_17  and  C_18
REMARK                            x       y       z     vdW  Elec       q    Type
REMARK                         _______ _______ _______ _____ _____    ______ ____
ROOT
ATOM      1  C   UNL     1      -1.293  -0.775   0.010  0.00  0.00    +0.102 C 
ATOM      2  C   UNL     1      -1.372  -1.649  -1.215  0.00  0.00    +0.058 A 
ATOM      3  C   UNL     1      -1.583  -1.289  -2.539  0.00  0.00    +0.173 A 
ATOM      4  N   UNL     1      -1.573  -2.383  -3.264  0.00  0.00    -0.167 NA
ATOM      5  N   UNL     1      -1.354  -3.477  -2.413  0.00  0.00    -0.246 N 
ATOM      6  H   UNL     1      -1.298  -4.408  -2.682  0.00  0.00    +0.192 HD
ATOM      7  C   UNL     1      -1.234  -3.008  -1.161  0.00  0.00    +0.223 A 
ATOM      8  O   UNL     1      -1.018  -3.677  -0.002  0.00  0.00    -0.423 OA
ATOM      9  C   UNL     1      -1.212  -3.006   1.152  0.00  0.00    +0.200 C 
ATOM     10  C   UNL     1      -1.349  -1.663   1.228  0.00  0.00    +0.098 C 
ENDROOT
BRANCH   1  16
ATOM     11  C   UNL     1      -0.017   1.378   0.010  0.00  0.00    +0.007 A 
ATOM     12  C   UNL     1       1.170   2.086   0.002  0.00  0.00    +0.038 A 
ATOM     13  C   UNL     1       2.379   1.410  -0.013  0.00  0.00    +0.123 A 
ATOM     14  C   UNL     1       2.396   0.026  -0.021  0.00  0.00    +0.038 A 
ATOM     15  C   UNL     1       1.208  -0.680  -0.013  0.00  0.00    +0.007 A 
ATOM     16  C   UNL     1       0.002  -0.004   0.002  0.00  0.00    -0.034 A 
ATOM     17  F   UNL     1       3.540   2.101  -0.021  0.00  0.00    -0.205 F 
ENDBRANCH   1  16
BRANCH   3  18
ATOM     18  C   UNL     1      -1.788   0.112  -3.054  0.00  0.00    +0.436 C 
ATOM     19  F   UNL     1      -0.550   0.673  -3.386  0.00  0.00    -0.164 F 
ATOM     20  F   UNL     1      -2.604   0.077  -4.190  0.00  0.00    -0.164 F 
ATOM     21  F   UNL     1      -2.401   0.887  -2.063  0.00  0.00    -0.164 F 
ENDBRANCH   3  18
BRANCH   9  22
ATOM     22  N   UNL     1      -1.274  -3.729   2.317  0.00  0.00    -0.328 N 
ATOM     23  H   UNL     1      -1.178  -4.694   2.295  0.00  0.00    +0.145 HD
ATOM     24  H   UNL     1      -1.412  -3.274   3.163  0.00  0.00    +0.145 HD
ENDBRANCH   9  22
BRANCH  10  25
ATOM     25  C   UNL     1      -1.556  -1.061   2.511  0.00  0.00    +0.101 C 
ATOM     26  N   UNL     1      -1.719  -0.584   3.529  0.00  0.00    -0.191 NA
ENDBRANCH  10  25
TORSDOF 4
