REMARK  Name = ZINC59804170
REMARK  6 active torsions:
REMARK  status: ('A' for Active; 'I' for Inactive)
REMARK    1  A    between atoms: C_1  and  C_2
REMARK    2  A    between atoms: C_9  and  C_11
REMARK    3  A    between atoms: C_11  and  S_12
REMARK    4  A    between atoms: S_12  and  C_13
REMARK    5  A    between atoms: C_16  and  C_19
REMARK    6  A    between atoms: N_17  and  N_18
REMARK                            x       y       z     vdW  Elec       q    Type
REMARK                         _______ _______ _______ _____ _____    ______ ____
ROOT
ATOM      1  C   UNL     1      -1.417  -7.701   3.358  0.00  0.00    +0.209 A 
ATOM      2  N   UNL     1      -0.280  -8.280   3.672  0.00  0.00    -0.121 NA
ATOM      3  N   UNL     1      -0.503  -9.400   4.261  0.00  0.00    -0.127 NA
ATOM      4  C   UNL     1      -1.796  -9.605   4.360  0.00  0.00    +0.182 A 
ATOM      5  N   UNL     1      -2.421  -8.521   3.789  0.00  0.00    -0.224 N 
ENDROOT
BRANCH   4   6
ATOM      6  C   UNL     1      -2.455 -10.777   4.973  0.00  0.00    +0.021 A 
ATOM      7  C   UNL     1      -3.807 -11.025   4.733  0.00  0.00    +0.014 A 
ATOM      8  C   UNL     1      -4.417 -12.121   5.308  0.00  0.00    +0.039 A 
ATOM      9  C   UNL     1      -3.690 -12.975   6.122  0.00  0.00    +0.123 A 
ATOM     10  C   UNL     1      -2.347 -12.733   6.363  0.00  0.00    +0.039 A 
ATOM     11  C   UNL     1      -1.726 -11.644   5.790  0.00  0.00    +0.014 A 
ATOM     12  F   UNL     1      -4.292 -14.046   6.682  0.00  0.00    -0.205 F 
ENDBRANCH   4   6
BRANCH   5  13
ATOM     13  N   UNL     1      -3.766  -8.309   3.675  0.00  0.00    -0.295 N 
ATOM     14  H   UNL     1      -4.120  -8.693   2.812  0.00  0.00    +0.163 HD
ATOM     15  H   UNL     1      -4.260  -8.688   4.469  0.00  0.00    +0.163 HD
ENDBRANCH   5  13
BRANCH   1  16
ATOM     16  S   UNL     1      -1.611  -6.152   2.541  0.00  0.00    -0.077 S 
BRANCH  16  17
ATOM     17  C   UNL     1       0.090  -5.594   2.249  0.00  0.00    +0.151 C 
BRANCH  17  26
ATOM     18  C   UNL     1      -0.018   1.503   0.010  0.00  0.00    +0.044 C 
ATOM     19  C   UNL     1       0.002  -0.004   0.002  0.00  0.00    -0.048 A 
ATOM     20  C   UNL     1       0.006  -0.687  -1.206  0.00  0.00    +0.005 A 
ATOM     21  C   UNL     1       0.024  -2.052  -1.235  0.00  0.00    +0.030 A 
ATOM     22  C   UNL     1       0.040  -2.774  -0.039  0.00  0.00    +0.089 A 
ATOM     23  C   UNL     1       0.037  -2.083   1.185  0.00  0.00    +0.066 A 
ATOM     24  C   UNL     1       0.023  -0.695   1.195  0.00  0.00    +0.031 A 
ATOM     25  N   UNL     1       0.055  -3.051   2.169  0.00  0.00    -0.341 N 
ATOM     26  C   UNL     1       0.068  -4.261   1.546  0.00  0.00    +0.118 A 
ATOM     27  N   UNL     1       0.059  -4.099   0.255  0.00  0.00    -0.232 NA
ATOM     28  H   UNL     1       0.058  -2.898   3.127  0.00  0.00    +0.167 HD
ENDBRANCH  17  26
ENDBRANCH  16  17
ENDBRANCH   1  16
TORSDOF 5
