REMARK  Name = ZINC13623302
REMARK  8 active torsions:
REMARK  status: ('A' for Active; 'I' for Inactive)
REMARK    1  A    between atoms: C_4  and  C_7
REMARK    2  A    between atoms: C_7  and  N_8
REMARK    3  A    between atoms: C_10  and  C_15
REMARK    4  A    between atoms: N_17  and  N_18
REMARK    5  A    between atoms: C_19  and  C_21
REMARK    6  A    between atoms: C_24  and  O_28
REMARK    7  A    between atoms: O_28  and  C_29
REMARK    8  A    between atoms: C_29  and  C_30
REMARK                            x       y       z     vdW  Elec       q    Type
REMARK                         _______ _______ _______ _____ _____    ______ ____
ROOT
ATOM      1  N   UNL     1       0.934   0.443   7.263  0.00  0.00    -0.230 N 
ATOM      2  C   UNL     1       1.516   0.042   6.115  0.00  0.00    +0.260 C 
ATOM      3  O   UNL     1       2.518  -0.646   6.149  0.00  0.00    -0.269 OA
ATOM      4  H   UNL     1       0.135   0.993   7.236  0.00  0.00    +0.173 HD
ENDROOT
BRANCH   2   5
ATOM      5  C   UNL     1       0.937   0.439   4.817  0.00  0.00    +0.039 A 
ATOM      6  C   UNL     1       1.539   0.024   3.625  0.00  0.00    +0.017 A 
ATOM      7  C   UNL     1       0.996   0.396   2.416  0.00  0.00    +0.047 A 
ATOM      8  C   UNL     1      -0.149   1.183   2.378  0.00  0.00    +0.135 A 
ATOM      9  C   UNL     1      -0.748   1.602   3.561  0.00  0.00    +0.060 A 
ATOM     10  C   UNL     1      -0.214   1.230   4.775  0.00  0.00    +0.032 A 
ATOM     11 BR   UNL     1      -2.301   2.679   3.503  0.00  0.00    -0.046 Br
BRANCH   8  12
ATOM     12  O   UNL     1      -0.682   1.547   1.184  0.00  0.00    -0.488 OA
BRANCH  12  13
ATOM     13  C   UNL     1      -0.013   1.086   0.008  0.00  0.00    +0.260 C 
BRANCH  13  14
ATOM     14  C   UNL     1      -0.753   1.593  -1.232  0.00  0.00    +0.156 C 
ATOM     15  C   UNL     1       0.025   1.201  -2.503  0.00  0.00    +0.037 C 
ATOM     16  C   UNL     1      -0.982   0.352  -3.317  0.00  0.00    +0.031 C 
ATOM     17  C   UNL     1      -2.340   0.796  -2.717  0.00  0.00    +0.160 C 
ATOM     18  O   UNL     1      -2.049   0.977  -1.313  0.00  0.00    -0.373 OA
ENDBRANCH  13  14
ENDBRANCH  12  13
ENDBRANCH   8  12
ENDBRANCH   2   5
BRANCH   1  21
ATOM     19  C   UNL     1       0.902   0.468   9.643  0.00  0.00    +0.234 C 
ATOM     20  O   UNL     1      -0.097   1.154   9.609  0.00  0.00    -0.274 OA
ATOM     21  N   UNL     1       1.484   0.067   8.495  0.00  0.00    -0.234 N 
ATOM     22  H   UNL     1       2.283  -0.482   8.523  0.00  0.00    +0.173 HD
BRANCH  19  25
ATOM     23  N   UNL     1       1.642   0.982  13.178  0.00  0.00    -0.296 N 
ATOM     24  C   UNL     1       0.665   0.633  12.141  0.00  0.00    +0.121 C 
ATOM     25  C   UNL     1       1.493   0.063  10.969  0.00  0.00    +0.102 C 
ATOM     26  C   UNL     1       2.865   0.740  11.193  0.00  0.00    +0.110 C 
ATOM     27  C   UNL     1       2.886   1.055  12.673  0.00  0.00    +0.217 C 
ATOM     28  O   UNL     1       3.880   1.332  13.310  0.00  0.00    -0.276 OA
BRANCH  23  29
ATOM     29  C   UNL     1       1.306   1.222  14.584  0.00  0.00    +0.142 C 
BRANCH  29  33
ATOM     30  C   UNL     1       1.529  -2.455  16.748  0.00  0.00    +0.000 A 
ATOM     31  C   UNL     1       2.647  -1.649  16.637  0.00  0.00    +0.000 A 
ATOM     32  C   UNL     1       2.575  -0.459  15.937  0.00  0.00    +0.005 A 
ATOM     33  C   UNL     1       1.385  -0.075  15.347  0.00  0.00    -0.030 A 
ATOM     34  C   UNL     1       0.266  -0.879  15.462  0.00  0.00    +0.005 A 
ATOM     35  C   UNL     1       0.339  -2.071  16.159  0.00  0.00    +0.000 A 
ENDBRANCH  29  33
ENDBRANCH  23  29
ENDBRANCH  19  25
ENDBRANCH   1  21
TORSDOF 8
