REMARK  Name = ZINC36051592
REMARK  11 active torsions:
REMARK  status: ('A' for Active; 'I' for Inactive)
REMARK    1  A    between atoms: C_1  and  C_2
REMARK    2  A    between atoms: C_2  and  C_3
REMARK    3  A    between atoms: C_2  and  C_4
REMARK    4  A    between atoms: C_2  and  C_5
REMARK    5  A    between atoms: C_11  and  C_19
REMARK    6  A    between atoms: C_13  and  C_17
REMARK    7  A    between atoms: C_14  and  N_16
REMARK    8  A    between atoms: C_21  and  N_28
REMARK    9  A    between atoms: C_22  and  O_27
REMARK   10  A    between atoms: C_23  and  O_25
REMARK   11  A    between atoms: O_25  and  C_26
REMARK                            x       y       z     vdW  Elec       q    Type
REMARK                         _______ _______ _______ _____ _____    ______ ____
ROOT
ATOM      1  C   UNL     1       0.711  -0.499  -1.200  0.00  0.00    +0.059 C 
ATOM      2  N   UNL     1       1.301   0.247  -2.078  0.00  0.00    -0.154 NA
ATOM      3  N   UNL     1       1.884  -0.496  -3.104  0.00  0.00    -0.115 NA
ATOM      4  C   UNL     1       1.744  -1.758  -2.924  0.00  0.00    +0.227 C 
ATOM      5  C   UNL     1       0.878  -1.922  -1.676  0.00  0.00    +0.136 C 
ATOM      6  C   UNL     1       1.720  -2.743  -0.693  0.00  0.00    +0.082 C 
ATOM      7  C   UNL     1       2.404  -3.853  -1.447  0.00  0.00    +0.095 C 
ATOM      8  C   UNL     1       2.617  -3.851  -2.779  0.00  0.00    +0.200 C 
ATOM      9  O   UNL     1       2.210  -2.836  -3.590  0.00  0.00    -0.425 OA
ENDROOT
BRANCH   6  10
ATOM     10  C   UNL     1       2.754  -1.855  -0.050  0.00  0.00    -0.032 A 
ATOM     11  C   UNL     1       3.636  -1.140  -0.838  0.00  0.00    +0.041 A 
ATOM     12  C   UNL     1       4.586  -0.324  -0.252  0.00  0.00    +0.171 A 
ATOM     13  C   UNL     1       4.655  -0.221   1.128  0.00  0.00    +0.189 A 
ATOM     14  C   UNL     1       3.767  -0.941   1.921  0.00  0.00    +0.164 A 
ATOM     15  C   UNL     1       2.814  -1.754   1.328  0.00  0.00    +0.053 A 
BRANCH  12  16
ATOM     16  N   UNL     1       5.529   0.440  -1.100  0.00  0.00    +0.060 N 
ATOM     17  O   UNL     1       5.468   0.351  -2.304  0.00  0.00    -0.126 OA
ATOM     18  O   UNL     1       6.359   1.154  -0.588  0.00  0.00    -0.126 OA
ENDBRANCH  12  16
BRANCH  14  19
ATOM     19  O   UNL     1       3.832  -0.844   3.276  0.00  0.00    -0.491 OA
ATOM     20  C   UNL     1       2.889  -1.612   4.027  0.00  0.00    +0.277 C 
ENDBRANCH  14  19
BRANCH  13  21
ATOM     21  O   UNL     1       5.589   0.581   1.705  0.00  0.00    -0.502 OA
ATOM     22  H   UNL     1       5.292   1.489   1.851  0.00  0.00    +0.292 HD
ENDBRANCH  13  21
ENDBRANCH   6  10
BRANCH   1  24
ATOM     23  C   UNL     1      -1.242   0.761  -0.334  0.00  0.00    +0.017 C 
ATOM     24  C   UNL     1       0.004  -0.041   0.050  0.00  0.00    +0.003 C 
ATOM     25  C   UNL     1       0.945   0.842   0.873  0.00  0.00    +0.017 C 
ATOM     26  C   UNL     1      -0.408  -1.258   0.879  0.00  0.00    +0.017 C 
ENDBRANCH   1  24
BRANCH   8  27
ATOM     27  N   UNL     1       3.266  -4.922  -3.342  0.00  0.00    -0.328 N 
ATOM     28  H   UNL     1       3.561  -5.658  -2.784  0.00  0.00    +0.145 HD
ATOM     29  H   UNL     1       3.430  -4.941  -4.298  0.00  0.00    +0.145 HD
ENDBRANCH   8  27
BRANCH   7  30
ATOM     30  C   UNL     1       2.859  -4.987  -0.699  0.00  0.00    +0.100 C 
ATOM     31  N   UNL     1       3.220  -5.886  -0.106  0.00  0.00    -0.191 NA
ENDBRANCH   7  30
TORSDOF 7
