REMARK  Name = ZINC24749465
REMARK  12 active torsions:
REMARK  status: ('A' for Active; 'I' for Inactive)
REMARK    1  A    between atoms: C_1  and  C_2
REMARK    2  A    between atoms: C_5  and  O_36
REMARK    3  A    between atoms: C_10  and  C_11
REMARK    4  A    between atoms: C_11  and  O_13
REMARK    5  A    between atoms: O_13  and  C_14
REMARK    6  A    between atoms: C_14  and  C_15
REMARK    7  A    between atoms: N_17  and  C_18
REMARK    8  A    between atoms: N_17  and  C_19
REMARK    9  A    between atoms: C_20  and  N_35
REMARK   10  A    between atoms: N_21  and  C_28
REMARK   11  A    between atoms: C_28  and  C_29
REMARK   12  A    between atoms: O_36  and  C_37
REMARK                            x       y       z     vdW  Elec       q    Type
REMARK                         _______ _______ _______ _____ _____    ______ ____
ROOT
ATOM      1  C   UNL     1       0.016  -2.029   5.806  0.00  0.00    +0.257 C 
ATOM      2  O   UNL     1       0.023  -3.187   5.445  0.00  0.00    -0.272 OA
ATOM      3  N   UNL     1       0.053  -1.732   7.122  0.00  0.00    -0.265 N 
ATOM      4  C   UNL     1       0.146  -0.337   7.557  0.00  0.00    +0.138 C 
ENDROOT
BRANCH   3   5
ATOM      5  C   UNL     1       0.002  -2.767   8.080  0.00  0.00    +0.139 A 
ATOM      6  C   UNL     1       1.038  -3.671   8.193  0.00  0.00    +0.128 A 
ATOM      7  N   UNL     1       0.960  -4.669   9.137  0.00  0.00    -0.276 N 
ATOM      8  C   UNL     1      -0.116  -4.763   9.940  0.00  0.00    +0.331 A 
ATOM      9  O   UNL     1      -0.166  -5.652  10.768  0.00  0.00    -0.246 OA
ATOM     10  N   UNL     1      -1.135  -3.891   9.845  0.00  0.00    -0.273 N 
ATOM     11  H   UNL     1      -1.899  -3.979  10.436  0.00  0.00    +0.173 HD
ATOM     12  C   UNL     1      -1.105  -2.892   8.941  0.00  0.00    +0.277 A 
ATOM     13  O   UNL     1      -2.033  -2.104   8.866  0.00  0.00    -0.266 OA
BRANCH   6  14
ATOM     14  N   UNL     1       2.136  -3.576   7.372  0.00  0.00    -0.343 N 
ATOM     15  H   UNL     1       2.158  -2.910   6.667  0.00  0.00    +0.144 HD
ATOM     16  H   UNL     1       2.889  -4.174   7.498  0.00  0.00    +0.144 HD
ENDBRANCH   6  14
BRANCH   7  17
ATOM     17  C   UNL     1       2.053  -5.635   9.267  0.00  0.00    +0.163 C 
BRANCH  17  18
ATOM     18  C   UNL     1       3.063  -5.120  10.260  0.00  0.00    -0.028 A 
ATOM     19  C   UNL     1       4.113  -4.331   9.831  0.00  0.00    +0.005 A 
ATOM     20  C   UNL     1       5.040  -3.859  10.741  0.00  0.00    +0.000 A 
ATOM     21  C   UNL     1       4.916  -4.175  12.081  0.00  0.00    +0.000 A 
ATOM     22  C   UNL     1       3.865  -4.964  12.510  0.00  0.00    +0.000 A 
ATOM     23  C   UNL     1       2.936  -5.433  11.601  0.00  0.00    +0.005 A 
ENDBRANCH  17  18
ENDBRANCH   7  17
ENDBRANCH   3   5
BRANCH   1  24
ATOM     24  C   UNL     1      -0.034  -0.921   4.786  0.00  0.00    +0.328 C 
BRANCH  24  25
ATOM     25  O   UNL     1      -0.067  -1.484   3.473  0.00  0.00    -0.450 OA
BRANCH  25  26
ATOM     26  C   UNL     1      -0.113  -0.621   2.438  0.00  0.00    +0.376 C 
ATOM     27  O   UNL     1      -0.126   0.577   2.645  0.00  0.00    -0.241 OA
BRANCH  26  37
ATOM     28  C   UNL     1      -0.223   1.150  -0.117  0.00  0.00    +0.048 C 
ATOM     29  C   UNL     1      -0.197  -0.355  -0.057  0.00  0.00    +0.010 A 
ATOM     30  C   UNL     1      -0.211  -1.281  -1.189  0.00  0.00    +0.027 A 
ATOM     31  C   UNL     1      -0.250  -1.119  -2.576  0.00  0.00    +0.057 A 
ATOM     32  C   UNL     1      -0.253  -2.233  -3.392  0.00  0.00    +0.121 A 
ATOM     33  C   UNL     1      -0.218  -3.509  -2.834  0.00  0.00    +0.049 A 
ATOM     34  C   UNL     1      -0.179  -3.679  -1.468  0.00  0.00    +0.050 A 
ATOM     35  C   UNL     1      -0.174  -2.571  -0.628  0.00  0.00    +0.136 A 
ATOM     36  O   UNL     1      -0.142  -2.432   0.712  0.00  0.00    -0.448 OA
ATOM     37  C   UNL     1      -0.149  -1.128   1.060  0.00  0.00    +0.216 A 
BRANCH  32  38
ATOM     38  O   UNL     1      -0.292  -2.084  -4.742  0.00  0.00    -0.495 OA
ATOM     39  C   UNL     1      -0.293  -3.279  -5.527  0.00  0.00    +0.277 C 
ENDBRANCH  32  38
ENDBRANCH  26  37
ENDBRANCH  25  26
ENDBRANCH  24  25
ENDBRANCH   1  24
TORSDOF 9
