REMARK  Name = ZINC33171881
REMARK  7 active torsions:
REMARK  status: ('A' for Active; 'I' for Inactive)
REMARK    1  A    between atoms: C_5  and  C_7
REMARK    2  A    between atoms: C_7  and  N_8
REMARK    3  A    between atoms: C_9  and  C_11
REMARK    4  A    between atoms: C_12  and  N_25
REMARK    5  A    between atoms: C_13  and  C_16
REMARK    6  A    between atoms: N_18  and  C_19
REMARK    7  A    between atoms: C_19  and  C_20
REMARK                            x       y       z     vdW  Elec       q    Type
REMARK                         _______ _______ _______ _____ _____    ______ ____
ROOT
ATOM      1  C   UNL     1       1.120   3.625   0.011  0.00  0.00    +0.156 A 
ATOM      2  C   UNL     1       2.314   4.346   0.009  0.00  0.00    +0.076 A 
ATOM      3  C   UNL     1       2.105   5.726   0.013  0.00  0.00    +0.115 A 
ATOM      4  S   UNL     1       0.326   5.810   0.031  0.00  0.00    +0.019 S 
ATOM      5  N   UNL     1      -0.023   4.274   0.026  0.00  0.00    -0.203 NA
ENDROOT
BRANCH   1   7
ATOM      6  N   UNL     1      -0.018   1.461   0.010  0.00  0.00    -0.306 N 
ATOM      7  C   UNL     1       1.140   2.151   0.003  0.00  0.00    +0.265 C 
ATOM      8  O   UNL     1       2.201   1.557  -0.011  0.00  0.00    -0.268 OA
ATOM      9  H   UNL     1      -0.978   1.998   0.022  0.00  0.00    +0.149 HD
BRANCH   6  10
ATOM     10  C   UNL     1       0.002  -0.004   0.002  0.00  0.00    +0.141 C 
BRANCH  10  15
ATOM     11  C   UNL     1      -3.273  -1.446   1.204  0.00  0.00    +0.000 A 
ATOM     12  C   UNL     1      -4.006  -1.484   0.032  0.00  0.00    +0.001 A 
ATOM     13  C   UNL     1      -3.442  -1.043  -1.150  0.00  0.00    +0.020 A 
ATOM     14  C   UNL     1      -2.144  -0.564  -1.160  0.00  0.00    +0.046 A 
ATOM     15  C   UNL     1      -1.412  -0.526   0.013  0.00  0.00    -0.012 A 
ATOM     16  C   UNL     1      -1.975  -0.972   1.194  0.00  0.00    +0.006 A 
ATOM     17 CL   UNL     1      -1.435  -0.010  -2.645  0.00  0.00    -0.083 Cl
ENDBRANCH  10  15
ENDBRANCH   6  10
ENDBRANCH   1   7
BRANCH   3  18
ATOM     18  C   UNL     1       3.086   6.814   0.010  0.00  0.00    +0.254 C 
ATOM     19  O   UNL     1       4.276   6.559  -0.003  0.00  0.00    -0.270 OA
ATOM     20  N   UNL     1       2.670   8.096   0.021  0.00  0.00    -0.306 N 
ATOM     21  H   UNL     1       1.595   8.325   0.032  0.00  0.00    +0.149 HD
BRANCH  20  22
ATOM     22  C   UNL     1       3.652   9.184   0.017  0.00  0.00    +0.147 C 
BRANCH  22  23
ATOM     23  C   UNL     1       2.933  10.508   0.031  0.00  0.00    +0.007 A 
ATOM     24  C   UNL     1       2.531  11.250   1.092  0.00  0.00    +0.013 A 
ATOM     25  C   UNL     1       1.884  12.450   0.864  0.00  0.00    +0.008 A 
ATOM     26  C   UNL     1       1.661  12.845  -0.413  0.00  0.00    +0.045 A 
ATOM     27  S   UNL     1       2.383  11.504  -1.345  0.00  0.00    -0.100 S 
ENDBRANCH  22  23
ENDBRANCH  20  22
ENDBRANCH   3  18
BRANCH   2  28
ATOM     28  N   UNL     1       3.571   3.756  -0.001  0.00  0.00    -0.355 N 
ATOM     29  H   UNL     1       4.474   4.385  -0.002  0.00  0.00    +0.142 HD
ATOM     30  H   UNL     1       3.665   2.660  -0.007  0.00  0.00    +0.142 HD
ENDBRANCH   2  28
TORSDOF 7
