REMARK  Name = ZINC09705654
REMARK  9 active torsions:
REMARK  status: ('A' for Active; 'I' for Inactive)
REMARK    1  A    between atoms: C_1  and  C_2
REMARK    2  A    between atoms: C_2  and  CA_3
REMARK    3  A    between atoms: CA_3  and  C_5
REMARK    4  A    between atoms: CA_3  and  N_7
REMARK    5  A    between atoms: C_5  and  O_6
REMARK    6  A    between atoms: C_8  and  C_10
REMARK    7  A    between atoms: N_12  and  C_13
REMARK    8  A    between atoms: C_21  and  C_22
REMARK    9  A    between atoms: N_24  and  C_25
REMARK                            x       y       z     vdW  Elec       q    Type
REMARK                         _______ _______ _______ _____ _____    ______ ____
ROOT
ATOM      1  C   UNL     1       1.936  -4.665   3.741  0.00  0.00    +0.093 A 
ATOM      2  C   UNL     1       2.661  -5.525   4.684  0.00  0.00    +0.042 A 
ATOM      3  C   UNL     1       3.580  -5.286   5.707  0.00  0.00    +0.013 A 
ATOM      4  C   UNL     1       4.078  -6.334   6.429  0.00  0.00    +0.001 A 
ATOM      5  C   UNL     1       3.673  -7.632   6.154  0.00  0.00    +0.004 A 
ATOM      6  C   UNL     1       2.763  -7.888   5.151  0.00  0.00    +0.047 A 
ATOM      7  C   UNL     1       2.243  -6.837   4.404  0.00  0.00    +0.138 A 
ATOM      8  O   UNL     1       1.360  -6.780   3.387  0.00  0.00    -0.448 OA
ATOM      9  C   UNL     1       1.167  -5.505   2.983  0.00  0.00    +0.212 A 
ENDROOT
BRANCH   1  12
ATOM     10  C   UNL     1       2.341  -2.543   4.714  0.00  0.00    +0.303 C 
ATOM     11  O   UNL     1       2.489  -3.076   5.794  0.00  0.00    -0.265 OA
ATOM     12  N   UNL     1       2.019  -3.283   3.635  0.00  0.00    -0.274 N 
ATOM     13  H   UNL     1       1.845  -2.850   2.785  0.00  0.00    +0.155 HD
BRANCH  10  15
ATOM     14  N   UNL     1       2.839  -0.325   5.660  0.00  0.00    -0.303 N 
ATOM     15  C   UNL     1       2.517  -1.065   4.581  0.00  0.00    +0.300 C 
ATOM     16  O   UNL     1       2.369  -0.532   3.501  0.00  0.00    -0.265 OA
ATOM     17  H   UNL     1       2.957  -0.752   6.524  0.00  0.00    +0.150 HD
BRANCH  14  18
ATOM     18  CA  UNL     1       3.011   1.124   5.530  0.00  0.00    +0.098 C 
BRANCH  18  20
ATOM     19  C   UNL     1       1.286   1.592   7.276  0.00  0.00    +0.006 C 
ATOM     20  C   UNL     1       2.751   1.792   6.881  0.00  0.00    +0.021 C 
ENDBRANCH  18  20
BRANCH  18  21
ATOM     21  C   UNL     1       4.440   1.429   5.076  0.00  0.00    +0.178 C 
BRANCH  21  22
ATOM     22  O   UNL     1       5.358   1.030   6.095  0.00  0.00    -0.393 OA
ATOM     23  H   UNL     1       6.286   1.194   5.875  0.00  0.00    +0.209 HD
ENDBRANCH  21  22
ENDBRANCH  18  21
ENDBRANCH  14  18
ENDBRANCH  10  15
ENDBRANCH   1  12
BRANCH   9  24
ATOM     24  C   UNL     1       0.274  -5.088   1.903  0.00  0.00    +0.285 C 
ATOM     25  O   UNL     1       0.273  -3.930   1.528  0.00  0.00    -0.266 OA
ATOM     26  N   UNL     1      -0.547  -5.986   1.324  0.00  0.00    -0.279 N 
ATOM     27  H   UNL     1      -0.492  -6.923   1.568  0.00  0.00    +0.155 HD
BRANCH  26  28
ATOM     28  C   UNL     1      -1.480  -5.566   0.371  0.00  0.00    +0.036 A 
ATOM     29  C   UNL     1      -1.821  -6.403  -0.685  0.00  0.00    +0.023 A 
ATOM     30  C   UNL     1      -2.743  -5.987  -1.625  0.00  0.00    +0.005 A 
ATOM     31  C   UNL     1      -3.328  -4.738  -1.518  0.00  0.00    +0.038 A 
ATOM     32  C   UNL     1      -2.991  -3.901  -0.467  0.00  0.00    +0.125 A 
ATOM     33  C   UNL     1      -2.072  -4.315   0.480  0.00  0.00    +0.061 A 
ATOM     34  F   UNL     1      -3.565  -2.682  -0.364  0.00  0.00    -0.205 F 
ENDBRANCH  26  28
ENDBRANCH   9  24
TORSDOF 8
