REMARK  Name = ZINC33271709
REMARK  6 active torsions:
REMARK  status: ('A' for Active; 'I' for Inactive)
REMARK    1  A    between atoms: C_1  and  C_2
REMARK    2  A    between atoms: C_2  and  O_3
REMARK    3  A    between atoms: O_3  and  C_4
REMARK    4  A    between atoms: C_16  and  C_18
REMARK    5  A    between atoms: C_19  and  C_25
REMARK    6  A    between atoms: C_29  and  O_31
REMARK                            x       y       z     vdW  Elec       q    Type
REMARK                         _______ _______ _______ _____ _____    ______ ____
ROOT
ATOM      1  C   UNL     1      -7.788  -3.778  -4.098  0.00  0.00    +0.122 A 
ATOM      2  C   UNL     1      -7.499  -4.024  -2.760  0.00  0.00    +0.048 A 
ATOM      3  C   UNL     1      -6.612  -3.258  -2.070  0.00  0.00    +0.032 A 
ATOM      4  C   UNL     1      -5.948  -2.175  -2.693  0.00  0.00    +0.081 A 
ATOM      5  C   UNL     1      -6.262  -1.949  -4.053  0.00  0.00    +0.044 A 
ATOM      6  C   UNL     1      -7.157  -2.726  -4.745  0.00  0.00    +0.063 A 
ATOM      7  S   UNL     1      -5.247  -0.545  -4.447  0.00  0.00    -0.048 S 
ATOM      8  C   UNL     1      -4.496  -0.353  -2.836  0.00  0.00    +0.196 A 
ATOM      9  N   UNL     1      -5.043  -1.330  -2.154  0.00  0.00    -0.221 NA
ATOM     10  N   UNL     1      -3.563   0.589  -2.416  0.00  0.00    -0.193 N 
ATOM     11  C   UNL     1      -3.029   0.685  -1.179  0.00  0.00    +0.135 A 
ATOM     12  C   UNL     1      -2.140   1.727  -1.193  0.00  0.00    +0.023 A 
ATOM     13  C   UNL     1      -2.157   2.288  -2.462  0.00  0.00    +0.066 A 
ATOM     14  N   UNL     1      -3.007   1.613  -3.200  0.00  0.00    -0.168 NA
ATOM     15  C   UNL     1      -1.339   3.469  -2.916  0.00  0.00    +0.068 C 
ATOM     16  C   UNL     1      -1.332   2.114   0.020  0.00  0.00    +0.063 C 
ATOM     17  C   UNL     1      -2.129   1.729   1.271  0.00  0.00    +0.109 C 
ATOM     18  C   UNL     1      -2.732   0.360   1.132  0.00  0.00    +0.219 C 
ATOM     19  O   UNL     1      -2.759  -0.371   2.100  0.00  0.00    -0.275 OA
ATOM     20  N   UNL     1      -3.244  -0.082  -0.036  0.00  0.00    -0.270 N 
ATOM     21  H   UNL     1      -3.818  -1.018  -0.102  0.00  0.00    +0.156 HD
ENDROOT
BRANCH  16  22
ATOM     22  C   UNL     1      -0.017   1.379   0.010  0.00  0.00    -0.036 A 
ATOM     23  C   UNL     1       0.002  -0.004   0.002  0.00  0.00    +0.004 A 
ATOM     24  C   UNL     1       1.207  -0.681  -0.013  0.00  0.00    +0.004 A 
ATOM     25  C   UNL     1       2.396   0.022  -0.020  0.00  0.00    +0.045 A 
ATOM     26  C   UNL     1       2.380   1.409  -0.013  0.00  0.00    +0.117 A 
ATOM     27  C   UNL     1       1.169   2.087   0.002  0.00  0.00    +0.049 A 
BRANCH  26  28
ATOM     28  O   UNL     1       3.548   2.104  -0.019  0.00  0.00    -0.507 OA
ATOM     29  H   UNL     1       3.534   3.204  -0.013  0.00  0.00    +0.292 HD
ENDBRANCH  26  28
ENDBRANCH  16  22
BRANCH   1  30
ATOM     30  O   UNL     1      -8.680  -4.560  -4.764  0.00  0.00    -0.492 OA
BRANCH  30  32
ATOM     31  C   UNL     1     -10.253  -6.387  -4.936  0.00  0.00    +0.048 C 
ATOM     32  C   UNL     1      -9.287  -5.623  -4.027  0.00  0.00    +0.225 C 
ENDBRANCH  30  32
ENDBRANCH   1  30
TORSDOF 4
