REMARK  Name = ZINC19816271
REMARK  8 active torsions:
REMARK  status: ('A' for Active; 'I' for Inactive)
REMARK    1  A    between atoms: C_1  and  C_2
REMARK    2  A    between atoms: C_2  and  C_3
REMARK    3  A    between atoms: C_3  and  N_4
REMARK    4  A    between atoms: C_11  and  C_23
REMARK    5  A    between atoms: C_13  and  C_19
REMARK    6  A    between atoms: C_13  and  C_21
REMARK    7  A    between atoms: C_14  and  N_18
REMARK    8  A    between atoms: C_15  and  C_16
REMARK                            x       y       z     vdW  Elec       q    Type
REMARK                         _______ _______ _______ _____ _____    ______ ____
ROOT
ATOM      1  N   UNL     1       4.834   1.708  -3.157  0.00  0.00    -0.298 NA
ATOM      2  C   UNL     1       5.592   2.897  -3.584  0.00  0.00    +0.112 C 
ATOM      3  C   UNL     1       5.929   3.694  -2.348  0.00  0.00    -0.007 C 
ATOM      4  C   UNL     1       5.112   3.685  -1.328  0.00  0.00    -0.026 C 
ATOM      5  C   UNL     1       3.784   2.983  -1.322  0.00  0.00    +0.044 C 
ATOM      6  C   UNL     1       3.568   2.110  -2.538  0.00  0.00    +0.093 C 
ATOM      7  C   UNL     1       3.671   2.186  -0.021  0.00  0.00    +0.069 C 
ATOM      8  C   UNL     1       3.696   3.155   1.161  0.00  0.00    +0.188 C 
ATOM      9  C   UNL     1       4.852   4.106   1.075  0.00  0.00    +0.054 C 
ATOM     10  C   UNL     1       5.518   4.374  -0.077  0.00  0.00    +0.074 C 
ENDROOT
BRANCH   7  11
ATOM     11  C   UNL     1       2.378   1.413  -0.013  0.00  0.00    -0.021 A 
ATOM     12  C   UNL     1       1.183   2.063  -0.261  0.00  0.00    +0.005 A 
ATOM     13  C   UNL     1      -0.004   1.355  -0.254  0.00  0.00    +0.002 A 
ATOM     14  C   UNL     1       0.002  -0.004   0.002  0.00  0.00    +0.021 A 
ATOM     15  C   UNL     1       1.196  -0.655   0.250  0.00  0.00    +0.060 A 
ATOM     16  C   UNL     1       2.386   0.054   0.243  0.00  0.00    +0.063 A 
ATOM     17 CL   UNL     1       3.886  -0.762   0.555  0.00  0.00    -0.082 Cl
ATOM     18 CL   UNL     1       1.205  -2.361   0.572  0.00  0.00    -0.082 Cl
ENDBRANCH   7  11
BRANCH   9  19
ATOM     19  N   UNL     1       5.258   4.735   2.218  0.00  0.00    -0.358 N 
ATOM     20  H   UNL     1       6.104   5.438   2.188  0.00  0.00    +0.142 HD
ATOM     21  H   UNL     1       4.740   4.537   3.168  0.00  0.00    +0.142 HD
ENDBRANCH   9  19
BRANCH  10  22
ATOM     22  C   UNL     1       6.601   5.311  -0.087  0.00  0.00    +0.101 C 
ATOM     23  N   UNL     1       7.460   6.055  -0.094  0.00  0.00    -0.191 NA
ENDBRANCH  10  22
BRANCH   8  24
ATOM     24  C   UNL     1       2.442   3.927   1.175  0.00  0.00    +0.091 C 
ATOM     25  N   UNL     1       1.475   4.522   1.185  0.00  0.00    -0.194 NA
ENDBRANCH   8  24
BRANCH   8  26
ATOM     26  C   UNL     1       3.797   2.385   2.411  0.00  0.00    +0.091 C 
ATOM     27  N   UNL     1       3.875   1.791   3.376  0.00  0.00    -0.194 NA
ENDBRANCH   8  26
BRANCH   1  28
ATOM     28  C   UNL     1       4.602   0.797  -4.286  0.00  0.00    +0.084 C 
BRANCH  28  30
ATOM     29  C   UNL     1       5.695  -0.743  -5.922  0.00  0.00    +0.005 C 
ATOM     30  C   UNL     1       5.936   0.205  -4.746  0.00  0.00    +0.012 C 
ENDBRANCH  28  30
ENDBRANCH   1  28
TORSDOF 7
