REMARK  Name = ZINC04011478
REMARK  8 active torsions:
REMARK  status: ('A' for Active; 'I' for Inactive)
REMARK    1  A    between atoms: C_1  and  C_2
REMARK    2  A    between atoms: C_17  and  C_29
REMARK    3  A    between atoms: C_22  and  C_23
REMARK    4  A    between atoms: C_22  and  O_28
REMARK    5  A    between atoms: C_23  and  N_24
REMARK    6  A    between atoms: N_24  and  C_25
REMARK    7  A    between atoms: C_25  and  C_26
REMARK    8  A    between atoms: C_26  and  O_27
REMARK                            x       y       z     vdW  Elec       q    Type
REMARK                         _______ _______ _______ _____ _____    ______ ____
ROOT
ATOM      1  C   UNL     1      -0.019   1.521   0.010  0.00  0.00    +0.012 C 
ATOM      2  C   UNL     1       0.002  -0.004   0.002  0.00  0.00    -0.026 C 
ATOM      3  C   UNL     1      -1.435  -0.516   0.199  0.00  0.00    +0.007 C 
ATOM      4  C   UNL     1      -2.002  -0.030   1.530  0.00  0.00    +0.001 C 
ATOM      5  C   UNL     1      -1.127  -0.501   2.691  0.00  0.00    +0.000 C 
ATOM      6  C   UNL     1       0.308  -0.004   2.497  0.00  0.00    +0.004 C 
ATOM      7  C   UNL     1       0.846  -0.528   1.170  0.00  0.00    -0.005 C 
ATOM      8  C   UNL     1       2.307  -0.133   0.981  0.00  0.00    +0.004 C 
ATOM      9  C   UNL     1       2.841  -0.805  -0.285  0.00  0.00    +0.004 C 
ATOM     10  C   UNL     1       2.039  -0.363  -1.509  0.00  0.00    -0.004 C 
ATOM     11  C   UNL     1       0.552  -0.563  -1.300  0.00  0.00    -0.001 C 
ATOM     12  C   UNL     1      -0.240  -0.137  -2.526  0.00  0.00    +0.005 C 
ATOM     13  C   UNL     1       0.142   1.223  -3.068  0.00  0.00    +0.010 C 
ATOM     14  C   UNL     1       1.613   1.534  -3.134  0.00  0.00    -0.002 C 
ATOM     15  C   UNL     1       2.419   1.051  -1.920  0.00  0.00    +0.001 C 
ATOM     16  C   UNL     1       3.879   1.007  -2.454  0.00  0.00    +0.007 C 
ATOM     17  C   UNL     1       3.751   0.619  -3.938  0.00  0.00    +0.034 C 
ATOM     18  C   UNL     1       2.334   1.036  -4.385  0.00  0.00    +0.057 C 
ATOM     19  C   UNL     1       1.727   3.079  -3.150  0.00  0.00    +0.014 C 
ENDROOT
BRANCH  18  20
ATOM     20  O   UNL     1       2.441   2.114  -5.331  0.00  0.00    -0.390 OA
ATOM     21  H   UNL     1       2.890   1.872  -6.153  0.00  0.00    +0.210 HD
ENDBRANCH  18  20
BRANCH  18  22
ATOM     22  C   UNL     1       1.636  -0.146  -5.051  0.00  0.00    -0.047 C 
BRANCH  22  23
ATOM     23  N   UNL     1       2.456  -0.632  -6.169  0.00  0.00    +0.382 N 
ATOM     24  H   UNL     1       2.580   0.108  -6.843  0.00  0.00    -0.086 HD
ATOM     25  H   UNL     1       3.357  -0.926  -5.822  0.00  0.00    -0.086 HD
BRANCH  23  26
ATOM     26  C   UNL     1       1.783  -1.770  -6.810  0.00  0.00    -0.054 C 
BRANCH  26  27
ATOM     27  C   UNL     1       2.637  -2.277  -7.974  0.00  0.00    +0.137 C 
BRANCH  27  28
ATOM     28  O   UNL     1       3.867  -2.801  -7.470  0.00  0.00    -0.397 OA
ATOM     29  H   UNL     1       4.460  -3.141  -8.154  0.00  0.00    +0.209 HD
ENDBRANCH  27  28
ENDBRANCH  26  27
ENDBRANCH  23  26
ENDBRANCH  22  23
ENDBRANCH  18  22
TORSDOF 6
