REMARK  Name = ZINC21151953
REMARK  7 active torsions:
REMARK  status: ('A' for Active; 'I' for Inactive)
REMARK    1  A    between atoms: C_1  and  N_2
REMARK    2  A    between atoms: C_6  and  C_7
REMARK    3  A    between atoms: C_7  and  C_9
REMARK    4  A    between atoms: C_7  and  N_25
REMARK    5  A    between atoms: C_9  and  N_10
REMARK    6  A    between atoms: C_11  and  C_13
REMARK    7  A    between atoms: C_13  and  N_14
REMARK                            x       y       z     vdW  Elec       q    Type
REMARK                         _______ _______ _______ _____ _____    ______ ____
ROOT
ATOM      1  C   UNL     1      -4.346   4.371   3.097  0.00  0.00    +0.121 C 
ENDROOT
BRANCH   1   2
ATOM      2  N   UNL     1      -4.015   5.498   2.215  0.00  0.00    -0.288 NA
ATOM      3  C   UNL     1      -4.556   5.286   0.863  0.00  0.00    +0.090 C 
ATOM      4  C   UNL     1      -4.509   6.615   0.108  0.00  0.00    +0.051 C 
ATOM      5  C   UNL     1      -3.134   7.222   0.218  0.00  0.00    -0.042 A 
ATOM      6  C   UNL     1      -2.781   8.227  -0.669  0.00  0.00    +0.004 A 
ATOM      7  C   UNL     1      -1.533   8.813  -0.600  0.00  0.00    +0.000 A 
ATOM      8  C   UNL     1      -0.629   8.394   0.359  0.00  0.00    +0.000 A 
ATOM      9  C   UNL     1      -0.979   7.392   1.242  0.00  0.00    +0.005 A 
ATOM     10  C   UNL     1      -2.232   6.802   1.173  0.00  0.00    -0.030 A 
ATOM     11  C   UNL     1      -2.565   5.709   2.155  0.00  0.00    +0.120 C 
ENDBRANCH   1   2
BRANCH   1  17
ATOM     12  C   UNL     1      -4.690   2.561   5.591  0.00  0.00    +0.148 C 
ATOM     13  N   UNL     1      -4.253   3.959   5.619  0.00  0.00    -0.352 N 
ATOM     14  C   UNL     1      -3.933   4.669   6.738  0.00  0.00    +0.085 A 
ATOM     15  C   UNL     1      -3.579   5.915   6.361  0.00  0.00    +0.019 A 
ATOM     16  C   UNL     1      -3.678   5.974   4.957  0.00  0.00    +0.024 A 
ATOM     17  C   UNL     1      -4.098   4.765   4.530  0.00  0.00    +0.037 A 
ENDBRANCH   1  17
BRANCH   1  18
ATOM     18  C   UNL     1      -3.470   3.169   2.740  0.00  0.00    +0.129 C 
BRANCH  18  19
ATOM     19  N   UNL     1      -3.799   2.710   1.387  0.00  0.00    -0.312 N 
ATOM     20  C   UNL     1      -3.055   1.751   0.802  0.00  0.00    +0.231 C 
ATOM     21  O   UNL     1      -2.114   1.267   1.394  0.00  0.00    -0.274 OA
ATOM     22  H   UNL     1      -4.653   3.149   0.850  0.00  0.00    +0.149 HD
BRANCH  20  23
ATOM     23  C   UNL     1      -3.393   1.279  -0.589  0.00  0.00    +0.212 C 
BRANCH  23  24
ATOM     24  N   UNL     1      -2.444   0.241  -0.997  0.00  0.00    -0.225 N 
ATOM     25  C   UNL     1      -1.286   0.478  -1.639  0.00  0.00    +0.254 C 
ATOM     26  O   UNL     1      -0.867   1.570  -1.965  0.00  0.00    -0.270 OA
ATOM     27  C   UNL     1      -0.610  -0.814  -1.883  0.00  0.00    +0.049 A 
ATOM     28  C   UNL     1       0.581  -1.184  -2.488  0.00  0.00    +0.014 A 
ATOM     29  C   UNL     1       0.931  -2.523  -2.553  0.00  0.00    +0.001 A 
ATOM     30  C   UNL     1       0.101  -3.491  -2.020  0.00  0.00    +0.001 A 
ATOM     31  C   UNL     1      -1.093  -3.136  -1.412  0.00  0.00    +0.014 A 
ATOM     32  C   UNL     1      -1.456  -1.801  -1.339  0.00  0.00    +0.049 A 
ATOM     33  C   UNL     1      -2.618  -1.076  -0.783  0.00  0.00    +0.254 C 
ATOM     34  O   UNL     1      -3.570  -1.584  -0.225  0.00  0.00    -0.270 OA
ENDBRANCH  23  24
ENDBRANCH  20  23
ENDBRANCH  18  19
ENDBRANCH   1  18
TORSDOF 6
