REMARK  Name = ZINC17742012
REMARK  6 active torsions:
REMARK  status: ('A' for Active; 'I' for Inactive)
REMARK    1  A    between atoms: C_4  and  C_7
REMARK    2  A    between atoms: C_7  and  N_8
REMARK    3  A    between atoms: C_9  and  C_23
REMARK    4  A    between atoms: C_12  and  S_13
REMARK    5  A    between atoms: S_13  and  C_14
REMARK    6  A    between atoms: C_14  and  C_15
REMARK                            x       y       z     vdW  Elec       q    Type
REMARK                         _______ _______ _______ _____ _____    ______ ____
ROOT
ATOM      1  N   UNL     1       1.339   2.090   0.092  0.00  0.00    -0.314 N 
ATOM      2  C   UNL     1       2.082   2.213   1.253  0.00  0.00    +0.070 A 
ATOM      3  C   UNL     1       3.307   2.671   0.884  0.00  0.00    +0.140 A 
ATOM      4  N   UNL     1       3.312   2.830  -0.445  0.00  0.00    -0.230 NA
ATOM      5  C   UNL     1       2.141   2.486  -0.934  0.00  0.00    +0.170 A 
ENDROOT
BRANCH   2   6
ATOM      6  C   UNL     1       1.632   1.904   2.627  0.00  0.00    +0.000 A 
ATOM      7  C   UNL     1       0.447   1.195   2.833  0.00  0.00    +0.011 A 
ATOM      8  C   UNL     1       0.035   0.904   4.117  0.00  0.00    +0.020 A 
ATOM      9  C   UNL     1       0.787   1.325   5.200  0.00  0.00    +0.041 A 
ATOM     10  C   UNL     1       1.961   2.033   5.002  0.00  0.00    +0.020 A 
ATOM     11  C   UNL     1       2.386   2.325   3.723  0.00  0.00    +0.011 A 
ATOM     12 CL   UNL     1       0.258   0.962   6.813  0.00  0.00    -0.084 Cl
ENDBRANCH   2   6
BRANCH   1  13
ATOM     13  C   UNL     1      -0.047   1.627  -0.013  0.00  0.00    +0.159 C 
BRANCH  13  17
ATOM     14  C   UNL     1      -0.092  -2.498  -1.122  0.00  0.00    +0.000 A 
ATOM     15  C   UNL     1       0.113  -2.139   0.197  0.00  0.00    +0.000 A 
ATOM     16  C   UNL     1       0.128  -0.804   0.556  0.00  0.00    +0.005 A 
ATOM     17  C   UNL     1      -0.062   0.172  -0.404  0.00  0.00    -0.028 A 
ATOM     18  C   UNL     1      -0.273  -0.188  -1.722  0.00  0.00    +0.005 A 
ATOM     19  C   UNL     1      -0.282  -1.522  -2.082  0.00  0.00    +0.000 A 
ENDBRANCH  13  17
ENDBRANCH   1  13
BRANCH   5  20
ATOM     20  S   UNL     1       1.686   2.531  -2.636  0.00  0.00    -0.080 S 
BRANCH  20  21
ATOM     21  C   UNL     1       3.228   3.146  -3.358  0.00  0.00    +0.153 C 
BRANCH  21  22
ATOM     22  C   UNL     1       3.070   3.268  -4.851  0.00  0.00    +0.146 A 
ATOM     23  N   UNL     1       3.375   2.247  -5.632  0.00  0.00    -0.199 NA
ATOM     24  C   UNL     1       3.232   2.349  -6.952  0.00  0.00    +0.217 A 
ATOM     25  N   UNL     1       2.792   3.484  -7.484  0.00  0.00    -0.181 NA
ATOM     26  C   UNL     1       2.490   4.510  -6.696  0.00  0.00    +0.217 A 
ATOM     27  N   UNL     1       2.631   4.398  -5.377  0.00  0.00    -0.199 NA
ATOM     28  N   UNL     1       2.032   5.691  -7.245  0.00  0.00    -0.327 N 
ATOM     29  N   UNL     1       3.547   1.281  -7.766  0.00  0.00    -0.327 N 
ATOM     30  H   UNL     1       1.812   6.440  -6.669  0.00  0.00    +0.145 HD
ATOM     31  H   UNL     1       1.930   5.772  -8.206  0.00  0.00    +0.145 HD
ATOM     32  H   UNL     1       3.446   1.357  -8.728  0.00  0.00    +0.145 HD
ATOM     33  H   UNL     1       3.869   0.453  -7.377  0.00  0.00    +0.145 HD
ENDBRANCH  21  22
ENDBRANCH  20  21
ENDBRANCH   5  20
TORSDOF 6
