REMARK  Name = ZINC20682057
REMARK  8 active torsions:
REMARK  status: ('A' for Active; 'I' for Inactive)
REMARK    1  A    between atoms: C_1  and  C_2
REMARK    2  A    between atoms: C_2  and  C_3
REMARK    3  A    between atoms: C_3  and  C_4
REMARK    4  A    between atoms: C_4  and  O_5
REMARK    5  A    between atoms: O_5  and  C_6
REMARK    6  A    between atoms: C_19  and  C_22
REMARK    7  A    between atoms: C_25  and  O_29
REMARK    8  A    between atoms: C_27  and  O_28
REMARK                            x       y       z     vdW  Elec       q    Type
REMARK                         _______ _______ _______ _____ _____    ______ ____
ROOT
ATOM      1  C   UNL     1      -3.657   6.606  -0.798  0.00  0.00    +0.121 A 
ATOM      2  C   UNL     1      -2.600   6.865   0.063  0.00  0.00    +0.047 A 
ATOM      3  C   UNL     1      -1.780   5.838   0.481  0.00  0.00    +0.027 A 
ATOM      4  C   UNL     1      -2.004   4.538   0.045  0.00  0.00    +0.032 A 
ATOM      5  C   UNL     1      -3.078   4.279  -0.813  0.00  0.00    -0.016 A 
ATOM      6  C   UNL     1      -3.891   5.310  -1.232  0.00  0.00    +0.051 A 
ATOM      7  C   UNL     1      -3.293   2.878  -1.235  0.00  0.00    +0.049 C 
ATOM      8  C   UNL     1      -3.974   2.539  -2.511  0.00  0.00    -0.023 C 
ATOM      9  C   UNL     1      -3.472   1.399  -2.970  0.00  0.00    -0.030 C 
ATOM     10  C   UNL     1      -2.346   0.893  -2.044  0.00  0.00    +0.033 C 
ATOM     11  C   UNL     1      -1.895   2.205  -1.387  0.00  0.00    +0.029 C 
ATOM     12  C   UNL     1      -1.332   2.118   0.020  0.00  0.00    +0.108 C 
ATOM     13  N   UNL     1      -1.133   3.517   0.459  0.00  0.00    -0.336 N 
ATOM     14  H   UNL     1      -0.292   3.771   1.121  0.00  0.00    +0.147 HD
ENDROOT
BRANCH  12  15
ATOM     15  C   UNL     1      -0.017   1.383   0.010  0.00  0.00    +0.015 A 
ATOM     16  C   UNL     1       1.170   2.092   0.002  0.00  0.00    +0.012 A 
ATOM     17  C   UNL     1       2.377   1.421  -0.013  0.00  0.00    +0.046 A 
ATOM     18  C   UNL     1       2.402   0.033  -0.021  0.00  0.00    +0.120 A 
ATOM     19  C   UNL     1       1.213  -0.680  -0.013  0.00  0.00    +0.091 A 
ATOM     20  C   UNL     1       0.002  -0.004   0.002  0.00  0.00    +0.125 A 
BRANCH  20  21
ATOM     21  O   UNL     1      -1.165  -0.700   0.010  0.00  0.00    -0.506 OA
ATOM     22  H   UNL     1      -1.150  -1.800   0.004  0.00  0.00    +0.292 HD
ENDBRANCH  20  21
BRANCH  18  23
ATOM     23  O   UNL     1       3.590  -0.626  -0.035  0.00  0.00    -0.507 OA
ATOM     24  H   UNL     1       3.608  -1.726  -0.041  0.00  0.00    +0.292 HD
ENDBRANCH  18  23
ENDBRANCH  12  15
BRANCH   1  25
ATOM     25  O   UNL     1      -4.461   7.620  -1.215  0.00  0.00    -0.492 OA
BRANCH  25  26
ATOM     26  C   UNL     1      -4.160   8.929  -0.726  0.00  0.00    +0.229 C 
BRANCH  26  27
ATOM     27  C   UNL     1      -5.165   9.931  -1.300  0.00  0.00    +0.041 C 
BRANCH  27  29
ATOM     28  C   UNL     1      -5.848  12.333  -1.350  0.00  0.00    +0.004 C 
ATOM     29  C   UNL     1      -4.843  11.332  -0.777  0.00  0.00    -0.000 C 
ENDBRANCH  27  29
ENDBRANCH  26  27
ENDBRANCH  25  26
ENDBRANCH   1  25
TORSDOF 7
