REMARK  Name = ZINC52065817
REMARK  9 active torsions:
REMARK  status: ('A' for Active; 'I' for Inactive)
REMARK    1  A    between atoms: C_1  and  C_2
REMARK    2  A    between atoms: C_2  and  C_3
REMARK    3  A    between atoms: C_3  and  N_4
REMARK    4  A    between atoms: N_4  and  C_5
REMARK    5  A    between atoms: C_5  and  C_7
REMARK    6  A    between atoms: C_5  and  C_19
REMARK    7  A    between atoms: C_7  and  O_8
REMARK    8  A    between atoms: O_8  and  C_9
REMARK    9  A    between atoms: C_14  and  N_15
REMARK                            x       y       z     vdW  Elec       q    Type
REMARK                         _______ _______ _______ _____ _____    ______ ____
ROOT
ATOM      1  O   UNL     1      -2.007  -4.829   0.222  0.00  0.00    -0.487 OA
ENDROOT
BRANCH   1   2
ATOM      2  C   UNL     1      -1.901  -6.121  -0.187  0.00  0.00    +0.151 A 
ATOM      3  C   UNL     1      -2.516  -6.530  -1.361  0.00  0.00    +0.051 A 
ATOM      4  C   UNL     1      -2.408  -7.843  -1.776  0.00  0.00    +0.042 A 
ATOM      5  C   UNL     1      -1.685  -8.751  -1.020  0.00  0.00    +0.126 A 
ATOM      6  C   UNL     1      -1.071  -8.344   0.152  0.00  0.00    +0.074 A 
ATOM      7  C   UNL     1      -1.173  -7.030   0.566  0.00  0.00    +0.170 A 
ATOM      8  F   UNL     1      -1.580 -10.035  -1.427  0.00  0.00    -0.205 F 
BRANCH   7   9
ATOM      9  N   UNL     1      -0.510  -6.594   1.816  0.00  0.00    +0.060 N 
ATOM     10  O   UNL     1       0.124  -7.386   2.472  0.00  0.00    -0.126 OA
ATOM     11  O   UNL     1      -0.604  -5.445   2.180  0.00  0.00    -0.126 OA
ENDBRANCH   7   9
ENDBRANCH   1   2
BRANCH   1  12
ATOM     12  C   UNL     1      -2.772  -3.947  -0.602  0.00  0.00    +0.263 C 
BRANCH  12  13
ATOM     13  C   UNL     1      -2.777  -2.547   0.015  0.00  0.00    +0.195 C 
BRANCH  13  14
ATOM     14  N   UNL     1      -1.413  -2.002   0.005  0.00  0.00    -0.299 NA
ATOM     15  H   UNL     1      -0.890  -2.353  -0.783  0.00  0.00    +0.123 HD
BRANCH  14  16
ATOM     16  C   UNL     1      -1.433  -0.534   0.013  0.00  0.00    +0.082 C 
BRANCH  16  18
ATOM     17  C   UNL     1      -0.019   1.526   0.010  0.00  0.00    +0.005 C 
ATOM     18  C   UNL     1       0.002  -0.004   0.002  0.00  0.00    +0.012 C 
ENDBRANCH  16  18
ENDBRANCH  14  16
ENDBRANCH  13  14
BRANCH  13  19
ATOM     19  C   UNL     1      -3.265  -2.625   1.402  0.00  0.00    +0.085 C 
ATOM     20  N   UNL     1      -3.641  -2.684   2.472  0.00  0.00    -0.195 NA
ENDBRANCH  13  19
ENDBRANCH  12  13
ENDBRANCH   1  12
TORSDOF 8
