REMARK  Name = ZINC32594330
REMARK  12 active torsions:
REMARK  status: ('A' for Active; 'I' for Inactive)
REMARK    1  A    between atoms: C_1  and  C_2
REMARK    2  A    between atoms: C_2  and  C_3
REMARK    3  A    between atoms: C_3  and  C_5
REMARK    4  A    between atoms: C_3  and  N_6
REMARK    5  A    between atoms: C_7  and  C_31
REMARK    6  A    between atoms: N_9  and  C_12
REMARK    7  A    between atoms: C_14  and  N_27
REMARK    8  A    between atoms: C_16  and  O_26
REMARK    9  A    between atoms: C_18  and  O_25
REMARK   10  A    between atoms: C_20  and  C_23
REMARK   11  A    between atoms: C_23  and  O_24
REMARK   12  A    between atoms: C_28  and  C_30
REMARK                            x       y       z     vdW  Elec       q    Type
REMARK                         _______ _______ _______ _____ _____    ______ ____
ROOT
ATOM      1  N   UNL     1      -2.208   3.069   3.773  0.00  0.00    -0.300 N 
ATOM      2  C   UNL     1      -2.930   1.956   4.157  0.00  0.00    +0.163 A 
ATOM      3  N   UNL     1      -3.670   1.576   3.153  0.00  0.00    -0.148 NA
ATOM      4  N   UNL     1      -3.435   2.452   2.084  0.00  0.00    -0.209 N 
ATOM      5  C   UNL     1      -2.525   3.358   2.495  0.00  0.00    +0.181 A 
ATOM      6  S   UNL     1      -1.889   4.646   1.563  0.00  0.00    -0.011 S 
ENDROOT
BRANCH   2   7
ATOM      7  C   UNL     1      -2.873   1.305   5.484  0.00  0.00    +0.021 A 
ATOM      8  C   UNL     1      -2.646   2.068   6.630  0.00  0.00    +0.014 A 
ATOM      9  C   UNL     1      -2.599   1.457   7.865  0.00  0.00    +0.040 A 
ATOM     10  C   UNL     1      -2.765   0.086   7.970  0.00  0.00    +0.142 A 
ATOM     11  C   UNL     1      -2.985  -0.679   6.834  0.00  0.00    +0.077 A 
ATOM     12  C   UNL     1      -3.040  -0.076   5.593  0.00  0.00    +0.034 A 
ATOM     13 CL   UNL     1      -3.192  -2.397   6.973  0.00  0.00    -0.081 Cl
ATOM     14  F   UNL     1      -2.713  -0.509   9.182  0.00  0.00    -0.204 F 
ENDBRANCH   2   7
BRANCH   4  15
ATOM     15  C   UNL     1      -4.059   2.390   0.761  0.00  0.00    +0.262 C 
ATOM     16  C   UNL     1      -3.440   1.243  -0.043  0.00  0.00    +0.155 C 
ATOM     17  C   UNL     1      -4.139   1.146  -1.403  0.00  0.00    +0.170 C 
ATOM     18  C   UNL     1      -5.642   0.955  -1.179  0.00  0.00    +0.176 C 
ATOM     19  C   UNL     1      -6.176   2.112  -0.332  0.00  0.00    +0.177 C 
ATOM     20  O   UNL     1      -5.463   2.164   0.906  0.00  0.00    -0.345 OA
BRANCH  16  21
ATOM     21  N   UNL     1      -2.012   1.502  -0.244  0.00  0.00    -0.306 N 
ATOM     22  C   UNL     1      -1.165   0.476  -0.457  0.00  0.00    +0.210 C 
ATOM     23  O   UNL     1      -1.584  -0.662  -0.483  0.00  0.00    -0.276 OA
ATOM     24  C   UNL     1       0.303   0.742  -0.670  0.00  0.00    +0.109 C 
ATOM     25  H   UNL     1      -1.631   2.534  -0.221  0.00  0.00    +0.149 HD
ENDBRANCH  16  21
BRANCH  18  26
ATOM     26  O   UNL     1      -6.314   0.936  -2.440  0.00  0.00    -0.387 OA
ATOM     27  H   UNL     1      -7.405   0.807  -2.480  0.00  0.00    +0.210 HD
ENDBRANCH  18  26
BRANCH  17  28
ATOM     28  O   UNL     1      -3.617   0.031  -2.129  0.00  0.00    -0.387 OA
ATOM     29  H   UNL     1      -4.000  -0.199  -3.134  0.00  0.00    +0.210 HD
ENDBRANCH  17  28
BRANCH  19  30
ATOM     30  C   UNL     1      -7.665   1.896  -0.053  0.00  0.00    +0.190 C 
BRANCH  30  31
ATOM     31  O   UNL     1      -8.190   3.031   0.639  0.00  0.00    -0.392 OA
ATOM     32  H   UNL     1      -9.252   3.057   0.926  0.00  0.00    +0.210 HD
ENDBRANCH  30  31
ENDBRANCH  19  30
ENDBRANCH   4  15
BRANCH   1  33
ATOM     33  C   UNL     1      -1.257   3.806   4.610  0.00  0.00    +0.088 C 
ATOM     34  C   UNL     1      -1.760   5.236   4.816  0.00  0.00    +0.031 C 
BRANCH  33  36
ATOM     35  C   UNL     1       1.132   4.499   4.847  0.00  0.00    +0.006 C 
ATOM     36  C   UNL     1       0.108   3.840   3.920  0.00  0.00    +0.021 C 
ENDBRANCH  33  36
ENDBRANCH   1  33
TORSDOF 9
