REMARK  Name = ZINC17162104
REMARK  4 active torsions:
REMARK  status: ('A' for Active; 'I' for Inactive)
REMARK    1  A    between atoms: C_4  and  S_7
REMARK    2  A    between atoms: S_7  and  C_8
REMARK    3  A    between atoms: C_11  and  C_13
REMARK    4  A    between atoms: N_19  and  C_22
REMARK                            x       y       z     vdW  Elec       q    Type
REMARK                         _______ _______ _______ _____ _____    ______ ____
ROOT
ATOM      1  C   UNL     1       0.817  -5.025  -0.197  0.00  0.00    +0.064 C 
ATOM      2  C   UNL     1      -0.410  -4.415  -0.479  0.00  0.00    +0.105 C 
ATOM      3  C   UNL     1      -1.610  -5.215  -0.773  0.00  0.00    +0.277 C 
ATOM      4  N   UNL     1      -2.761  -4.572  -1.038  0.00  0.00    -0.123 NA
ATOM      5  C   UNL     1      -2.826  -3.263  -1.036  0.00  0.00    +0.340 C 
ATOM      6  O   UNL     1      -4.009  -2.677  -1.309  0.00  0.00    -0.250 OA
ATOM      7  N   UNL     1      -1.753  -2.469  -0.772  0.00  0.00    -0.188 N 
ATOM      8  C   UNL     1      -0.545  -2.998  -0.487  0.00  0.00    +0.264 C 
ATOM      9  O   UNL     1       0.408  -2.280  -0.247  0.00  0.00    -0.269 OA
ATOM     10  O   UNL     1      -1.562  -6.434  -0.777  0.00  0.00    -0.268 OA
ENDROOT
BRANCH   7  11
ATOM     11  C   UNL     1      -1.907  -1.076  -0.790  0.00  0.00    +0.046 A 
ATOM     12  C   UNL     1      -1.304  -0.323  -1.789  0.00  0.00    +0.025 A 
ATOM     13  C   UNL     1      -1.457   1.049  -1.805  0.00  0.00    +0.022 A 
ATOM     14  C   UNL     1      -2.210   1.674  -0.827  0.00  0.00    +0.041 A 
ATOM     15  C   UNL     1      -2.812   0.926   0.170  0.00  0.00    +0.022 A 
ATOM     16  C   UNL     1      -2.667  -0.448   0.187  0.00  0.00    +0.025 A 
ATOM     17 CL   UNL     1      -2.400   3.399  -0.850  0.00  0.00    -0.084 Cl
ENDBRANCH   7  11
BRANCH   1  21
ATOM     18  C   UNL     1       3.484  -2.709  -0.511  0.00  0.00    +0.167 A 
ATOM     19  C   UNL     1       3.945  -3.445   0.566  0.00  0.00    +0.057 A 
ATOM     20  C   UNL     1       2.996  -4.422   0.831  0.00  0.00    +0.050 A 
ATOM     21  C   UNL     1       1.973  -4.253  -0.101  0.00  0.00    +0.130 A 
ATOM     22  O   UNL     1       2.297  -3.205  -0.894  0.00  0.00    -0.449 OA
BRANCH  18  23
ATOM     23  S   UNL     1       4.314  -1.343  -1.252  0.00  0.00    -0.052 S 
BRANCH  23  27
ATOM     24  C   UNL     1       6.574  -3.184  -4.718  0.00  0.00    +0.000 A 
ATOM     25  C   UNL     1       6.570  -1.811  -4.548  0.00  0.00    +0.001 A 
ATOM     26  C   UNL     1       5.882  -1.246  -3.493  0.00  0.00    +0.015 A 
ATOM     27  C   UNL     1       5.193  -2.059  -2.601  0.00  0.00    +0.016 A 
ATOM     28  C   UNL     1       5.199  -3.438  -2.775  0.00  0.00    +0.015 A 
ATOM     29  C   UNL     1       5.889  -3.995  -3.832  0.00  0.00    +0.001 A 
ENDBRANCH  23  27
ENDBRANCH  18  23
ENDBRANCH   1  21
TORSDOF 4
