REMARK  Name = ZINC35483276
REMARK  9 active torsions:
REMARK  status: ('A' for Active; 'I' for Inactive)
REMARK    1  A    between atoms: C_1  and  N_2
REMARK    2  A    between atoms: N_2  and  C_3
REMARK    3  A    between atoms: N_2  and  C_4
REMARK    4  A    between atoms: C_4  and  C_5
REMARK    5  A    between atoms: C_5  and  N_6
REMARK    6  A    between atoms: C_7  and  C_22
REMARK    7  A    between atoms: C_24  and  O_30
REMARK    8  A    between atoms: C_25  and  O_29
REMARK    9  A    between atoms: O_30  and  C_31
REMARK                            x       y       z     vdW  Elec       q    Type
REMARK                         _______ _______ _______ _____ _____    ______ ____
ROOT
ATOM      1  N   UNL     1       2.845  -0.526  -2.362  0.00  0.00    -0.285 N 
ATOM      2  C   UNL     1       3.519  -1.824  -2.521  0.00  0.00    +0.145 C 
ATOM      3  C   UNL     1       4.061  -1.835  -3.913  0.00  0.00    +0.072 A 
ATOM      4  C   UNL     1       4.832  -2.848  -4.642  0.00  0.00    +0.199 A 
ATOM      5  O   UNL     1       5.010  -3.978  -4.225  0.00  0.00    -0.287 OA
ATOM      6  C   UNL     1       5.373  -2.364  -5.937  0.00  0.00    +0.064 A 
ATOM      7  C   UNL     1       6.288  -3.135  -6.653  0.00  0.00    +0.015 A 
ATOM      8  C   UNL     1       6.781  -2.673  -7.841  0.00  0.00    +0.001 A 
ATOM      9  C   UNL     1       6.374  -1.442  -8.335  0.00  0.00    +0.004 A 
ATOM     10  C   UNL     1       5.471  -0.668  -7.642  0.00  0.00    +0.047 A 
ATOM     11  C   UNL     1       4.951  -1.118  -6.429  0.00  0.00    +0.139 A 
ATOM     12  O   UNL     1       4.057  -0.346  -5.770  0.00  0.00    -0.450 OA
ATOM     13  C   UNL     1       3.721  -0.650  -4.501  0.00  0.00    +0.199 A 
ATOM     14  C   UNL     1       2.963   0.150  -3.523  0.00  0.00    +0.283 C 
ATOM     15  O   UNL     1       2.512   1.259  -3.732  0.00  0.00    -0.267 OA
ENDROOT
BRANCH   2  16
ATOM     16  C   UNL     1       4.642  -1.952  -1.524  0.00  0.00    -0.018 A 
ATOM     17  C   UNL     1       4.870  -3.161  -0.892  0.00  0.00    +0.055 A 
ATOM     18  C   UNL     1       5.902  -3.280   0.025  0.00  0.00    +0.163 A 
ATOM     19  C   UNL     1       6.707  -2.181   0.308  0.00  0.00    +0.173 A 
ATOM     20  C   UNL     1       6.474  -0.972  -0.328  0.00  0.00    +0.063 A 
ATOM     21  C   UNL     1       5.445  -0.861  -1.246  0.00  0.00    +0.025 A 
ATOM     22 BR   UNL     1       7.566   0.524   0.054  0.00  0.00    -0.046 Br
BRANCH  19  23
ATOM     23  O   UNL     1       7.721  -2.293   1.208  0.00  0.00    -0.503 OA
ATOM     24  H   UNL     1       8.565  -2.561   0.819  0.00  0.00    +0.292 HD
ENDBRANCH  19  23
BRANCH  18  25
ATOM     25  O   UNL     1       6.127  -4.468   0.647  0.00  0.00    -0.491 OA
ATOM     26  C   UNL     1       5.260  -5.552   0.307  0.00  0.00    +0.277 C 
ENDBRANCH  18  25
ENDBRANCH   2  16
BRANCH   1  27
ATOM     27  C   UNL     1       2.159  -0.053  -1.157  0.00  0.00    +0.090 C 
BRANCH  27  28
ATOM     28  C   UNL     1       0.690  -0.478  -1.207  0.00  0.00    -0.060 C 
BRANCH  28  30
ATOM     29  C   UNL     1      -0.018   1.465   0.010  0.00  0.00    -0.097 C 
ATOM     30  N   UNL     1       0.002  -0.004   0.002  0.00  0.00    +0.377 N 
ATOM     31  C   UNL     1      -1.376  -0.512   0.012  0.00  0.00    -0.097 C 
ATOM     32  H   UNL     1       0.490  -0.338   0.820  0.00  0.00    -0.083 HD
ENDBRANCH  28  30
ENDBRANCH  27  28
ENDBRANCH   1  27
TORSDOF 6
