REMARK  Name = ZINC54260430
REMARK  12 active torsions:
REMARK  status: ('A' for Active; 'I' for Inactive)
REMARK    1  A    between atoms: C_1  and  C_2
REMARK    2  A    between atoms: C_3  and  C_24
REMARK    3  A    between atoms: C_4  and  C_23
REMARK    4  A    between atoms: C_7  and  C_8
REMARK    5  A    between atoms: N_10  and  C_11
REMARK    6  A    between atoms: C_11  and  C_12
REMARK    7  A    between atoms: C_12  and  C_13
REMARK    8  A    between atoms: C_12  and  C_14
REMARK    9  A    between atoms: C_12  and  N_15
REMARK   10  A    between atoms: C_17  and  C_22
REMARK   11  A    between atoms: C_19  and  C_21
REMARK   12  A    between atoms: C_24  and  C_26
REMARK                            x       y       z     vdW  Elec       q    Type
REMARK                         _______ _______ _______ _____ _____    ______ ____
ROOT
ATOM      1  C   UNL     1      -0.374  -0.768   2.561  0.00  0.00    +0.261 C 
ATOM      2  O   UNL     1      -0.527   0.363   2.983  0.00  0.00    -0.269 OA
ATOM      3  N   UNL     1      -0.398  -1.814   3.410  0.00  0.00    -0.311 N 
ATOM      4  H   UNL     1      -0.276  -2.715   3.073  0.00  0.00    +0.149 HD
ENDROOT
BRANCH   1  11
ATOM      5  C   UNL     1      -0.274   1.457   0.379  0.00  0.00    +0.047 C 
ATOM      6  C   UNL     1      -0.118  -0.026   0.165  0.00  0.00    -0.010 A 
ATOM      7  C   UNL     1       0.109  -0.680  -1.070  0.00  0.00    +0.041 A 
ATOM      8  C   UNL     1       0.186  -2.038  -0.800  0.00  0.00    +0.024 A 
ATOM      9  N   UNL     1       0.018  -2.217   0.518  0.00  0.00    -0.354 N 
ATOM     10  H   UNL     1       0.028  -3.073   0.974  0.00  0.00    +0.166 HD
ATOM     11  C   UNL     1      -0.164  -0.992   1.125  0.00  0.00    +0.106 A 
ATOM     12  C   UNL     1       0.420  -3.127  -1.815  0.00  0.00    +0.064 C 
BRANCH   7  13
ATOM     13  C   UNL     1       0.237  -0.043  -2.384  0.00  0.00    +0.162 C 
ATOM     14  O   UNL     1      -0.752   0.175  -3.051  0.00  0.00    -0.292 OA
ATOM     15  C   UNL     1       1.598   0.341  -2.906  0.00  0.00    +0.091 C 
ENDBRANCH   7  13
ENDBRANCH   1  11
BRANCH   3  16
ATOM     16  C   UNL     1      -0.609  -1.590   4.842  0.00  0.00    +0.092 C 
BRANCH  16  17
ATOM     17  C   UNL     1      -0.592  -2.932   5.576  0.00  0.00    -0.055 C 
ATOM     18  C   UNL     1      -0.811  -2.698   7.072  0.00  0.00    -0.008 C 
ATOM     19  C   UNL     1      -1.707  -3.826   5.031  0.00  0.00    -0.008 C 
BRANCH  17  20
ATOM     20  N   UNL     1       0.706  -3.587   5.369  0.00  0.00    +0.384 N 
ATOM     21  C   UNL     1       1.776  -2.725   5.885  0.00  0.00    -0.075 C 
ATOM     22  C   UNL     1       3.136  -3.366   5.598  0.00  0.00    -0.031 C 
ATOM     23  C   UNL     1       3.204  -4.733   6.284  0.00  0.00    +0.003 C 
ATOM     24  C   UNL     1       2.040  -5.599   5.794  0.00  0.00    -0.031 C 
ATOM     25  C   UNL     1       0.721  -4.875   6.073  0.00  0.00    -0.075 C 
ATOM     26  C   UNL     1       2.054  -6.939   6.532  0.00  0.00    +0.005 C 
ATOM     27  C   UNL     1       4.249  -2.466   6.139  0.00  0.00    +0.005 C 
ATOM     28  H   UNL     1       0.849  -3.744   4.382  0.00  0.00    -0.081 HD
ENDBRANCH  17  20
ENDBRANCH  16  17
ENDBRANCH   3  16
TORSDOF 5
