REMARK  Name = ZINC50517812
REMARK  8 active torsions:
REMARK  status: ('A' for Active; 'I' for Inactive)
REMARK    1  A    between atoms: C_1  and  C_2
REMARK    2  A    between atoms: C_4  and  C_21
REMARK    3  A    between atoms: C_6  and  C_8
REMARK    4  A    between atoms: C_8  and  O_9
REMARK    5  A    between atoms: O_9  and  C_10
REMARK    6  A    between atoms: C_12  and  C_19
REMARK    7  A    between atoms: C_15  and  N_16
REMARK    8  A    between atoms: C_19  and  O_20
REMARK                            x       y       z     vdW  Elec       q    Type
REMARK                         _______ _______ _______ _____ _____    ______ ____
ROOT
ATOM      1  C   UNL     1       1.599  -3.745   4.055  0.00  0.00    +0.151 A 
ATOM      2  C   UNL     1       0.509  -4.191   4.788  0.00  0.00    +0.054 A 
ATOM      3  C   UNL     1       0.707  -4.880   5.969  0.00  0.00    -0.019 A 
ATOM      4  C   UNL     1       1.991  -5.125   6.420  0.00  0.00    +0.008 A 
ATOM      5  C   UNL     1       3.079  -4.681   5.692  0.00  0.00    +0.037 A 
ATOM      6  C   UNL     1       2.886  -3.997   4.507  0.00  0.00    +0.168 A 
ENDROOT
BRANCH   6   7
ATOM      7  N   UNL     1       4.051  -3.527   3.725  0.00  0.00    +0.060 N 
ATOM      8  O   UNL     1       5.172  -3.747   4.120  0.00  0.00    -0.126 OA
ATOM      9  O   UNL     1       3.881  -2.924   2.691  0.00  0.00    -0.126 OA
ENDBRANCH   6   7
BRANCH   1  10
ATOM     10  O   UNL     1       1.406  -3.067   2.893  0.00  0.00    -0.485 OA
BRANCH  10  11
ATOM     11  C   UNL     1       0.054  -2.844   2.489  0.00  0.00    +0.264 C 
BRANCH  11  17
ATOM     12  C   UNL     1      -0.018   1.503   0.010  0.00  0.00    +0.044 C 
ATOM     13  C   UNL     1       0.002  -0.004   0.002  0.00  0.00    -0.050 A 
ATOM     14  C   UNL     1       0.006  -0.689  -1.199  0.00  0.00    +0.006 A 
ATOM     15  C   UNL     1       0.025  -2.071  -1.206  0.00  0.00    -0.050 A 
ATOM     16  C   UNL     1       0.040  -2.768  -0.013  0.00  0.00    +0.010 A 
ATOM     17  C   UNL     1       0.037  -2.084   1.188  0.00  0.00    -0.010 A 
ATOM     18  C   UNL     1       0.023  -0.702   1.195  0.00  0.00    +0.010 A 
ATOM     19  C   UNL     1       0.027  -2.817  -2.516  0.00  0.00    +0.044 C 
ENDBRANCH  11  17
ENDBRANCH  10  11
ENDBRANCH   1  10
BRANCH   3  20
ATOM     20  C   UNL     1      -0.476  -5.365   6.766  0.00  0.00    +0.191 C 
BRANCH  20  21
ATOM     21  O   UNL     1      -0.834  -6.680   6.337  0.00  0.00    -0.390 OA
ATOM     22  H   UNL     1      -1.590  -7.056   6.808  0.00  0.00    +0.210 HD
ENDBRANCH  20  21
ENDBRANCH   3  20
TORSDOF 6
