REMARK  Name = ZINC63619958
REMARK  5 active torsions:
REMARK  status: ('A' for Active; 'I' for Inactive)
REMARK    1  A    between atoms: C_1  and  C_2
REMARK    2  A    between atoms: C_8  and  C_12
REMARK    3  A    between atoms: C_20  and  C_22
REMARK    4  A    between atoms: C_28  and  O_32
REMARK    5  A    between atoms: O_32  and  C_33
REMARK                            x       y       z     vdW  Elec       q    Type
REMARK                         _______ _______ _______ _____ _____    ______ ____
ROOT
ATOM      1  C   UNL     1      -0.777  -2.404   3.511  0.00  0.00    +0.238 C 
ATOM      2  O   UNL     1      -1.925  -2.775   3.632  0.00  0.00    -0.273 OA
ATOM      3  N   UNL     1      -0.280  -1.467   4.342  0.00  0.00    -0.297 N 
ATOM      4  C   UNL     1       1.068  -0.920   4.133  0.00  0.00    +0.127 C 
ATOM      5  C   UNL     1       0.967   0.607   4.033  0.00  0.00    +0.127 C 
ATOM      6  N   UNL     1       0.170   1.101   5.164  0.00  0.00    -0.297 N 
ATOM      7  C   UNL     1      -1.178   0.554   5.373  0.00  0.00    +0.127 C 
ATOM      8  C   UNL     1      -1.080  -0.969   5.471  0.00  0.00    +0.127 C 
ATOM      9  C   UNL     1       0.667   2.038   5.996  0.00  0.00    +0.242 C 
ATOM     10  O   UNL     1       1.781   2.481   5.814  0.00  0.00    -0.273 OA
ENDROOT
BRANCH   1  18
ATOM     11  C   UNL     1      -0.604   1.234  -0.340  0.00  0.00    +0.044 C 
ATOM     12  C   UNL     1      -0.427  -0.258  -0.224  0.00  0.00    -0.050 A 
ATOM     13  C   UNL     1      -0.412  -1.034  -1.369  0.00  0.00    +0.004 A 
ATOM     14  C   UNL     1      -0.257  -2.404  -1.254  0.00  0.00    +0.016 A 
ATOM     15  C   UNL     1      -0.116  -2.974  -0.005  0.00  0.00    +0.028 A 
ATOM     16  C   UNL     1      -0.113  -2.208   1.160  0.00  0.00    -0.006 A 
ATOM     17  C   UNL     1      -0.276  -0.830   1.020  0.00  0.00    +0.010 A 
ATOM     18  C   UNL     1       0.094  -2.991   2.430  0.00  0.00    +0.182 C 
ATOM     19  N   UNL     1      -0.237  -4.427   2.281  0.00  0.00    -0.243 NA
ATOM     20  S   UNL     1       0.080  -4.656   0.534  0.00  0.00    -0.043 S 
ATOM     21  H   UNL     1      -1.207  -4.599   2.498  0.00  0.00    +0.137 HD
ENDBRANCH   1  18
BRANCH   9  22
ATOM     22  C   UNL     1      -0.162   2.535   7.152  0.00  0.00    +0.190 C 
ATOM     23  C   UNL     1      -0.458   1.400   8.107  0.00  0.00    +0.016 C 
ATOM     24  C   UNL     1       0.091   1.752   9.290  0.00  0.00    -0.003 A 
ATOM     25  C   UNL     1       0.145   1.083  10.597  0.00  0.00    +0.013 A 
ATOM     26  C   UNL     1       0.779   1.695  11.621  0.00  0.00    +0.046 A 
ATOM     27  C   UNL     1       1.387   2.955  11.466  0.00  0.00    +0.122 A 
ATOM     28  C   UNL     1       1.376   3.631  10.289  0.00  0.00    +0.071 A 
ATOM     29  C   UNL     1       0.737   3.077   9.152  0.00  0.00    +0.047 A 
ATOM     30  N   UNL     1       0.592   3.528   7.925  0.00  0.00    -0.370 N 
ATOM     31  H   UNL     1       0.927   4.373   7.588  0.00  0.00    +0.161 HD
BRANCH  27  32
ATOM     32  O   UNL     1       2.007   3.515  12.534  0.00  0.00    -0.495 OA
ATOM     33  C   UNL     1       1.996   2.772  13.754  0.00  0.00    +0.277 C 
ENDBRANCH  27  32
ENDBRANCH   9  22
TORSDOF 3
