REMARK  Name = ZINC20916728
REMARK  8 active torsions:
REMARK  status: ('A' for Active; 'I' for Inactive)
REMARK    1  A    between atoms: C_9  and  O_32
REMARK    2  A    between atoms: C_10  and  C_11
REMARK    3  A    between atoms: N_12  and  N_13
REMARK    4  A    between atoms: C_17  and  S_20
REMARK    5  A    between atoms: N_18  and  N_19
REMARK    6  A    between atoms: S_20  and  C_21
REMARK    7  A    between atoms: C_21  and  C_22
REMARK    8  A    between atoms: C_22  and  C_23
REMARK                            x       y       z     vdW  Elec       q    Type
REMARK                         _______ _______ _______ _____ _____    ______ ____
ROOT
ATOM      1  N   UNL     1      -2.574   8.058   0.079  0.00  0.00    -0.204 N 
ATOM      2  C   UNL     1      -2.565   9.445   0.084  0.00  0.00    +0.254 A 
ATOM      3  N   UNL     1      -1.499  10.209   0.082  0.00  0.00    -0.109 NA
ATOM      4  N   UNL     1      -1.923  11.544   0.085  0.00  0.00    -0.119 NA
ATOM      5  C   UNL     1      -3.235  11.552   0.098  0.00  0.00    +0.210 A 
ATOM      6  N   UNL     1      -3.666  10.256   0.097  0.00  0.00    -0.211 N 
ATOM      7  H   UNL     1      -3.530   7.514   0.086  0.00  0.00    +0.177 HD
ENDROOT
BRANCH   6   8
ATOM      8  N   UNL     1      -4.967   9.842   0.107  0.00  0.00    -0.294 N 
ATOM      9  H   UNL     1      -5.780  10.584   0.118  0.00  0.00    +0.163 HD
ATOM     10  H   UNL     1      -5.203   8.768   0.105  0.00  0.00    +0.163 HD
ENDBRANCH   6   8
BRANCH   1  12
ATOM     11  C   UNL     1      -1.374   6.049   0.060  0.00  0.00    +0.142 C 
ATOM     12  N   UNL     1      -1.365   7.350   0.065  0.00  0.00    -0.187 NA
BRANCH  11  22
ATOM     13  C   UNL     1      -0.014   1.075   0.028  0.00  0.00    +0.001 A 
ATOM     14  C   UNL     1      -1.236   1.745   0.037  0.00  0.00    +0.001 A 
ATOM     15  C   UNL     1      -1.287   3.107   0.048  0.00  0.00    +0.009 A 
ATOM     16  C   UNL     1      -0.097   3.845   0.040  0.00  0.00    -0.006 A 
ATOM     17  C   UNL     1       1.147   3.167   0.025  0.00  0.00    -0.017 A 
ATOM     18  C   UNL     1       1.162   1.762   0.019  0.00  0.00    +0.008 A 
ATOM     19  C   UNL     1       2.340   3.910   0.015  0.00  0.00    +0.012 A 
ATOM     20  C   UNL     1       2.313   5.269   0.021  0.00  0.00    +0.046 A 
ATOM     21  C   UNL     1       1.115   5.980   0.036  0.00  0.00    +0.126 A 
ATOM     22  C   UNL     1      -0.106   5.306   0.045  0.00  0.00    +0.044 A 
BRANCH  21  23
ATOM     23  O   UNL     1       1.136   7.338   0.041  0.00  0.00    -0.506 OA
ATOM     24  H   UNL     1       0.192   7.903   0.052  0.00  0.00    +0.292 HD
ENDBRANCH  21  23
ENDBRANCH  11  22
ENDBRANCH   1  12
BRANCH   5  25
ATOM     25  S   UNL     1      -4.261  12.985   0.113  0.00  0.00    -0.084 S 
BRANCH  25  26
ATOM     26  C   UNL     1      -3.086  14.367   0.107  0.00  0.00    +0.086 C 
BRANCH  26  27
ATOM     27  C   UNL     1      -3.855  15.689   0.119  0.00  0.00    +0.107 C 
BRANCH  27  28
ATOM     28  C   UNL     1      -2.878  16.837   0.114  0.00  0.00    +0.219 C 
ATOM     29  O   UNL     1      -1.686  16.619   0.102  0.00  0.00    -0.275 OA
ATOM     30  N   UNL     1      -3.331  18.107   0.123  0.00  0.00    -0.270 N 
ATOM     31  C   UNL     1      -2.432  19.167   0.225  0.00  0.00    +0.125 A 
ATOM     32  C   UNL     1      -2.910  20.468   0.341  0.00  0.00    +0.044 A 
ATOM     33  C   UNL     1      -2.006  21.510   0.442  0.00  0.00    +0.005 A 
ATOM     34  C   UNL     1      -0.649  21.215   0.424  0.00  0.00    +0.020 A 
ATOM     35  C   UNL     1      -0.245  19.900   0.306  0.00  0.00    +0.113 A 
ATOM     36  N   UNL     1      -1.130  18.926   0.217  0.00  0.00    -0.240 NA
ATOM     37  H   UNL     1      -4.410  18.307   0.050  0.00  0.00    +0.156 HD
ENDBRANCH  27  28
ENDBRANCH  26  27
ENDBRANCH  25  26
ENDBRANCH   5  25
TORSDOF 8
