REMARK  Name = ZINC49053151
REMARK  7 active torsions:
REMARK  status: ('A' for Active; 'I' for Inactive)
REMARK    1  A    between atoms: C_1  and  C_2
REMARK    2  A    between atoms: C_2  and  C_4
REMARK    3  A    between atoms: C_2  and  S_7
REMARK    4  A    between atoms: S_7  and  N_10
REMARK    5  A    between atoms: C_13  and  C_16
REMARK    6  A    between atoms: C_19  and  C_21
REMARK    7  A    between atoms: C_21  and  N_22
REMARK                            x       y       z     vdW  Elec       q    Type
REMARK                         _______ _______ _______ _____ _____    ______ ____
ROOT
ATOM      1  N   UNL     1       0.017  -0.011   2.755  0.00  0.00    -0.107 NA
ATOM      2  C   UNL     1       0.401  -0.273   3.979  0.00  0.00    +0.191 A 
ATOM      3  N   UNL     1      -0.171   0.114   5.171  0.00  0.00    -0.330 N 
ATOM      4  C   UNL     1       0.420  -0.289   6.342  0.00  0.00    +0.091 A 
ATOM      5  C   UNL     1       1.536  -1.048   6.298  0.00  0.00    +0.078 A 
ATOM      6  S   UNL     1       1.798  -1.233   4.542  0.00  0.00    -0.056 S 
ATOM      7  H   UNL     1      -0.973   0.659   5.183  0.00  0.00    +0.168 HD
ENDROOT
BRANCH   4   8
ATOM      8  C   UNL     1      -0.160   0.104   7.637  0.00  0.00    +0.152 A 
ATOM      9  C   UNL     1       0.331  -0.224   8.865  0.00  0.00    +0.051 A 
ATOM     10  C   UNL     1      -0.531   0.360   9.815  0.00  0.00    +0.043 A 
ATOM     11  C   UNL     1      -1.494   1.007   9.131  0.00  0.00    +0.089 A 
ATOM     12  O   UNL     1      -1.264   0.856   7.815  0.00  0.00    -0.460 OA
BRANCH  11  13
ATOM     13  C   UNL     1      -2.636   1.779   9.739  0.00  0.00    -0.011 C 
BRANCH  13  14
ATOM     14  N   UNL     1      -2.233   3.178   9.935  0.00  0.00    +0.383 N 
ATOM     15  H   UNL     1      -1.436   3.215  10.552  0.00  0.00    -0.089 HD
ATOM     16  H   UNL     1      -1.989   3.585   9.044  0.00  0.00    -0.089 HD
ATOM     17  H   UNL     1      -2.998   3.695  10.342  0.00  0.00    -0.089 HD
ENDBRANCH  13  14
ENDBRANCH  11  13
ENDBRANCH   4   8
BRANCH   1  18
ATOM     18  S   UNL     1       0.879  -0.605   1.472  0.00  0.00    +0.085 S 
ATOM     19  O   UNL     1       0.754  -2.017   1.573  0.00  0.00    -0.151 OA
ATOM     20  O   UNL     1       2.152   0.018   1.571  0.00  0.00    -0.151 OA
BRANCH  18  22
ATOM     21  C   UNL     1      -0.019   1.526   0.010  0.00  0.00    +0.046 C 
ATOM     22  C   UNL     1       0.002  -0.004   0.002  0.00  0.00    +0.264 C 
BRANCH  22  23
ATOM     23  C   UNL     1       0.707  -0.490  -1.238  0.00  0.00    +0.382 C 
ATOM     24  O   UNL     1       1.591   0.184  -1.740  0.00  0.00    -0.244 OA
ATOM     25  O   UNL     1       0.395  -1.557  -1.738  0.00  0.00    -0.244 OA
ENDBRANCH  22  23
ENDBRANCH  18  22
ENDBRANCH   1  18
TORSDOF 6
