REMARK  Name = ZINC03593212
REMARK  6 active torsions:
REMARK  status: ('A' for Active; 'I' for Inactive)
REMARK    1  A    between atoms: C_1  and  C_2
REMARK    2  A    between atoms: C_2  and  C_19
REMARK    3  A    between atoms: N_5  and  C_9
REMARK    4  A    between atoms: C_9  and  C_10
REMARK    5  A    between atoms: N_15  and  C_16
REMARK    6  A    between atoms: C_16  and  C_17
REMARK                            x       y       z     vdW  Elec       q    Type
REMARK                         _______ _______ _______ _____ _____    ______ ____
ROOT
ATOM      1  C   UNL     1       2.882   4.247  -1.437  0.00  0.00    +0.047 C 
ATOM      2  C   UNL     1       2.452   3.936  -0.002  0.00  0.00    +0.135 C 
ATOM      3  C   UNL     1       2.319   5.211   0.807  0.00  0.00    +0.251 C 
ATOM      4  O   UNL     1       1.565   6.137   0.596  0.00  0.00    -0.272 OA
ATOM      5  N   UNL     1       3.215   5.103   1.808  0.00  0.00    -0.215 N 
ATOM      6  C   UNL     1       3.888   3.948   1.745  0.00  0.00    +0.310 C 
ATOM      7  O   UNL     1       4.748   3.624   2.540  0.00  0.00    -0.252 OA
ATOM      8  N   UNL     1       3.506   3.187   0.704  0.00  0.00    -0.281 N 
ATOM      9  H   UNL     1       3.855   2.314   0.466  0.00  0.00    +0.152 HD
ENDROOT
BRANCH   2  10
ATOM     10  C   UNL     1       1.157   3.166   0.007  0.00  0.00    -0.014 A 
ATOM     11  C   UNL     1       1.175   1.783   0.000  0.00  0.00    +0.006 A 
ATOM     12  C   UNL     1      -0.013   1.076   0.008  0.00  0.00    +0.001 A 
ATOM     13  C   UNL     1      -1.219   1.751   0.017  0.00  0.00    +0.015 A 
ATOM     14  C   UNL     1      -1.238   3.133   0.029  0.00  0.00    +0.018 A 
ATOM     15  C   UNL     1      -0.049   3.841   0.021  0.00  0.00    +0.021 A 
ATOM     16 BR   UNL     1      -2.888   4.057   0.049  0.00  0.00    -0.050 Br
ENDBRANCH   2  10
BRANCH   5  17
ATOM     17  C   UNL     1       3.425   6.124   2.838  0.00  0.00    +0.214 C 
BRANCH  17  18
ATOM     18  C   UNL     1       4.484   7.092   2.376  0.00  0.00    +0.238 C 
ATOM     19  O   UNL     1       5.010   6.944   1.294  0.00  0.00    -0.274 OA
ATOM     20  N   UNL     1       4.846   8.122   3.166  0.00  0.00    -0.239 N 
ATOM     21  C   UNL     1       5.792   8.988   2.752  0.00  0.00    +0.306 C 
ATOM     22  O   UNL     1       6.319   8.840   1.667  0.00  0.00    -0.252 OA
ATOM     23  N   UNL     1       6.154  10.019   3.542  0.00  0.00    -0.296 N 
ATOM     24  H   UNL     1       4.425   8.241   4.032  0.00  0.00    +0.159 HD
ATOM     25  H   UNL     1       5.733  10.137   4.408  0.00  0.00    +0.151 HD
BRANCH  23  26
ATOM     26  C   UNL     1       7.182  10.960   3.093  0.00  0.00    +0.132 C 
BRANCH  26  27
ATOM     27  C   UNL     1       7.399  12.010   4.152  0.00  0.00    -0.016 C 
ATOM     28  C   UNL     1       8.601  12.220   4.630  0.00  0.00    +0.005 C 
ENDBRANCH  26  27
ENDBRANCH  23  26
ENDBRANCH  17  18
ENDBRANCH   5  17
TORSDOF 5
