REMARK  Name = ZINC39676330
REMARK  9 active torsions:
REMARK  status: ('A' for Active; 'I' for Inactive)
REMARK    1  A    between atoms: C_1  and  C_2
REMARK    2  A    between atoms: C_2  and  C_3
REMARK    3  A    between atoms: C_2  and  C_4
REMARK    4  A    between atoms: C_4  and  C_6
REMARK    5  A    between atoms: C_4  and  O_35
REMARK    6  A    between atoms: C_10  and  C_19
REMARK    7  A    between atoms: N_21  and  C_22
REMARK    8  A    between atoms: C_22  and  C_23
REMARK    9  A    between atoms: O_35  and  C_36
REMARK                            x       y       z     vdW  Elec       q    Type
REMARK                         _______ _______ _______ _____ _____    ______ ____
ROOT
ATOM      1  C   UNL     1       0.863  -1.915  -1.333  0.00  0.00    +0.257 C 
ATOM      2  O   UNL     1       0.315  -2.534  -2.221  0.00  0.00    -0.272 OA
ATOM      3  N   UNL     1       1.543  -2.574  -0.374  0.00  0.00    -0.297 N 
ATOM      4  C   UNL     1       2.339  -1.996   0.735  0.00  0.00    +0.121 C 
ATOM      5  C   UNL     1       2.034  -2.903   1.948  0.00  0.00    +0.100 C 
ATOM      6  C   UNL     1       1.593  -4.243   1.336  0.00  0.00    -0.004 C 
ATOM      7  C   UNL     1       1.658  -4.040  -0.185  0.00  0.00    +0.115 C 
ATOM      8  C   UNL     1       2.544  -5.357   1.763  0.00  0.00    -0.010 C 
ATOM      9  C   UNL     1       2.052  -6.689   1.189  0.00  0.00    -0.082 C 
ATOM     10  N   UNL     1       0.695  -6.963   1.677  0.00  0.00    +0.379 N 
ATOM     11  C   UNL     1      -0.231  -5.936   1.185  0.00  0.00    -0.082 C 
ATOM     12  C   UNL     1       0.164  -4.572   1.758  0.00  0.00    -0.010 C 
ATOM     13  H   UNL     1       0.397  -7.869   1.348  0.00  0.00    -0.086 HD
ATOM     14  H   UNL     1       0.695  -6.958   2.686  0.00  0.00    -0.086 HD
ENDROOT
BRANCH   5  15
ATOM     15  C   UNL     1       3.271  -3.088   2.788  0.00  0.00    +0.219 C 
ATOM     16  O   UNL     1       4.369  -2.977   2.284  0.00  0.00    -0.275 OA
ATOM     17  N   UNL     1       3.158  -3.379   4.099  0.00  0.00    -0.308 N 
ATOM     18  H   UNL     1       2.280  -3.469   4.502  0.00  0.00    +0.149 HD
BRANCH  17  19
ATOM     19  C   UNL     1       4.361  -3.560   4.916  0.00  0.00    +0.178 C 
BRANCH  19  20
ATOM     20  C   UNL     1       3.962  -3.875   6.335  0.00  0.00    +0.128 A 
ATOM     21  N   UNL     1       4.945  -4.072   7.252  0.00  0.00    -0.309 N 
ATOM     22  H   UNL     1       5.874  -4.008   6.981  0.00  0.00    +0.170 HD
ATOM     23  C   UNL     1       4.639  -4.357   8.539  0.00  0.00    +0.259 A 
ATOM     24  O   UNL     1       5.509  -4.536   9.371  0.00  0.00    -0.267 OA
ATOM     25  C   UNL     1       3.214  -4.442   8.893  0.00  0.00    +0.065 A 
ATOM     26  C   UNL     1       2.793  -4.730  10.190  0.00  0.00    +0.015 A 
ATOM     27  C   UNL     1       1.446  -4.798  10.467  0.00  0.00    +0.001 A 
ATOM     28  C   UNL     1       0.507  -4.583   9.466  0.00  0.00    +0.002 A 
ATOM     29  C   UNL     1       0.902  -4.297   8.178  0.00  0.00    +0.028 A 
ATOM     30  C   UNL     1       2.263  -4.222   7.873  0.00  0.00    +0.078 A 
ATOM     31  N   UNL     1       2.697  -3.938   6.619  0.00  0.00    -0.232 NA
ENDBRANCH  19  20
ENDBRANCH  17  19
ENDBRANCH   5  15
BRANCH   1  32
ATOM     32  C   UNL     1       0.784  -0.411  -1.303  0.00  0.00    +0.261 C 
BRANCH  32  34
ATOM     33  C   UNL     1      -0.014   1.559   0.010  0.00  0.00    +0.011 C 
ATOM     34  C   UNL     1      -0.043   0.033  -0.095  0.00  0.00    +0.033 C 
ATOM     35  C   UNL     1      -1.489  -0.439  -0.266  0.00  0.00    +0.011 C 
ENDBRANCH  32  34
BRANCH  32  36
ATOM     36  O   UNL     1       0.165   0.058  -2.503  0.00  0.00    -0.479 OA
BRANCH  36  37
ATOM     37  C   UNL     1       0.600   1.246  -2.999  0.00  0.00    +0.122 A 
ATOM     38  C   UNL     1       1.666   1.901  -2.398  0.00  0.00    +0.045 A 
ATOM     39  C   UNL     1       2.107   3.108  -2.904  0.00  0.00    +0.004 A 
ATOM     40  C   UNL     1       1.487   3.664  -4.008  0.00  0.00    +0.000 A 
ATOM     41  C   UNL     1       0.425   3.014  -4.608  0.00  0.00    +0.004 A 
ATOM     42  C   UNL     1      -0.016   1.803  -4.109  0.00  0.00    +0.045 A 
ENDBRANCH  36  37
ENDBRANCH  32  36
ENDBRANCH   1  32
TORSDOF 7
