REMARK  Name = ZINC55874852
REMARK  5 active torsions:
REMARK  status: ('A' for Active; 'I' for Inactive)
REMARK    1  A    between atoms: C_1  and  C_2
REMARK    2  A    between atoms: C_10  and  C_12
REMARK    3  A    between atoms: C_12  and  N_13
REMARK    4  A    between atoms: N_13  and  C_14
REMARK    5  A    between atoms: C_19  and  N_20
REMARK                            x       y       z     vdW  Elec       q    Type
REMARK                         _______ _______ _______ _____ _____    ______ ____
ROOT
ATOM      1  N   UNL     1      -1.144  -4.048   4.636  0.00  0.00    -0.337 N 
ATOM      2  H   UNL     1      -1.821  -3.921   3.953  0.00  0.00    +0.147 HD
ENDROOT
BRANCH   1   3
ATOM      3  C   UNL     1      -1.356  -4.965   5.670  0.00  0.00    +0.055 A 
ATOM      4  C   UNL     1      -0.350  -5.218   6.592  0.00  0.00    +0.025 A 
ATOM      5  C   UNL     1      -0.561  -6.125   7.613  0.00  0.00    +0.003 A 
ATOM      6  C   UNL     1      -1.773  -6.783   7.719  0.00  0.00    +0.022 A 
ATOM      7  C   UNL     1      -2.781  -6.537   6.805  0.00  0.00    +0.068 A 
ATOM      8  C   UNL     1      -2.579  -5.624   5.780  0.00  0.00    +0.104 A 
ATOM      9 CL   UNL     1      -4.300  -7.367   6.943  0.00  0.00    -0.081 Cl
BRANCH   8  10
ATOM     10  N   UNL     1      -3.602  -5.368   4.853  0.00  0.00    -0.237 N 
ATOM     11  C   UNL     1      -4.886  -5.067   5.149  0.00  0.00    +0.114 A 
ATOM     12  C   UNL     1      -5.548  -4.894   3.981  0.00  0.00    +0.041 A 
ATOM     13  C   UNL     1      -4.640  -5.096   2.937  0.00  0.00    +0.135 A 
ATOM     14  N   UNL     1      -3.472  -5.375   3.459  0.00  0.00    -0.175 NA
ENDBRANCH   8  10
ENDBRANCH   1   3
BRANCH   1  15
ATOM     15  C   UNL     1       0.101  -3.276   4.585  0.00  0.00    +0.155 C 
BRANCH  15  25
ATOM     16  C   UNL     1       0.008   1.461  -0.030  0.00  0.00    +0.064 C 
ATOM     17  C   UNL     1       0.021  -0.046  -0.030  0.00  0.00    +0.033 A 
ATOM     18  C   UNL     1       0.019  -0.701  -1.191  0.00  0.00    +0.070 A 
ATOM     19  S   UNL     1       0.037  -2.403  -0.651  0.00  0.00    -0.059 S 
ATOM     20  C   UNL     1       0.046  -2.090   1.101  0.00  0.00    +0.158 A 
ATOM     21  N   UNL     1       0.040  -0.723   1.166  0.00  0.00    -0.261 N 
ATOM     22  C   UNL     1       0.049  -0.172   2.416  0.00  0.00    +0.259 A 
ATOM     23  O   UNL     1       0.039   1.042   2.549  0.00  0.00    -0.267 OA
ATOM     24  C   UNL     1       0.069  -0.997   3.541  0.00  0.00    +0.093 A 
ATOM     25  C   UNL     1       0.079  -2.367   3.384  0.00  0.00    +0.040 A 
ATOM     26  N   UNL     1       0.060  -2.872   2.153  0.00  0.00    -0.337 N 
ATOM     27  H   UNL     1       0.068  -3.834   2.032  0.00  0.00    +0.168 HD
ENDBRANCH  15  25
ENDBRANCH   1  15
TORSDOF 4
