REMARK  Name = ZINC21082442
REMARK  13 active torsions:
REMARK  status: ('A' for Active; 'I' for Inactive)
REMARK    1  A    between atoms: C_1  and  C_2
REMARK    2  A    between atoms: C_6  and  C_9
REMARK    3  A    between atoms: C_7  and  C_8
REMARK    4  A    between atoms: N_11  and  C_12
REMARK    5  A    between atoms: N_11  and  C_16
REMARK    6  A    between atoms: C_12  and  C_13
REMARK    7  A    between atoms: C_13  and  C_14
REMARK    8  A    between atoms: C_13  and  C_15
REMARK    9  A    between atoms: C_17  and  N_29
REMARK   10  A    between atoms: N_18  and  C_25
REMARK   11  A    between atoms: C_25  and  C_26
REMARK   12  A    between atoms: C_26  and  C_27
REMARK   13  A    between atoms: C_26  and  C_28
REMARK                            x       y       z     vdW  Elec       q    Type
REMARK                         _______ _______ _______ _____ _____    ______ ____
ROOT
ATOM      1  C   UNL     1      -0.237  -2.130   1.460  0.00  0.00    +0.140 A 
ATOM      2  C   UNL     1      -1.392  -2.367   0.743  0.00  0.00    +0.127 A 
ATOM      3  N   UNL     1      -1.888  -1.380  -0.077  0.00  0.00    -0.280 N 
ATOM      4  C   UNL     1      -1.252  -0.199  -0.182  0.00  0.00    +0.331 A 
ATOM      5  O   UNL     1      -1.704   0.659  -0.916  0.00  0.00    -0.246 OA
ATOM      6  N   UNL     1      -0.129   0.052   0.513  0.00  0.00    -0.273 N 
ATOM      7  H   UNL     1       0.371   1.028   0.418  0.00  0.00    +0.173 HD
ATOM      8  C   UNL     1       0.399  -0.881   1.330  0.00  0.00    +0.277 A 
ATOM      9  O   UNL     1       1.421  -0.644   1.952  0.00  0.00    -0.266 OA
ENDROOT
BRANCH   1  12
ATOM     10  C   UNL     1       0.373  -2.903   3.636  0.00  0.00    +0.251 C 
ATOM     11  O   UNL     1      -0.095  -1.886   4.113  0.00  0.00    -0.270 OA
ATOM     12  N   UNL     1       0.297  -3.122   2.309  0.00  0.00    -0.260 N 
BRANCH  10  18
ATOM     13  C   UNL     1       3.949  -4.087   6.909  0.00  0.00    +0.044 C 
ATOM     14  C   UNL     1       2.744  -4.473   6.089  0.00  0.00    -0.047 A 
ATOM     15  C   UNL     1       2.248  -5.762   6.156  0.00  0.00    +0.003 A 
ATOM     16  C   UNL     1       1.143  -6.125   5.406  0.00  0.00    +0.001 A 
ATOM     17  C   UNL     1       0.529  -5.200   4.586  0.00  0.00    +0.013 A 
ATOM     18  C   UNL     1       1.025  -3.898   4.513  0.00  0.00    +0.040 A 
ATOM     19  C   UNL     1       2.144  -3.541   5.269  0.00  0.00    -0.035 A 
ATOM     20  C   UNL     1       2.690  -2.138   5.192  0.00  0.00    +0.045 C 
ENDBRANCH  10  18
BRANCH  12  21
ATOM     21  C   UNL     1       0.768  -4.390   1.747  0.00  0.00    +0.117 C 
BRANCH  21  22
ATOM     22  C   UNL     1       2.281  -4.320   1.530  0.00  0.00    +0.001 C 
ATOM     23  C   UNL     1       2.798  -5.692   1.093  0.00  0.00    +0.009 C 
ATOM     24  C   UNL     1       2.593  -3.288   0.444  0.00  0.00    +0.009 C 
ENDBRANCH  21  22
ENDBRANCH  12  21
ENDBRANCH   1  12
BRANCH   2  25
ATOM     25  N   UNL     1      -2.039  -3.575   0.846  0.00  0.00    -0.343 N 
ATOM     26  H   UNL     1      -2.959  -3.757   0.272  0.00  0.00    +0.144 HD
ATOM     27  H   UNL     1      -1.636  -4.360   1.503  0.00  0.00    +0.144 HD
ENDBRANCH   2  25
BRANCH   3  28
ATOM     28  C   UNL     1      -3.113  -1.618  -0.844  0.00  0.00    +0.131 C 
BRANCH  28  29
ATOM     29  C   UNL     1      -4.325  -1.187  -0.017  0.00  0.00    +0.003 C 
ATOM     30  C   UNL     1      -5.593  -1.319  -0.863  0.00  0.00    +0.009 C 
ATOM     31  C   UNL     1      -4.443  -2.080   1.220  0.00  0.00    +0.009 C 
ENDBRANCH  28  29
ENDBRANCH   3  28
TORSDOF 7
