REMARK  Name = ZINC21794930
REMARK  8 active torsions:
REMARK  status: ('A' for Active; 'I' for Inactive)
REMARK    1  A    between atoms: C_1  and  C_2
REMARK    2  A    between atoms: C_2  and  O_3
REMARK    3  A    between atoms: O_3  and  C_4
REMARK    4  A    between atoms: C_11  and  C_18
REMARK    5  A    between atoms: C_13  and  O_14
REMARK    6  A    between atoms: C_18  and  N_19
REMARK    7  A    between atoms: N_19  and  C_20
REMARK    8  A    between atoms: C_27  and  C_29
REMARK                            x       y       z     vdW  Elec       q    Type
REMARK                         _______ _______ _______ _____ _____    ______ ____
ROOT
ATOM      1  C   UNL     1       2.448   5.042  -0.664  0.00  0.00    +0.405 C 
ATOM      2  O   UNL     1       1.462   5.530  -1.179  0.00  0.00    -0.226 OA
ATOM      3  N   UNL     1       2.353   3.873   0.000  0.00  0.00    -0.251 N 
ATOM      4  C   UNL     1       1.145   3.175   0.016  0.00  0.00    +0.040 A 
ATOM      5  C   UNL     1       1.150   1.780   0.004  0.00  0.00    +0.024 A 
ATOM      6  C   UNL     1      -0.023   1.085   0.018  0.00  0.00    +0.014 A 
ATOM      7  C   UNL     1      -1.241   1.775   0.040  0.00  0.00    +0.022 A 
ATOM      8  C   UNL     1      -2.515   1.054   0.063  0.00  0.00    -0.013 A 
ATOM      9  C   UNL     1      -3.663   1.780   0.090  0.00  0.00    +0.093 A 
ATOM     10  C   UNL     1      -3.602   3.188   0.102  0.00  0.00    +0.285 A 
ATOM     11  O   UNL     1      -2.431   3.844   0.087  0.00  0.00    -0.425 OA
ATOM     12  C   UNL     1      -1.254   3.182   0.059  0.00  0.00    +0.141 A 
ATOM     13  C   UNL     1      -0.052   3.874   0.044  0.00  0.00    +0.070 A 
ATOM     14  H   UNL     1       3.228   3.468   0.530  0.00  0.00    +0.158 HD
ENDROOT
BRANCH  10  15
ATOM     15  O   UNL     1      -4.639   3.827   0.127  0.00  0.00    -0.480 OA
ATOM     16  H   UNL     1      -4.607   4.927   0.137  0.00  0.00    +0.295 HD
ENDBRANCH  10  15
BRANCH   1  17
ATOM     17  O   UNL     1       3.636   5.669  -0.756  0.00  0.00    -0.450 OA
BRANCH  17  19
ATOM     18  C   UNL     1       5.088   7.483  -1.484  0.00  0.00    +0.048 C 
ATOM     19  C   UNL     1       3.664   6.923  -1.486  0.00  0.00    +0.230 C 
ENDBRANCH  17  19
ENDBRANCH   1  17
BRANCH   8  20
ATOM     20  C   UNL     1      -2.553  -0.453   0.049  0.00  0.00    +0.137 C 
BRANCH  20  21
ATOM     21  N   UNL     1      -2.300  -0.960   1.400  0.00  0.00    -0.340 N 
ATOM     22  H   UNL     1      -2.123  -0.256   2.227  0.00  0.00    +0.146 HD
BRANCH  21  23
ATOM     23  C   UNL     1      -2.285  -2.338   1.639  0.00  0.00    +0.030 A 
ATOM     24  C   UNL     1      -2.516  -3.226   0.590  0.00  0.00    +0.026 A 
ATOM     25  C   UNL     1      -2.499  -4.586   0.811  0.00  0.00    +0.050 A 
ATOM     26  C   UNL     1      -2.262  -5.078   2.086  0.00  0.00    +0.155 A 
ATOM     27  C   UNL     1      -2.034  -4.190   3.148  0.00  0.00    +0.111 A 
ATOM     28  C   UNL     1      -2.047  -2.814   2.915  0.00  0.00    +0.054 A 
ATOM     29  N   UNL     1      -1.835  -4.954   4.256  0.00  0.00    -0.213 NA
ATOM     30  C   UNL     1      -1.929  -6.206   3.924  0.00  0.00    +0.194 A 
ATOM     31  O   UNL     1      -2.188  -6.321   2.612  0.00  0.00    -0.440 OA
ATOM     32  C   UNL     1      -1.770  -7.364   4.875  0.00  0.00    +0.109 C 
ENDBRANCH  21  23
ENDBRANCH  20  21
ENDBRANCH   8  20
TORSDOF 6
