REMARK  Name = ZINC36358772
REMARK  5 active torsions:
REMARK  status: ('A' for Active; 'I' for Inactive)
REMARK    1  A    between atoms: C_1  and  N_2
REMARK    2  A    between atoms: N_21  and  C_22
REMARK    3  A    between atoms: C_22  and  C_23
REMARK    4  A    between atoms: C_28  and  O_29
REMARK    5  A    between atoms: O_29  and  C_30
REMARK                            x       y       z     vdW  Elec       q    Type
REMARK                         _______ _______ _______ _____ _____    ______ ____
ROOT
ATOM      1  C   UNL     1      -0.018   1.461   0.010  0.00  0.00    +0.138 C 
ATOM      2  N   UNL     1       0.002  -0.004   0.002  0.00  0.00    -0.271 N 
ATOM      3  C   UNL     1      -1.135  -0.793   0.003  0.00  0.00    +0.043 A 
ATOM      4  C   UNL     1      -2.478  -0.412   0.013  0.00  0.00    +0.024 A 
ATOM      5  C   UNL     1      -3.423  -1.425   0.013  0.00  0.00    +0.002 A 
ATOM      6  C   UNL     1      -3.067  -2.758   0.003  0.00  0.00    +0.001 A 
ATOM      7  C   UNL     1      -1.733  -3.151  -0.007  0.00  0.00    +0.010 A 
ATOM      8  C   UNL     1      -0.786  -2.149  -0.007  0.00  0.00    +0.024 A 
ATOM      9  C   UNL     1       0.710  -2.199  -0.015  0.00  0.00    +0.209 C 
ATOM     10  C   UNL     1       1.131  -0.743  -0.013  0.00  0.00    +0.266 C 
ATOM     11  O   UNL     1       2.268  -0.321  -0.022  0.00  0.00    -0.271 OA
ATOM     12  N   UNL     1       1.203  -2.847  -1.232  0.00  0.00    -0.312 N 
ATOM     13  C   UNL     1       1.245  -4.236  -1.284  0.00  0.00    +0.041 A 
ATOM     14  C   UNL     1       1.145  -4.922  -2.483  0.00  0.00    +0.024 A 
ATOM     15  C   UNL     1       1.204  -6.302  -2.489  0.00  0.00    +0.002 A 
ATOM     16  C   UNL     1       1.364  -7.005  -1.305  0.00  0.00    +0.001 A 
ATOM     17  C   UNL     1       1.460  -6.338  -0.102  0.00  0.00    +0.015 A 
ATOM     18  C   UNL     1       1.397  -4.946  -0.080  0.00  0.00    +0.058 A 
ATOM     19  C   UNL     1       1.471  -4.192   1.183  0.00  0.00    +0.251 C 
ATOM     20  O   UNL     1       1.757  -4.759   2.220  0.00  0.00    -0.270 OA
ATOM     21  N   UNL     1       1.218  -2.867   1.180  0.00  0.00    -0.260 N 
ATOM     22  H   UNL     1       1.496  -2.316  -1.989  0.00  0.00    +0.149 HD
ENDROOT
BRANCH  21  23
ATOM     23  C   UNL     1       1.458  -2.085   2.395  0.00  0.00    +0.149 C 
BRANCH  23  24
ATOM     24  C   UNL     1       0.209  -2.069   3.237  0.00  0.00    +0.012 A 
ATOM     25  C   UNL     1      -0.633  -0.974   3.206  0.00  0.00    +0.009 A 
ATOM     26  C   UNL     1      -1.779  -0.958   3.979  0.00  0.00    +0.001 A 
ATOM     27  C   UNL     1      -2.087  -2.039   4.785  0.00  0.00    +0.004 A 
ATOM     28  C   UNL     1      -1.249  -3.137   4.819  0.00  0.00    +0.046 A 
ATOM     29  C   UNL     1      -0.101  -3.157   4.040  0.00  0.00    +0.125 A 
BRANCH  29  30
ATOM     30  O   UNL     1       0.722  -4.238   4.068  0.00  0.00    -0.495 OA
ATOM     31  C   UNL     1       0.341  -5.322   4.918  0.00  0.00    +0.277 C 
ENDBRANCH  29  30
ENDBRANCH  23  24
ENDBRANCH  21  23
TORSDOF 3
