REMARK  Name = ZINC37605472
REMARK  4 active torsions:
REMARK  status: ('A' for Active; 'I' for Inactive)
REMARK    1  A    between atoms: C_3  and  C_7
REMARK    2  A    between atoms: C_9  and  C_12
REMARK    3  A    between atoms: C_15  and  N_19
REMARK    4  A    between atoms: C_16  and  O_18
REMARK                            x       y       z     vdW  Elec       q    Type
REMARK                         _______ _______ _______ _____ _____    ______ ____
ROOT
ATOM      1  C   UNL     1       3.684   2.033  -0.023  0.00  0.00    +0.204 A 
ATOM      2  N   UNL     1       4.884   1.432  -0.043  0.00  0.00    -0.187 NA
ATOM      3  C   UNL     1       5.837   2.336  -0.046  0.00  0.00    +0.259 A 
ATOM      4  O   UNL     1       5.263   3.552  -0.027  0.00  0.00    -0.332 OA
ATOM      5  N   UNL     1       3.860   3.332  -0.018  0.00  0.00    -0.056 NA
ENDROOT
BRANCH   1   8
ATOM      6  C   UNL     1      -0.017   1.379   0.010  0.00  0.00    +0.020 A 
ATOM      7  C   UNL     1       1.182   2.072   0.002  0.00  0.00    +0.014 A 
ATOM      8  C   UNL     1       2.371   1.339  -0.013  0.00  0.00    +0.041 A 
ATOM      9  C   UNL     1       2.306  -0.052  -0.020  0.00  0.00    +0.122 A 
ATOM     10  N   UNL     1       1.142  -0.668  -0.012  0.00  0.00    -0.263 NA
ATOM     11  C   UNL     1       0.002  -0.004   0.002  0.00  0.00    +0.111 A 
ENDBRANCH   1   8
BRANCH   3  12
ATOM     12  C   UNL     1       7.288   2.064  -0.065  0.00  0.00    +0.043 A 
ATOM     13  C   UNL     1       7.752   0.747  -0.089  0.00  0.00    +0.015 A 
ATOM     14  C   UNL     1       9.107   0.494  -0.107  0.00  0.00    +0.027 A 
ATOM     15  C   UNL     1      10.013   1.548  -0.102  0.00  0.00    +0.067 A 
ATOM     16  C   UNL     1       9.555   2.865  -0.078  0.00  0.00    +0.138 A 
ATOM     17  C   UNL     1       8.198   3.124  -0.066  0.00  0.00    +0.060 A 
BRANCH  15  18
ATOM     18  N   UNL     1      11.384   1.287  -0.119  0.00  0.00    -0.355 N 
ATOM     19  H   UNL     1      11.703   0.371  -0.135  0.00  0.00    +0.142 HD
ATOM     20  H   UNL     1      12.017   2.022  -0.116  0.00  0.00    +0.142 HD
ENDBRANCH  15  18
BRANCH  16  21
ATOM     21  O   UNL     1      10.444   3.895  -0.073  0.00  0.00    -0.505 OA
ATOM     22  H   UNL     1      10.692   4.205  -0.955  0.00  0.00    +0.292 HD
ENDBRANCH  16  21
ENDBRANCH   3  12
TORSDOF 4
