REMARK  Name = ZINC13734805
REMARK  6 active torsions:
REMARK  status: ('A' for Active; 'I' for Inactive)
REMARK    1  A    between atoms: C_1  and  C_2
REMARK    2  A    between atoms: C_5  and  N_8
REMARK    3  A    between atoms: C_20  and  C_27
REMARK    4  A    between atoms: C_29  and  C_31
REMARK    5  A    between atoms: C_31  and  C_33
REMARK    6  A    between atoms: C_31  and  O_40
REMARK                            x       y       z     vdW  Elec       q    Type
REMARK                         _______ _______ _______ _____ _____    ______ ____
ROOT
ATOM      1  N   UNL     1       0.059  -4.172  -0.021  0.00  0.00    -0.210 N 
ATOM      2  C   UNL     1      -0.030  -4.891  -1.146  0.00  0.00    +0.232 C 
ATOM      3  O   UNL     1      -0.135  -4.433  -2.264  0.00  0.00    -0.274 OA
ATOM      4  C   UNL     1       0.021  -6.364  -0.807  0.00  0.00    +0.110 C 
ATOM      5  C   UNL     1       0.159  -6.370   0.741  0.00  0.00    +0.123 C 
ATOM      6  C   UNL     1       0.172  -4.900   1.095  0.00  0.00    +0.233 C 
ATOM      7  O   UNL     1       0.269  -4.451   2.217  0.00  0.00    -0.274 OA
ATOM      8  C   UNL     1      -1.130  -7.033   1.241  0.00  0.00    +0.136 C 
ATOM      9  C   UNL     1      -0.880  -7.875   2.459  0.00  0.00    +0.004 A 
ATOM     10  C   UNL     1      -0.068  -8.958   2.713  0.00  0.00    +0.011 A 
ATOM     11  C   UNL     1      -0.057  -9.535   3.971  0.00  0.00    -0.050 A 
ATOM     12  C   UNL     1      -0.863  -9.022   4.971  0.00  0.00    +0.005 A 
ATOM     13  C   UNL     1      -1.677  -7.938   4.721  0.00  0.00    +0.024 A 
ATOM     14  C   UNL     1      -1.695  -7.350   3.458  0.00  0.00    +0.039 A 
ATOM     15  N   UNL     1      -2.420  -6.262   2.968  0.00  0.00    -0.283 N 
ATOM     16  C   UNL     1      -2.143  -6.009   1.674  0.00  0.00    +0.243 C 
ATOM     17  O   UNL     1      -2.618  -5.126   0.991  0.00  0.00    -0.273 OA
ATOM     18  C   UNL     1       0.831 -10.721   4.250  0.00  0.00    +0.044 C 
ATOM     19  N   UNL     1      -1.632  -7.843   0.115  0.00  0.00    -0.293 NA
ATOM     20  C   UNL     1      -1.355  -6.998  -1.100  0.00  0.00    +0.101 C 
ATOM     21  H   UNL     1      -3.049  -5.748   3.497  0.00  0.00    +0.155 HD
ATOM     22  H   UNL     1      -1.148  -8.726   0.061  0.00  0.00    +0.124 HD
ENDROOT
BRANCH   1  27
ATOM     23  C   UNL     1      -0.016   1.503   0.009  0.00  0.00    +0.044 C 
ATOM     24  C   UNL     1       0.004  -0.004   0.001  0.00  0.00    -0.050 A 
ATOM     25  C   UNL     1       1.155  -0.681   0.358  0.00  0.00    +0.005 A 
ATOM     26  C   UNL     1       1.177  -2.062   0.352  0.00  0.00    +0.024 A 
ATOM     27  C   UNL     1       0.040  -2.771  -0.013  0.00  0.00    +0.044 A 
ATOM     28  C   UNL     1      -1.115  -2.088  -0.371  0.00  0.00    +0.024 A 
ATOM     29  C   UNL     1      -1.131  -0.707  -0.358  0.00  0.00    +0.005 A 
ENDBRANCH   1  27
BRANCH  20  30
ATOM     30  C   UNL     1      -1.282  -7.874  -2.352  0.00  0.00    +0.162 C 
BRANCH  30  31
ATOM     31  C   UNL     1      -2.635  -8.482  -2.619  0.00  0.00    -0.018 A 
ATOM     32  C   UNL     1      -3.581  -7.775  -3.337  0.00  0.00    +0.007 A 
ATOM     33  C   UNL     1      -4.822  -8.332  -3.583  0.00  0.00    +0.020 A 
ATOM     34  C   UNL     1      -5.117  -9.599  -3.110  0.00  0.00    +0.041 A 
ATOM     35  C   UNL     1      -4.170 -10.306  -2.391  0.00  0.00    +0.020 A 
ATOM     36  C   UNL     1      -2.927  -9.750  -2.151  0.00  0.00    +0.007 A 
ATOM     37 CL   UNL     1      -6.676 -10.299  -3.417  0.00  0.00    -0.084 Cl
ENDBRANCH  30  31
BRANCH  30  38
ATOM     38  O   UNL     1      -0.890  -7.075  -3.470  0.00  0.00    -0.386 OA
ATOM     39  H   UNL     1      -1.497  -6.348  -3.666  0.00  0.00    +0.210 HD
ENDBRANCH  30  38
ENDBRANCH  20  30
TORSDOF 4
