REMARK  Name = ZINC16933540
REMARK  7 active torsions:
REMARK  status: ('A' for Active; 'I' for Inactive)
REMARK    1  A    between atoms: C_1  and  C_2
REMARK    2  A    between atoms: C_2  and  N_3
REMARK    3  A    between atoms: C_7  and  C_8
REMARK    4  A    between atoms: C_13  and  O_14
REMARK    5  A    between atoms: N_17  and  C_18
REMARK    6  A    between atoms: C_21  and  C_25
REMARK    7  A    between atoms: C_23  and  O_24
REMARK                            x       y       z     vdW  Elec       q    Type
REMARK                         _______ _______ _______ _____ _____    ______ ____
ROOT
ATOM      1  N   UNL     1       2.021   3.534  -0.186  0.00  0.00    -0.246 N 
ATOM      2  C   UNL     1       3.201   4.065   0.087  0.00  0.00    +0.259 C 
ATOM      3  O   UNL     1       3.332   5.260   0.281  0.00  0.00    -0.269 OA
ATOM      4  C   UNL     1       4.352   3.144   0.148  0.00  0.00    +0.078 C 
ATOM      5  C   UNL     1       5.657   3.412   0.406  0.00  0.00    +0.032 C 
ATOM      6  S   UNL     1       3.563   1.578  -0.201  0.00  0.00    -0.049 S 
ATOM      7  C   UNL     1       1.894   2.178  -0.401  0.00  0.00    +0.169 C 
ATOM      8  N   UNL     1       0.808   1.494  -0.680  0.00  0.00    -0.222 NA
ENDROOT
BRANCH   8   9
ATOM      9  C   UNL     1       0.874   0.134  -0.826  0.00  0.00    +0.108 A 
ATOM     10  C   UNL     1       1.801  -0.434  -1.700  0.00  0.00    +0.032 A 
ATOM     11  C   UNL     1       1.867  -1.806  -1.839  0.00  0.00    +0.005 A 
ATOM     12  C   UNL     1       1.009  -2.620  -1.120  0.00  0.00    -0.047 A 
ATOM     13  C   UNL     1       0.082  -2.068  -0.254  0.00  0.00    +0.051 A 
ATOM     14  C   UNL     1       0.008  -0.695  -0.101  0.00  0.00    +0.142 A 
ATOM     15  C   UNL     1       1.085  -4.116  -1.282  0.00  0.00    +0.044 C 
BRANCH  14  16
ATOM     16  O   UNL     1      -0.902  -0.151   0.751  0.00  0.00    -0.505 OA
ATOM     17  H   UNL     1      -1.755   0.048   0.341  0.00  0.00    +0.292 HD
ENDBRANCH  14  16
ENDBRANCH   8   9
BRANCH   5  18
ATOM     18  C   UNL     1       6.670   2.364   0.232  0.00  0.00    +0.018 A 
ATOM     19  C   UNL     1       6.388   1.232  -0.542  0.00  0.00    +0.011 A 
ATOM     20  C   UNL     1       7.345   0.256  -0.705  0.00  0.00    +0.001 A 
ATOM     21  C   UNL     1       8.584   0.383  -0.098  0.00  0.00    +0.004 A 
ATOM     22  C   UNL     1       8.876   1.492   0.674  0.00  0.00    +0.046 A 
ATOM     23  C   UNL     1       7.928   2.488   0.846  0.00  0.00    +0.124 A 
BRANCH  23  24
ATOM     24  O   UNL     1       8.213   3.577   1.603  0.00  0.00    -0.506 OA
ATOM     25  H   UNL     1       7.987   3.476   2.538  0.00  0.00    +0.292 HD
ENDBRANCH  23  24
ENDBRANCH   5  18
BRANCH   1  27
ATOM     26  C   UNL     1       0.190   4.493   1.121  0.00  0.00    +0.025 C 
ATOM     27  C   UNL     1       0.838   4.395  -0.262  0.00  0.00    +0.112 C 
ENDBRANCH   1  27
TORSDOF 5
