REMARK  Name = ZINC13995173
REMARK  8 active torsions:
REMARK  status: ('A' for Active; 'I' for Inactive)
REMARK    1  A    between atoms: C_1  and  C_2
REMARK    2  A    between atoms: C_9  and  C_12
REMARK    3  A    between atoms: C_13  and  C_16
REMARK    4  A    between atoms: C_19  and  O_24
REMARK    5  A    between atoms: C_20  and  O_22
REMARK    6  A    between atoms: O_22  and  C_23
REMARK    7  A    between atoms: O_24  and  C_25
REMARK    8  A    between atoms: C_25  and  C_26
REMARK                            x       y       z     vdW  Elec       q    Type
REMARK                         _______ _______ _______ _____ _____    ______ ____
ROOT
ATOM      1  C   UNL     1       3.056   0.002   2.880  0.00  0.00    -0.026 A 
ATOM      2  C   UNL     1       3.444  -1.290   3.180  0.00  0.00    +0.009 A 
ATOM      3  C   UNL     1       4.055  -1.569   4.389  0.00  0.00    +0.050 A 
ATOM      4  C   UNL     1       4.280  -0.552   5.302  0.00  0.00    +0.162 A 
ATOM      5  C   UNL     1       3.890   0.749   5.000  0.00  0.00    +0.162 A 
ATOM      6  C   UNL     1       3.283   1.023   3.785  0.00  0.00    +0.054 A 
ENDROOT
BRANCH   1  18
ATOM      7  C   UNL     1      -0.019   1.526   0.010  0.00  0.00    +0.029 C 
ATOM      8  C   UNL     1       0.002  -0.004   0.002  0.00  0.00    +0.132 C 
ATOM      9  C   UNL     1       0.659  -0.463  -1.240  0.00  0.00    +0.251 C 
ATOM     10  O   UNL     1      -0.099  -0.761  -2.143  0.00  0.00    -0.272 OA
ATOM     11  N   UNL     1       1.904  -0.595  -1.510  0.00  0.00    -0.163 NA
ATOM     12  C   UNL     1       3.036  -0.457  -0.867  0.00  0.00    +0.134 C 
ATOM     13  C   UNL     1       3.323  -0.083   0.452  0.00  0.00    +0.026 C 
ATOM     14  C   UNL     1       4.677  -0.108   0.617  0.00  0.00    +0.026 C 
ATOM     15  N   UNL     1       5.262  -0.481  -0.550  0.00  0.00    -0.269 N 
ATOM     16  N   UNL     1       4.254  -0.695  -1.491  0.00  0.00    -0.252 N 
ATOM     17  C   UNL     1       5.407   0.225   1.893  0.00  0.00    +0.062 C 
ATOM     18  C   UNL     1       2.391   0.301   1.562  0.00  0.00    +0.112 C 
ATOM     19  S   UNL     1       0.830  -0.579   1.491  0.00  0.00    -0.135 S 
ATOM     20  H   UNL     1       6.215  -0.581  -0.703  0.00  0.00    +0.170 HD
ATOM     21  H   UNL     1       4.380  -0.962  -2.415  0.00  0.00    +0.171 HD
ENDBRANCH   1  18
BRANCH   5  22
ATOM     22  O   UNL     1       4.109   1.751   5.893  0.00  0.00    -0.491 OA
ATOM     23  C   UNL     1       3.683   3.062   5.516  0.00  0.00    +0.277 C 
ENDBRANCH   5  22
BRANCH   4  24
ATOM     24  O   UNL     1       4.880  -0.825   6.492  0.00  0.00    -0.484 OA
BRANCH  24  25
ATOM     25  C   UNL     1       5.253  -2.183   6.734  0.00  0.00    +0.267 C 
BRANCH  25  26
ATOM     26  C   UNL     1       5.899  -2.292   8.091  0.00  0.00    +0.025 A 
ATOM     27  C   UNL     1       6.041  -1.167   8.882  0.00  0.00    +0.010 A 
ATOM     28  C   UNL     1       6.633  -1.267  10.127  0.00  0.00    +0.001 A 
ATOM     29  C   UNL     1       7.085  -2.492  10.582  0.00  0.00    +0.003 A 
ATOM     30  C   UNL     1       6.944  -3.618   9.794  0.00  0.00    +0.039 A 
ATOM     31  C   UNL     1       6.346  -3.520   8.549  0.00  0.00    +0.130 A 
ATOM     32  F   UNL     1       6.203  -4.621   7.779  0.00  0.00    -0.205 F 
ENDBRANCH  25  26
ENDBRANCH  24  25
ENDBRANCH   4  24
TORSDOF 5
