REMARK  Name = ZINC28048723
REMARK  5 active torsions:
REMARK  status: ('A' for Active; 'I' for Inactive)
REMARK    1  A    between atoms: C_1  and  C_2
REMARK    2  A    between atoms: C_2  and  N_3
REMARK    3  A    between atoms: C_12  and  O_13
REMARK    4  A    between atoms: C_14  and  N_15
REMARK    5  A    between atoms: N_18  and  C_19
REMARK                            x       y       z     vdW  Elec       q    Type
REMARK                         _______ _______ _______ _____ _____    ______ ____
ROOT
ATOM      1  N   UNL     1       3.470   3.584  -1.181  0.00  0.00    -0.383 N 
ATOM      2  C   UNL     1       2.321   4.077  -0.592  0.00  0.00    +0.075 A 
ATOM      3  C   UNL     1       1.080   3.286  -0.570  0.00  0.00    +0.042 A 
ATOM      4  C   UNL     1       1.028   2.014  -1.144  0.00  0.00    +0.013 A 
ATOM      5  C   UNL     1      -0.148   1.298  -1.107  0.00  0.00    +0.001 A 
ATOM      6  C   UNL     1      -1.278   1.838  -0.509  0.00  0.00    +0.004 A 
ATOM      7  C   UNL     1      -1.238   3.091   0.066  0.00  0.00    +0.047 A 
ATOM      8  C   UNL     1      -0.062   3.830   0.040  0.00  0.00    +0.141 A 
ATOM      9  O   UNL     1      -0.010   5.060   0.595  0.00  0.00    -0.424 OA
ATOM     10  C   UNL     1       1.111   5.797   0.585  0.00  0.00    +0.309 A 
ATOM     11  C   UNL     1       2.300   5.329  -0.004  0.00  0.00    +0.140 A 
ATOM     12  H   UNL     1       3.922   2.653  -0.809  0.00  0.00    +0.160 HD
ENDROOT
BRANCH  11  13
ATOM     13  N   UNL     1       3.458   6.128   0.003  0.00  0.00    -0.262 N 
ATOM     14  C   UNL     1       3.389   7.417  -0.386  0.00  0.00    +0.308 C 
ATOM     15  O   UNL     1       2.311   7.920  -0.639  0.00  0.00    -0.252 OA
ATOM     16  N   UNL     1       4.516   8.149  -0.493  0.00  0.00    -0.269 N 
ATOM     17  H   UNL     1       4.418   5.702   0.327  0.00  0.00    +0.157 HD
ATOM     18  H   UNL     1       5.497   7.675  -0.341  0.00  0.00    +0.156 HD
BRANCH  16  19
ATOM     19  C   UNL     1       4.438   9.514  -0.798  0.00  0.00    +0.036 A 
ATOM     20  C   UNL     1       3.455   9.978  -1.663  0.00  0.00    +0.026 A 
ATOM     21  C   UNL     1       3.376  11.325  -1.958  0.00  0.00    +0.041 A 
ATOM     22  C   UNL     1       4.283  12.211  -1.402  0.00  0.00    +0.142 A 
ATOM     23  C   UNL     1       5.267  11.750  -0.543  0.00  0.00    +0.078 A 
ATOM     24  C   UNL     1       5.346  10.403  -0.240  0.00  0.00    +0.046 A 
ATOM     25 CL   UNL     1       6.402  12.864   0.154  0.00  0.00    -0.081 Cl
ATOM     26  F   UNL     1       4.207  13.527  -1.696  0.00  0.00    -0.204 F 
ENDBRANCH  16  19
ENDBRANCH  11  13
BRANCH   1  28
ATOM     27  C   UNL     1       5.186   3.878  -2.903  0.00  0.00    +0.026 C 
ATOM     28  C   UNL     1       3.915   4.455  -2.277  0.00  0.00    +0.109 C 
ENDBRANCH   1  28
BRANCH  10  29
ATOM     29  O   UNL     1       1.100   6.901   1.101  0.00  0.00    -0.479 OA
ATOM     30  H   UNL     1       2.011   7.518   1.102  0.00  0.00    +0.295 HD
ENDBRANCH  10  29
TORSDOF 4
