REMARK  Name = ZINC44167748
REMARK  10 active torsions:
REMARK  status: ('A' for Active; 'I' for Inactive)
REMARK    1  A    between atoms: C_1  and  C_2
REMARK    2  A    between atoms: C_2  and  C_3
REMARK    3  A    between atoms: C_2  and  C_4
REMARK    4  A    between atoms: C_2  and  O_5
REMARK    5  A    between atoms: O_5  and  C_6
REMARK    6  A    between atoms: C_10  and  O_22
REMARK    7  A    between atoms: C_12  and  O_21
REMARK    8  A    between atoms: C_14  and  O_20
REMARK    9  A    between atoms: C_16  and  C_18
REMARK   10  A    between atoms: C_18  and  O_19
REMARK                            x       y       z     vdW  Elec       q    Type
REMARK                         _______ _______ _______ _____ _____    ______ ____
ROOT
ATOM      1  C   UNL     1       2.094  -0.383  -1.188  0.00  0.00    +0.404 C 
ATOM      2  O   UNL     1       2.623   0.326  -0.355  0.00  0.00    -0.226 OA
ATOM      3  N   UNL     1       2.732  -0.653  -2.345  0.00  0.00    -0.257 N 
ATOM      4  C   UNL     1       2.166  -1.610  -3.305  0.00  0.00    +0.145 C 
ATOM      5  C   UNL     1       3.227  -2.667  -3.630  0.00  0.00    +0.163 C 
ATOM      6  C   UNL     1       4.503  -1.973  -4.112  0.00  0.00    +0.175 C 
ATOM      7  C   UNL     1       5.045  -1.070  -3.001  0.00  0.00    +0.168 C 
ATOM      8  C   UNL     1       4.002   0.009  -2.672  0.00  0.00    +0.136 C 
ENDROOT
BRANCH   7   9
ATOM      9  O   UNL     1       6.253  -0.446  -3.441  0.00  0.00    -0.387 OA
ATOM     10  H   UNL     1       6.956  -1.069  -3.670  0.00  0.00    +0.210 HD
ENDBRANCH   7   9
BRANCH   6  11
ATOM     11  O   UNL     1       4.208  -1.183  -5.266  0.00  0.00    -0.387 OA
ATOM     12  H   UNL     1       3.860  -1.691  -6.011  0.00  0.00    +0.210 HD
ENDBRANCH   6  11
BRANCH   5  13
ATOM     13  O   UNL     1       3.513  -3.432  -2.457  0.00  0.00    -0.388 OA
ATOM     14  H   UNL     1       2.747  -3.898  -2.095  0.00  0.00    +0.210 HD
ENDBRANCH   5  13
BRANCH   1  15
ATOM     15  O   UNL     1       0.872  -0.898  -0.957  0.00  0.00    -0.445 OA
BRANCH  15  17
ATOM     16  C   UNL     1       0.088   0.947   0.392  0.00  0.00    +0.055 C 
ATOM     17  C   UNL     1       0.255  -0.570   0.290  0.00  0.00    +0.107 C 
ATOM     18  C   UNL     1       1.135  -1.065   1.440  0.00  0.00    +0.055 C 
ATOM     19  C   UNL     1      -1.117  -1.241   0.372  0.00  0.00    +0.055 C 
ENDBRANCH  15  17
ENDBRANCH   1  15
BRANCH   8  20
ATOM     20  C   UNL     1       4.475   0.833  -1.472  0.00  0.00    +0.181 C 
BRANCH  20  21
ATOM     21  O   UNL     1       3.595   1.942  -1.279  0.00  0.00    -0.393 OA
ATOM     22  H   UNL     1       3.835   2.509  -0.534  0.00  0.00    +0.209 HD
ENDBRANCH  20  21
ENDBRANCH   8  20
TORSDOF 7
