REMARK  Name = ZINC39345398
REMARK  8 active torsions:
REMARK  status: ('A' for Active; 'I' for Inactive)
REMARK    1  A    between atoms: C_1  and  C_2
REMARK    2  A    between atoms: C_4  and  C_9
REMARK    3  A    between atoms: C_5  and  O_8
REMARK    4  A    between atoms: C_9  and  C_11
REMARK    5  A    between atoms: C_9  and  C_26
REMARK    6  A    between atoms: C_14  and  C_16
REMARK    7  A    between atoms: C_21  and  N_22
REMARK    8  A    between atoms: C_27  and  C_32
REMARK                            x       y       z     vdW  Elec       q    Type
REMARK                         _______ _______ _______ _____ _____    ______ ____
ROOT
ATOM      1  C   UNL     1       0.285  -0.138  -2.685  0.00  0.00    +0.125 C 
ENDROOT
BRANCH   1   2
ATOM      2  C   UNL     1       0.425   1.341  -2.938  0.00  0.00    +0.055 A 
ATOM      3  C   UNL     1       1.170   1.935  -3.961  0.00  0.00    +0.068 A 
ATOM      4  N   UNL     1       1.048   3.234  -3.856  0.00  0.00    -0.176 NA
ATOM      5  N   UNL     1       0.220   3.512  -2.761  0.00  0.00    -0.243 N 
ATOM      6  C   UNL     1      -0.156   2.335  -2.214  0.00  0.00    +0.271 A 
ATOM      7  O   UNL     1      -0.965   2.174  -1.136  0.00  0.00    -0.266 OA
ATOM      8  C   UNL     1       1.976   1.206  -5.004  0.00  0.00    +0.068 C 
ATOM      9  H   UNL     1      -0.041   4.394  -2.452  0.00  0.00    +0.192 HD
ENDBRANCH   1   2
BRANCH   1  12
ATOM     10  C   UNL     1       2.754   1.115  -0.923  0.00  0.00    +0.039 C 
ATOM     11  C   UNL     1       1.501   0.468  -0.329  0.00  0.00    +0.157 C 
ATOM     12  C   UNL     1       0.857  -0.473  -1.332  0.00  0.00    +0.034 C 
ATOM     13  C   UNL     1       0.914  -1.670  -0.733  0.00  0.00    +0.234 C 
ATOM     14  N   UNL     1       1.502  -1.568   0.483  0.00  0.00    -0.116 NA
ATOM     15  N   UNL     1       1.856  -0.423   0.789  0.00  0.00    -0.176 NA
BRANCH  13  16
ATOM     16  O   UNL     1       0.446  -2.827  -1.271  0.00  0.00    -0.491 OA
ATOM     17  H   UNL     1       0.567  -3.601  -0.705  0.00  0.00    +0.294 HD
ENDBRANCH  13  16
ENDBRANCH   1  12
BRANCH   1  18
ATOM     18  C   UNL     1      -1.173  -0.519  -2.723  0.00  0.00    +0.118 A 
ATOM     19  C   UNL     1      -1.731  -1.407  -3.569  0.00  0.00    +0.046 A 
ATOM     20  C   UNL     1      -3.105  -1.461  -3.262  0.00  0.00    +0.050 A 
ATOM     21  C   UNL     1      -3.312  -0.593  -2.236  0.00  0.00    +0.137 A 
ATOM     22  O   UNL     1      -2.130  -0.033  -1.916  0.00  0.00    -0.459 OA
BRANCH  21  23
ATOM     23  C   UNL     1      -4.608  -0.317  -1.582  0.00  0.00    +0.047 A 
ATOM     24  C   UNL     1      -5.733  -0.020  -2.353  0.00  0.00    +0.015 A 
ATOM     25  C   UNL     1      -6.940   0.236  -1.736  0.00  0.00    +0.016 A 
ATOM     26  C   UNL     1      -7.037   0.199  -0.355  0.00  0.00    +0.020 A 
ATOM     27  C   UNL     1      -5.925  -0.095   0.414  0.00  0.00    +0.048 A 
ATOM     28  C   UNL     1      -4.714  -0.359  -0.191  0.00  0.00    +0.138 A 
ATOM     29 BR   UNL     1      -8.696   0.551   0.482  0.00  0.00    -0.050 Br
BRANCH  28  30
ATOM     30  N   UNL     1      -3.527  -0.679   0.634  0.00  0.00    +0.057 N 
ATOM     31  O   UNL     1      -3.619  -0.715   1.839  0.00  0.00    -0.126 OA
ATOM     32  O   UNL     1      -2.465  -0.905   0.102  0.00  0.00    -0.126 OA
ENDBRANCH  28  30
ENDBRANCH  21  23
ENDBRANCH   1  18
TORSDOF 6
