REMARK  Name = ZINC39751585
REMARK  6 active torsions:
REMARK  status: ('A' for Active; 'I' for Inactive)
REMARK    1  A    between atoms: C_1  and  C_2
REMARK    2  A    between atoms: C_2  and  N_3
REMARK    3  A    between atoms: C_4  and  C_24
REMARK    4  A    between atoms: C_8  and  S_10
REMARK    5  A    between atoms: S_10  and  C_11
REMARK    6  A    between atoms: C_11  and  C_12
REMARK                            x       y       z     vdW  Elec       q    Type
REMARK                         _______ _______ _______ _____ _____    ______ ____
ROOT
ATOM      1  N   UNL     1       0.649  -0.501   1.070  0.00  0.00    +0.410 N 
ATOM      2  C   UNL     1       0.622  -1.972   1.284  0.00  0.00    +0.050 C 
ATOM      3  N   UNL     1       1.803  -2.200   2.156  0.00  0.00    -0.267 NA
ATOM      4  N   UNL     1       2.815  -1.266   1.656  0.00  0.00    -0.262 NA
ATOM      5  C   UNL     1       2.091  -0.179   0.966  0.00  0.00    +0.077 C 
ATOM      6  H   UNL     1       1.581  -2.010   3.122  0.00  0.00    +0.139 HD
ATOM      7  H   UNL     1       3.455  -1.729   1.028  0.00  0.00    +0.140 HD
ATOM      8  H   UNL     1       0.235  -0.020   1.855  0.00  0.00    -0.075 HD
ENDROOT
BRANCH   2   9
ATOM      9  C   UNL     1      -0.649  -2.387   1.979  0.00  0.00    -0.032 A 
ATOM     10  C   UNL     1      -1.324  -1.486   2.782  0.00  0.00    +0.004 A 
ATOM     11  C   UNL     1      -2.490  -1.866   3.419  0.00  0.00    +0.000 A 
ATOM     12  C   UNL     1      -2.981  -3.148   3.255  0.00  0.00    +0.001 A 
ATOM     13  C   UNL     1      -2.307  -4.050   2.453  0.00  0.00    +0.015 A 
ATOM     14  C   UNL     1      -1.143  -3.668   1.811  0.00  0.00    +0.021 A 
ATOM     15 BR   UNL     1      -0.225  -4.899   0.708  0.00  0.00    -0.050 Br
ENDBRANCH   2   9
BRANCH   1  17
ATOM     16  C   UNL     1      -0.014   1.369  -0.366  0.00  0.00    -0.017 C 
ATOM     17  C   UNL     1      -0.048  -0.149  -0.175  0.00  0.00    -0.076 C 
ENDBRANCH   1  17
BRANCH   5  18
ATOM     18  S   UNL     1       2.434   1.407   1.776  0.00  0.00    -0.152 S 
BRANCH  18  19
ATOM     19  C   UNL     1       1.922   1.142   3.496  0.00  0.00    +0.143 C 
BRANCH  19  20
ATOM     20  C   UNL     1       2.157   2.401   4.290  0.00  0.00    +0.120 A 
ATOM     21  N   UNL     1       1.839   2.399   5.611  0.00  0.00    -0.310 N 
ATOM     22  H   UNL     1       1.470   1.598   6.015  0.00  0.00    +0.170 HD
ATOM     23  C   UNL     1       2.031   3.504   6.367  0.00  0.00    +0.259 A 
ATOM     24  O   UNL     1       1.751   3.516   7.552  0.00  0.00    -0.267 OA
ATOM     25  C   UNL     1       2.592   4.690   5.703  0.00  0.00    +0.065 A 
ATOM     26  C   UNL     1       2.829   5.878   6.392  0.00  0.00    +0.015 A 
ATOM     27  C   UNL     1       3.356   6.959   5.720  0.00  0.00    +0.001 A 
ATOM     28  C   UNL     1       3.652   6.873   4.366  0.00  0.00    +0.002 A 
ATOM     29  C   UNL     1       3.425   5.709   3.667  0.00  0.00    +0.028 A 
ATOM     30  C   UNL     1       2.892   4.599   4.326  0.00  0.00    +0.078 A 
ATOM     31  N   UNL     1       2.659   3.430   3.678  0.00  0.00    -0.233 NA
ENDBRANCH  19  20
ENDBRANCH  18  19
ENDBRANCH   5  18
TORSDOF 5
