REMARK  Name = ZINC16932666
REMARK  6 active torsions:
REMARK  status: ('A' for Active; 'I' for Inactive)
REMARK    1  A    between atoms: C_1  and  C_2
REMARK    2  A    between atoms: C_2  and  C_8
REMARK    3  A    between atoms: N_3  and  N_4
REMARK    4  A    between atoms: C_8  and  C_9
REMARK    5  A    between atoms: C_9  and  N_10
REMARK    6  A    between atoms: C_18  and  O_21
REMARK                            x       y       z     vdW  Elec       q    Type
REMARK                         _______ _______ _______ _____ _____    ______ ____
ROOT
ATOM      1  N   UNL     1      -4.010   3.056   0.155  0.00  0.00    -0.295 NA
ATOM      2  C   UNL     1      -4.473   3.650   1.414  0.00  0.00    +0.120 C 
ATOM      3  C   UNL     1      -5.974   3.772   1.420  0.00  0.00    -0.024 A 
ATOM      4  C   UNL     1      -6.562   4.629   2.339  0.00  0.00    +0.054 A 
ATOM      5  C   UNL     1      -7.937   4.772   2.385  0.00  0.00    +0.167 A 
ATOM      6  C   UNL     1      -8.735   4.048   1.501  0.00  0.00    +0.167 A 
ATOM      7  C   UNL     1      -8.144   3.196   0.587  0.00  0.00    +0.056 A 
ATOM      8  C   UNL     1      -6.764   3.058   0.544  0.00  0.00    -0.010 A 
ATOM      9  C   UNL     1      -6.168   2.123  -0.477  0.00  0.00    +0.159 C 
ATOM     10  C   UNL     1      -4.723   1.795  -0.104  0.00  0.00    +0.121 C 
ATOM     11  O   UNL     1     -10.043   4.357   1.742  0.00  0.00    -0.453 OA
ATOM     12  C   UNL     1     -10.015   5.580   2.502  0.00  0.00    +0.466 C 
ATOM     13  O   UNL     1      -8.745   5.534   3.178  0.00  0.00    -0.453 OA
ENDROOT
BRANCH   9  14
ATOM     14  O   UNL     1      -6.933   0.916  -0.519  0.00  0.00    -0.386 OA
ATOM     15  H   UNL     1      -6.649   0.109  -1.210  0.00  0.00    +0.210 HD
ENDBRANCH   9  14
BRANCH   1  16
ATOM     16  C   UNL     1      -2.557   2.845   0.176  0.00  0.00    +0.090 C 
BRANCH  16  17
ATOM     17  C   UNL     1      -2.209   1.789   1.227  0.00  0.00    +0.067 C 
BRANCH  17  19
ATOM     18  C   UNL     1      -0.108   0.451   0.446  0.00  0.00    +0.062 C 
ATOM     19  C   UNL     1      -0.718   1.572   1.248  0.00  0.00    +0.035 C 
ATOM     20  N   UNL     1       0.030   2.340   1.946  0.00  0.00    -0.188 NA
BRANCH  20  21
ATOM     21  N   UNL     1      -0.520   3.450   2.599  0.00  0.00    -0.191 N 
ATOM     22  C   UNL     1       0.282   4.316   3.251  0.00  0.00    +0.317 C 
ATOM     23  O   UNL     1      -0.197   5.279   3.818  0.00  0.00    -0.251 OA
ATOM     24  N   UNL     1       1.614   4.113   3.274  0.00  0.00    -0.312 N 
ATOM     25  H   UNL     1      -1.608   3.616   2.581  0.00  0.00    +0.179 HD
ATOM     26  H   UNL     1       2.268   4.819   3.806  0.00  0.00    +0.147 HD
ATOM     27  H   UNL     1       2.046   3.241   2.762  0.00  0.00    +0.147 HD
ENDBRANCH  20  21
ENDBRANCH  17  19
ENDBRANCH  16  17
ENDBRANCH   1  16
TORSDOF 5
