REMARK  Name = ZINC58951471
REMARK  9 active torsions:
REMARK  status: ('A' for Active; 'I' for Inactive)
REMARK    1  A    between atoms: C_1  and  C_2
REMARK    2  A    between atoms: N_5  and  C_9
REMARK    3  A    between atoms: C_9  and  C_11
REMARK    4  A    between atoms: C_9  and  C_27
REMARK    5  A    between atoms: C_11  and  N_12
REMARK    6  A    between atoms: C_13  and  C_15
REMARK    7  A    between atoms: C_15  and  C_16
REMARK    8  A    between atoms: C_16  and  C_18
REMARK    9  A    between atoms: C_16  and  N_23
REMARK                            x       y       z     vdW  Elec       q    Type
REMARK                         _______ _______ _______ _____ _____    ______ ____
ROOT
ATOM      1  N   UNL     1       2.462  -4.483  -3.412  0.00  0.00    -0.313 N 
ATOM      2  C   UNL     1       2.678  -5.805  -3.564  0.00  0.00    +0.215 C 
ATOM      3  O   UNL     1       2.176  -6.594  -2.791  0.00  0.00    -0.276 OA
ATOM      4  H   UNL     1       2.863  -3.853  -4.030  0.00  0.00    +0.149 HD
ENDROOT
BRANCH   1   5
ATOM      5  C   UNL     1       1.623  -4.000  -2.313  0.00  0.00    +0.128 C 
BRANCH   5   6
ATOM      6  C   UNL     1       1.427  -2.488  -2.448  0.00  0.00    +0.108 C 
BRANCH   6   7
ATOM      7  C   UNL     1       0.690  -2.189  -3.728  0.00  0.00    +0.025 A 
ATOM      8  C   UNL     1      -0.671  -2.429  -3.815  0.00  0.00    +0.129 A 
ATOM      9  C   UNL     1      -1.347  -2.154  -4.991  0.00  0.00    +0.039 A 
ATOM     10  C   UNL     1      -0.664  -1.639  -6.077  0.00  0.00    +0.004 A 
ATOM     11  C   UNL     1       0.694  -1.399  -5.990  0.00  0.00    +0.020 A 
ATOM     12  C   UNL     1       1.370  -1.668  -4.813  0.00  0.00    +0.048 A 
ATOM     13 CL   UNL     1       3.075  -1.360  -4.702  0.00  0.00    -0.083 Cl
ATOM     14  F   UNL     1      -1.338  -2.933  -2.754  0.00  0.00    -0.205 F 
ENDBRANCH   6   7
BRANCH   6  18
ATOM     15  C   UNL     1      -0.640   1.435  -0.314  0.00  0.00    +0.039 C 
ATOM     16  C   UNL     1      -0.454  -0.082  -0.244  0.00  0.00    +0.129 C 
ATOM     17  C   UNL     1       0.409  -0.545  -1.420  0.00  0.00    +0.116 C 
ATOM     18  N   UNL     1       0.648  -1.992  -1.306  0.00  0.00    -0.289 NA
ATOM     19  C   UNL     1       1.315  -2.310  -0.035  0.00  0.00    +0.113 C 
ATOM     20  C   UNL     1       0.442  -1.829   1.127  0.00  0.00    +0.175 C 
ATOM     21  O   UNL     1       0.193  -0.428   0.983  0.00  0.00    -0.374 OA
ENDBRANCH   6  18
ENDBRANCH   5   6
ENDBRANCH   1   5
BRANCH   2  22
ATOM     22  C   UNL     1       3.541  -6.303  -4.695  0.00  0.00    +0.123 C 
BRANCH  22  23
ATOM     23  C   UNL     1       3.622  -7.830  -4.640  0.00  0.00    +0.120 C 
BRANCH  23  24
ATOM     24  N   UNL     1       4.314  -8.238  -3.415  0.00  0.00    -0.292 N 
ATOM     25  C   UNL     1       4.084  -9.456  -2.886  0.00  0.00    +0.298 C 
ATOM     26  O   UNL     1       3.302 -10.216  -3.425  0.00  0.00    -0.253 OA
ATOM     27  N   UNL     1       4.720  -9.832  -1.759  0.00  0.00    -0.313 N 
ATOM     28  H   UNL     1       4.938  -7.633  -2.985  0.00  0.00    +0.151 HD
ATOM     29  H   UNL     1       5.344  -9.227  -1.329  0.00  0.00    +0.146 HD
ATOM     30  H   UNL     1       4.555 -10.709  -1.378  0.00  0.00    +0.146 HD
ENDBRANCH  23  24
BRANCH  23  31
ATOM     31  C   UNL     1       4.383  -8.335  -5.839  0.00  0.00    +0.010 A 
ATOM     32  C   UNL     1       3.905  -8.854  -6.996  0.00  0.00    +0.013 A 
ATOM     33  C   UNL     1       4.799  -9.257  -7.970  0.00  0.00    +0.008 A 
ATOM     34  C   UNL     1       6.128  -9.121  -7.739  0.00  0.00    +0.045 A 
ATOM     35  S   UNL     1       6.147  -8.398  -6.107  0.00  0.00    -0.100 S 
ENDBRANCH  23  31
ENDBRANCH  22  23
ENDBRANCH   2  22
TORSDOF 8
