REMARK  Name = ZINC50677155
REMARK  6 active torsions:
REMARK  status: ('A' for Active; 'I' for Inactive)
REMARK    1  A    between atoms: C_1  and  C_2
REMARK    2  A    between atoms: C_2  and  C_3
REMARK    3  A    between atoms: N_6  and  S_9
REMARK    4  A    between atoms: S_9  and  C_12
REMARK    5  A    between atoms: C_14  and  N_21
REMARK    6  A    between atoms: C_17  and  N_18
REMARK                            x       y       z     vdW  Elec       q    Type
REMARK                         _______ _______ _______ _____ _____    ______ ____
ROOT
ATOM      1  C   UNL     1      -6.014  -3.214   1.548  0.00  0.00    +0.137 A 
ATOM      2  C   UNL     1      -6.492  -2.304   0.625  0.00  0.00    +0.053 A 
ATOM      3  C   UNL     1      -7.834  -2.322   0.265  0.00  0.00    +0.027 A 
ATOM      4  C   UNL     1      -8.690  -3.255   0.835  0.00  0.00    +0.025 A 
ATOM      5  C   UNL     1      -8.206  -4.162   1.756  0.00  0.00    +0.036 A 
ATOM      6  C   UNL     1      -6.869  -4.146   2.109  0.00  0.00    +0.153 A 
ENDROOT
BRANCH   1   7
ATOM      7  S   UNL     1      -4.313  -3.193   2.005  0.00  0.00    +0.063 S 
ATOM      8  O   UNL     1      -3.822  -4.511   1.802  0.00  0.00    -0.153 OA
ATOM      9  O   UNL     1      -4.238  -2.538   3.263  0.00  0.00    -0.153 OA
BRANCH   7  13
ATOM     10  C   UNL     1      -1.375  -0.797  -0.240  0.00  0.00    -0.009 C 
ATOM     11  C   UNL     1      -2.010  -0.316   1.067  0.00  0.00    +0.020 C 
ATOM     12  C   UNL     1      -3.473  -0.767   1.116  0.00  0.00    +0.110 C 
ATOM     13  N   UNL     1      -3.526  -2.222   0.918  0.00  0.00    -0.176 NA
ATOM     14  C   UNL     1      -2.868  -2.799  -0.262  0.00  0.00    +0.110 C 
ATOM     15  C   UNL     1      -1.411  -2.325  -0.295  0.00  0.00    +0.020 C 
BRANCH  10  17
ATOM     16  C   UNL     1       0.108   1.210  -0.378  0.00  0.00    +0.004 C 
ATOM     17  C   UNL     1       0.077  -0.318  -0.307  0.00  0.00    +0.000 C 
ENDBRANCH  10  17
ENDBRANCH   7  13
ENDBRANCH   1   7
BRANCH   6  18
ATOM     18  N   UNL     1      -6.352  -5.123   3.093  0.00  0.00    +0.058 N 
ATOM     19  O   UNL     1      -7.066  -6.013   3.492  0.00  0.00    -0.126 OA
ATOM     20  O   UNL     1      -5.216  -5.031   3.497  0.00  0.00    -0.126 OA
ENDBRANCH   6  18
BRANCH   3  21
ATOM     21  N   UNL     1      -8.320  -1.402  -0.667  0.00  0.00    -0.358 N 
ATOM     22  H   UNL     1      -7.721  -0.751  -1.064  0.00  0.00    +0.142 HD
ATOM     23  H   UNL     1      -9.257  -1.416  -0.918  0.00  0.00    +0.142 HD
ENDBRANCH   3  21
TORSDOF 5
