REMARK  Name = ZINC35642035
REMARK  10 active torsions:
REMARK  status: ('A' for Active; 'I' for Inactive)
REMARK    1  A    between atoms: C_1  and  C_2
REMARK    2  A    between atoms: C_2  and  N_3
REMARK    3  A    between atoms: C_4  and  C_24
REMARK    4  A    between atoms: C_5  and  C_19
REMARK    5  A    between atoms: C_6  and  C_11
REMARK    6  A    between atoms: C_19  and  O_21
REMARK    7  A    between atoms: O_21  and  C_22
REMARK    8  A    between atoms: C_22  and  C_23
REMARK    9  A    between atoms: C_24  and  N_25
REMARK   10  A    between atoms: C_32  and  C_34
REMARK                            x       y       z     vdW  Elec       q    Type
REMARK                         _______ _______ _______ _____ _____    ______ ____
ROOT
ATOM      1  N   UNL     1      -1.764  -0.215   0.147  0.00  0.00    -0.261 N 
ATOM      2  C   UNL     1      -2.032  -0.828   1.337  0.00  0.00    +0.010 C 
ATOM      3  C   UNL     1      -3.128  -1.602   1.491  0.00  0.00    +0.076 C 
ATOM      4  C   UNL     1      -4.049  -1.765   0.299  0.00  0.00    +0.143 C 
ATOM      5  N   UNL     1      -3.671  -1.062  -0.938  0.00  0.00    -0.288 N 
ATOM      6  C   UNL     1      -2.545  -0.320  -0.935  0.00  0.00    +0.307 C 
ATOM      7  O   UNL     1      -2.226   0.268  -1.950  0.00  0.00    -0.252 OA
ATOM      8  H   UNL     1      -4.220  -1.127  -1.734  0.00  0.00    +0.151 HD
ENDROOT
BRANCH   4   9
ATOM      9  C   UNL     1      -5.420  -1.288   0.704  0.00  0.00    -0.021 A 
ATOM     10  C   UNL     1      -5.706   0.065   0.713  0.00  0.00    +0.007 A 
ATOM     11  C   UNL     1      -6.963   0.503   1.084  0.00  0.00    +0.022 A 
ATOM     12  C   UNL     1      -7.936  -0.411   1.445  0.00  0.00    +0.059 A 
ATOM     13  C   UNL     1      -7.650  -1.766   1.435  0.00  0.00    +0.060 A 
ATOM     14  C   UNL     1      -6.393  -2.203   1.059  0.00  0.00    +0.027 A 
ATOM     15 CL   UNL     1      -8.870  -2.914   1.889  0.00  0.00    -0.082 Cl
ATOM     16 CL   UNL     1      -9.515   0.140   1.912  0.00  0.00    -0.082 Cl
ENDBRANCH   4   9
BRANCH   1  18
ATOM     17  C   UNL     1      -0.887   2.047   0.460  0.00  0.00    +0.025 C 
ATOM     18  C   UNL     1      -0.557   0.610   0.050  0.00  0.00    +0.111 C 
ENDBRANCH   1  18
BRANCH   3  19
ATOM     19  C   UNL     1      -3.406  -2.239   2.723  0.00  0.00    +0.339 C 
ATOM     20  O   UNL     1      -2.704  -2.022   3.693  0.00  0.00    -0.245 OA
BRANCH  19  21
ATOM     21  O   UNL     1      -4.450  -3.088   2.823  0.00  0.00    -0.462 OA
BRANCH  21  22
ATOM     22  C   UNL     1      -4.673  -3.695   4.097  0.00  0.00    +0.229 C 
ATOM     23  C   UNL     1      -5.891  -4.618   4.017  0.00  0.00    +0.048 C 
ENDBRANCH  21  22
ENDBRANCH  19  21
ENDBRANCH   3  19
BRANCH   2  24
ATOM     24  C   UNL     1      -1.089  -0.639   2.497  0.00  0.00    -0.026 C 
BRANCH  24  25
ATOM     25  N   UNL     1      -0.213  -1.813   2.612  0.00  0.00    +0.384 N 
ATOM     26  C   UNL     1       0.497  -1.735   3.887  0.00  0.00    -0.077 C 
ATOM     27  C   UNL     1       0.805  -3.134   4.374  0.00  0.00    +0.000 C 
ATOM     28  C   UNL     1       2.213  -3.542   3.903  0.00  0.00    +0.106 C 
ATOM     29  N   UNL     1       2.468  -3.078   2.525  0.00  0.00    -0.303 N 
ATOM     30  C   UNL     1       1.465  -3.157   1.482  0.00  0.00    +0.089 C 
ATOM     31  C   UNL     1       0.617  -1.864   1.470  0.00  0.00    -0.059 C 
ATOM     32  C   UNL     1       3.676  -2.561   2.226  0.00  0.00    +0.219 C 
ATOM     33  O   UNL     1       3.909  -2.174   1.101  0.00  0.00    -0.275 OA
ATOM     34  H   UNL     1      -0.791  -2.640   2.623  0.00  0.00    -0.081 HD
BRANCH  32  35
ATOM     35  C   UNL     1       4.739  -2.466   3.290  0.00  0.00    +0.075 C 
ATOM     36  C   UNL     1       5.133  -1.069   3.772  0.00  0.00    +0.013 C 
ATOM     37  C   UNL     1       6.090  -1.871   2.888  0.00  0.00    +0.013 C 
ENDBRANCH  32  35
ENDBRANCH  24  25
ENDBRANCH   2  24
TORSDOF 8
