REMARK  Name = ZINC39362989
REMARK  7 active torsions:
REMARK  status: ('A' for Active; 'I' for Inactive)
REMARK    1  A    between atoms: C_1  and  C_2
REMARK    2  A    between atoms: C_2  and  C_3
REMARK    3  A    between atoms: C_3  and  S_4
REMARK    4  A    between atoms: S_4  and  C_5
REMARK    5  A    between atoms: C_8  and  C_18
REMARK    6  A    between atoms: N_10  and  C_11
REMARK    7  A    between atoms: C_18  and  C_19
REMARK                            x       y       z     vdW  Elec       q    Type
REMARK                         _______ _______ _______ _____ _____    ______ ____
ROOT
ATOM      1  C   UNL     1       1.795  -2.728  -2.664  0.00  0.00    +0.179 C 
ATOM      2  N   UNL     1       2.199  -1.853  -3.521  0.00  0.00    -0.162 NA
ATOM      3  N   UNL     1       2.565  -2.452  -4.732  0.00  0.00    -0.246 N 
ATOM      4  C   UNL     1       2.342  -3.897  -4.559  0.00  0.00    +0.187 C 
ATOM      5  N   UNL     1       1.841  -4.016  -3.179  0.00  0.00    -0.258 N 
ATOM      6  H   UNL     1       2.899  -2.005  -5.526  0.00  0.00    +0.170 HD
ENDROOT
BRANCH   5   7
ATOM      7  C   UNL     1       1.480  -5.194  -2.519  0.00  0.00    +0.038 A 
ATOM      8  C   UNL     1       2.448  -6.140  -2.206  0.00  0.00    +0.025 A 
ATOM      9  C   UNL     1       2.089  -7.303  -1.553  0.00  0.00    +0.022 A 
ATOM     10  C   UNL     1       0.767  -7.526  -1.212  0.00  0.00    +0.041 A 
ATOM     11  C   UNL     1      -0.200  -6.586  -1.523  0.00  0.00    +0.022 A 
ATOM     12  C   UNL     1       0.155  -5.418  -2.170  0.00  0.00    +0.025 A 
ATOM     13 CL   UNL     1       0.319  -8.990  -0.393  0.00  0.00    -0.084 Cl
ENDBRANCH   5   7
BRANCH   1  14
ATOM     14  S   UNL     1       1.256  -2.337  -1.033  0.00  0.00    -0.089 S 
BRANCH  14  15
ATOM     15  C   UNL     1       1.415  -0.532  -0.939  0.00  0.00    +0.077 C 
BRANCH  15  17
ATOM     16  C   UNL     1       1.107   1.469   0.524  0.00  0.00    +0.004 C 
ATOM     17  C   UNL     1       0.973  -0.053   0.445  0.00  0.00    +0.008 C 
ENDBRANCH  15  17
ENDBRANCH  14  15
ENDBRANCH   1  14
BRANCH   4  18
ATOM     18  C   UNL     1       1.302  -4.404  -5.561  0.00  0.00    +0.097 C 
BRANCH  18  19
ATOM     19  C   UNL     1       1.856  -4.295  -6.958  0.00  0.00    +0.029 A 
ATOM     20  N   UNL     1       1.759  -3.116  -7.646  0.00  0.00    -0.311 N 
ATOM     21  C   UNL     1       2.251  -3.008  -8.894  0.00  0.00    +0.327 A 
ATOM     22  O   UNL     1       2.153  -1.951  -9.487  0.00  0.00    -0.247 OA
ATOM     23  N   UNL     1       2.849  -4.053  -9.495  0.00  0.00    -0.275 N 
ATOM     24  C   UNL     1       2.965  -5.232  -8.851  0.00  0.00    +0.254 A 
ATOM     25  O   UNL     1       3.506  -6.178  -9.393  0.00  0.00    -0.268 OA
ATOM     26  C   UNL     1       2.456  -5.358  -7.535  0.00  0.00    +0.091 A 
ATOM     27  H   UNL     1       3.198  -3.958 -10.395  0.00  0.00    +0.173 HD
ATOM     28  H   UNL     1       1.331  -2.351  -7.231  0.00  0.00    +0.170 HD
ENDBRANCH  18  19
ENDBRANCH   4  18
TORSDOF 6
