REMARK  Name = ZINC58616006
REMARK  5 active torsions:
REMARK  status: ('A' for Active; 'I' for Inactive)
REMARK    1  A    between atoms: C_1  and  C_2
REMARK    2  A    between atoms: C_2  and  C_3
REMARK    3  A    between atoms: C_2  and  N_16
REMARK    4  A    between atoms: N_5  and  C_6
REMARK    5  A    between atoms: C_20  and  O_22
REMARK                            x       y       z     vdW  Elec       q    Type
REMARK                         _______ _______ _______ _____ _____    ______ ____
ROOT
ATOM      1  C   UNL     1      -1.444  -0.422  -0.070  0.00  0.00    +0.200 C 
ATOM      2  O   UNL     1      -1.865  -0.981  -1.060  0.00  0.00    -0.278 OA
ATOM      3  N   UNL     1      -2.269  -0.175   0.967  0.00  0.00    -0.311 N 
ATOM      4  H   UNL     1      -1.932   0.273   1.759  0.00  0.00    +0.149 HD
ENDROOT
BRANCH   3   5
ATOM      5  C   UNL     1      -3.675  -0.581   0.897  0.00  0.00    +0.035 C 
ATOM      6  C   UNL     1      -4.349   0.115  -0.287  0.00  0.00    +0.029 C 
ATOM      7  C   UNL     1      -5.817  -0.309  -0.359  0.00  0.00    -0.008 C 
ATOM      8  C   UNL     1      -6.527   0.086   0.937  0.00  0.00    +0.007 C 
ATOM      9  C   UNL     1      -5.853  -0.610   2.121  0.00  0.00    -0.008 C 
ATOM     10  C   UNL     1      -4.385  -0.186   2.193  0.00  0.00    +0.029 C 
ATOM     11  C   UNL     1      -5.937  -2.127   1.935  0.00  0.00    +0.007 C 
ATOM     12  C   UNL     1      -5.227  -2.522   0.639  0.00  0.00    -0.008 C 
ATOM     13  C   UNL     1      -5.901  -1.826  -0.545  0.00  0.00    +0.007 C 
ATOM     14  C   UNL     1      -3.759  -2.098   0.712  0.00  0.00    +0.029 C 
ENDBRANCH   3   5
BRANCH   1  16
ATOM     15  C   UNL     1       0.146   1.427  -0.520  0.00  0.00    -0.004 C 
ATOM     16  C   UNL     1       0.002  -0.004   0.002  0.00  0.00    +0.016 C 
BRANCH  16  17
ATOM     17  N   UNL     1       0.815  -0.909  -0.821  0.00  0.00    +0.389 N 
ATOM     18  C   UNL     1       0.662  -2.284  -0.331  0.00  0.00    -0.078 C 
ATOM     19  C   UNL     1       1.442  -3.242  -1.235  0.00  0.00    -0.016 C 
ATOM     20  C   UNL     1       2.924  -2.855  -1.220  0.00  0.00    +0.027 C 
ATOM     21  C   UNL     1       3.064  -1.395  -1.663  0.00  0.00    +0.098 C 
ATOM     22  C   UNL     1       2.224  -0.506  -0.743  0.00  0.00    -0.046 C 
ATOM     23  H   UNL     1       0.505  -0.860  -1.780  0.00  0.00    -0.081 HD
BRANCH  21  24
ATOM     24  O   UNL     1       4.436  -1.003  -1.583  0.00  0.00    -0.394 OA
ATOM     25  H   UNL     1       5.028  -1.527  -2.139  0.00  0.00    +0.210 HD
ENDBRANCH  21  24
ENDBRANCH  16  17
ENDBRANCH   1  16
TORSDOF 4
