REMARK  Name = ZINC36803874
REMARK  4 active torsions:
REMARK  status: ('A' for Active; 'I' for Inactive)
REMARK    1  A    between atoms: C_1  and  C_2
REMARK    2  A    between atoms: C_8  and  N_10
REMARK    3  A    between atoms: N_10  and  C_11
REMARK    4  A    between atoms: C_11  and  C_12
REMARK                            x       y       z     vdW  Elec       q    Type
REMARK                         _______ _______ _______ _____ _____    ______ ____
ROOT
ATOM      1  C   UNL     1       4.080   0.585   2.542  0.00  0.00    +0.124 A 
ATOM      2  N   UNL     1       4.763   0.711   3.709  0.00  0.00    -0.309 N 
ATOM      3  H   UNL     1       4.336   0.465   4.545  0.00  0.00    +0.170 HD
ATOM      4  C   UNL     1       6.034   1.178   3.718  0.00  0.00    +0.259 A 
ATOM      5  O   UNL     1       6.657   1.295   4.757  0.00  0.00    -0.267 OA
ATOM      6  C   UNL     1       6.632   1.536   2.423  0.00  0.00    +0.065 A 
ATOM      7  C   UNL     1       7.932   2.025   2.322  0.00  0.00    +0.015 A 
ATOM      8  C   UNL     1       8.442   2.346   1.083  0.00  0.00    +0.001 A 
ATOM      9  C   UNL     1       7.672   2.185  -0.061  0.00  0.00    +0.002 A 
ATOM     10  C   UNL     1       6.385   1.703   0.017  0.00  0.00    +0.028 A 
ATOM     11  C   UNL     1       5.845   1.371   1.261  0.00  0.00    +0.078 A 
ATOM     12  N   UNL     1       4.583   0.889   1.384  0.00  0.00    -0.232 NA
ENDROOT
BRANCH   1  13
ATOM     13  C   UNL     1       2.668   0.060   2.592  0.00  0.00    +0.156 C 
BRANCH  13  14
ATOM     14  N   UNL     1       2.120  -0.002   1.231  0.00  0.00    -0.306 NA
ATOM     15  H   UNL     1       2.707  -0.561   0.630  0.00  0.00    +0.123 HD
BRANCH  14  22
ATOM     16  C   UNL     1      -0.019   1.526   0.010  0.00  0.00    +0.009 C 
ATOM     17  C   UNL     1       0.002  -0.004   0.002  0.00  0.00    +0.003 C 
ATOM     18  C   UNL     1      -1.433  -0.534   0.013  0.00  0.00    +0.005 C 
ATOM     19  C   UNL     1      -1.413  -2.063   0.004  0.00  0.00    +0.000 C 
ATOM     20  C   UNL     1      -0.673  -2.570   1.244  0.00  0.00    +0.002 C 
ATOM     21  C   UNL     1       0.763  -2.041   1.233  0.00  0.00    +0.019 C 
ATOM     22  C   UNL     1       0.742  -0.511   1.242  0.00  0.00    +0.057 C 
ENDBRANCH  14  22
ENDBRANCH  13  14
ENDBRANCH   1  13
TORSDOF 3
