REMARK  Name = ZINC46865996
REMARK  6 active torsions:
REMARK  status: ('A' for Active; 'I' for Inactive)
REMARK    1  A    between atoms: C_1  and  C_2
REMARK    2  A    between atoms: C_2  and  N_3
REMARK    3  A    between atoms: C_5  and  C_12
REMARK    4  A    between atoms: N_14  and  C_15
REMARK    5  A    between atoms: C_15  and  C_17
REMARK    6  A    between atoms: C_15  and  C_18
REMARK                            x       y       z     vdW  Elec       q    Type
REMARK                         _______ _______ _______ _____ _____    ______ ____
ROOT
ATOM      1  C   UNL     1       0.738  -1.667  -4.651  0.00  0.00    +0.247 C 
ATOM      2  O   UNL     1       1.664  -1.992  -5.370  0.00  0.00    -0.270 OA
ATOM      3  N   UNL     1      -0.526  -1.721  -5.115  0.00  0.00    -0.305 N 
ATOM      4  H   UNL     1      -1.265  -1.461  -4.542  0.00  0.00    +0.150 HD
ENDROOT
BRANCH   1   7
ATOM      5  N   UNL     1       0.688  -0.476  -1.203  0.00  0.00    -0.346 N 
ATOM      6  C   UNL     1       0.070  -0.822  -2.358  0.00  0.00    +0.099 A 
ATOM      7  C   UNL     1       0.998  -1.216  -3.278  0.00  0.00    +0.062 A 
ATOM      8  C   UNL     1       2.312  -1.100  -2.620  0.00  0.00    +0.012 A 
ATOM      9  C   UNL     1       2.054  -0.627  -1.324  0.00  0.00    +0.050 A 
ATOM     10  C   UNL     1       3.116  -0.409  -0.453  0.00  0.00    +0.026 A 
ATOM     11  C   UNL     1       4.407  -0.655  -0.868  0.00  0.00    +0.002 A 
ATOM     12  C   UNL     1       4.661  -1.119  -2.150  0.00  0.00    +0.001 A 
ATOM     13  C   UNL     1       3.621  -1.349  -3.025  0.00  0.00    +0.011 A 
BRANCH   5  15
ATOM     14  C   UNL     1      -0.019   1.526   0.010  0.00  0.00    +0.027 C 
ATOM     15  C   UNL     1       0.002  -0.004   0.002  0.00  0.00    +0.118 C 
ENDBRANCH   5  15
ENDBRANCH   1   7
BRANCH   3  16
ATOM     16  C   UNL     1      -0.785  -2.171  -6.485  0.00  0.00    +0.100 C 
ATOM     17  C   UNL     1      -0.866  -3.698  -6.514  0.00  0.00    +0.033 C 
BRANCH  16  18
ATOM     18  C   UNL     1      -2.090  -1.590  -6.966  0.00  0.00    -0.025 A 
ATOM     19  C   UNL     1      -3.169  -1.510  -6.105  0.00  0.00    +0.009 A 
ATOM     20  C   UNL     1      -4.369  -0.977  -6.538  0.00  0.00    +0.048 A 
ATOM     21  C   UNL     1      -4.492  -0.522  -7.840  0.00  0.00    +0.142 A 
ATOM     22  C   UNL     1      -3.405  -0.604  -8.708  0.00  0.00    +0.076 A 
ATOM     23  C   UNL     1      -2.203  -1.133  -8.267  0.00  0.00    +0.032 A 
ATOM     24  N   UNL     1      -3.543  -0.142 -10.025  0.00  0.00    -0.280 N 
ATOM     25  C   UNL     1      -4.595   0.647 -10.335  0.00  0.00    +0.255 C 
ATOM     26  O   UNL     1      -4.753   1.033 -11.474  0.00  0.00    -0.272 OA
ATOM     27  C   UNL     1      -5.573   1.046  -9.259  0.00  0.00    +0.325 C 
ATOM     28  O   UNL     1      -5.664   0.006  -8.282  0.00  0.00    -0.481 OA
ATOM     29  H   UNL     1      -2.894  -0.385 -10.703  0.00  0.00    +0.155 HD
ENDBRANCH  16  18
ENDBRANCH   3  16
TORSDOF 4
