REMARK  Name = ZINC49778606
REMARK  9 active torsions:
REMARK  status: ('A' for Active; 'I' for Inactive)
REMARK    1  A    between atoms: C_1  and  C_2
REMARK    2  A    between atoms: C_2  and  C_4
REMARK    3  A    between atoms: C_2  and  N_12
REMARK    4  A    between atoms: C_9  and  O_10
REMARK    5  A    between atoms: O_10  and  C_11
REMARK    6  A    between atoms: N_15  and  C_16
REMARK    7  A    between atoms: N_15  and  C_17
REMARK    8  A    between atoms: C_17  and  C_18
REMARK    9  A    between atoms: C_22  and  C_24
REMARK                            x       y       z     vdW  Elec       q    Type
REMARK                         _______ _______ _______ _____ _____    ______ ____
ROOT
ATOM      1  N   UNL     1       0.711  -0.489   1.189  0.00  0.00    -0.293 N 
ATOM      2  C   UNL     1       2.054  -0.600   1.174  0.00  0.00    +0.303 C 
ATOM      3  O   UNL     1       2.677  -0.297   0.175  0.00  0.00    -0.253 OA
ATOM      4  N   UNL     1       2.706  -1.046   2.266  0.00  0.00    -0.284 N 
ATOM      5  C   UNL     1       1.954  -1.411   3.469  0.00  0.00    +0.134 C 
ATOM      6  H   UNL     1       0.213  -0.731   1.986  0.00  0.00    +0.151 HD
ENDROOT
BRANCH   1   8
ATOM      7  C   UNL     1      -0.019   1.526   0.010  0.00  0.00    +0.033 C 
ATOM      8  C   UNL     1       0.002  -0.004   0.002  0.00  0.00    +0.105 C 
BRANCH   8   9
ATOM      9  C   UNL     1      -1.412  -0.526   0.013  0.00  0.00    +0.014 A 
ATOM     10  C   UNL     1      -2.015  -0.864   1.209  0.00  0.00    +0.009 A 
ATOM     11  C   UNL     1      -3.312  -1.343   1.219  0.00  0.00    +0.001 A 
ATOM     12  C   UNL     1      -4.008  -1.484   0.033  0.00  0.00    +0.004 A 
ATOM     13  C   UNL     1      -3.410  -1.147  -1.165  0.00  0.00    +0.046 A 
ATOM     14  C   UNL     1      -2.111  -0.661  -1.178  0.00  0.00    +0.125 A 
BRANCH  14  15
ATOM     15  O   UNL     1      -1.522  -0.324  -2.355  0.00  0.00    -0.495 OA
ATOM     16  C   UNL     1      -2.301  -0.489  -3.541  0.00  0.00    +0.277 C 
ENDBRANCH  14  15
ENDBRANCH   8   9
ENDBRANCH   1   8
BRANCH   4  17
ATOM     17  C   UNL     1       4.166  -1.166   2.249  0.00  0.00    +0.144 C 
BRANCH  17  18
ATOM     18  C   UNL     1       4.781   0.126   2.720  0.00  0.00    -0.029 A 
ATOM     19  C   UNL     1       5.078   1.122   1.807  0.00  0.00    +0.005 A 
ATOM     20  C   UNL     1       5.644   2.312   2.230  0.00  0.00    +0.002 A 
ATOM     21  C   UNL     1       5.915   2.513   3.568  0.00  0.00    +0.019 A 
ATOM     22  C   UNL     1       5.617   1.512   4.495  0.00  0.00    +0.052 A 
ATOM     23  C   UNL     1       5.042   0.315   4.061  0.00  0.00    +0.024 A 
BRANCH  22  24
ATOM     24  C   UNL     1       5.896   1.713   5.885  0.00  0.00    +0.099 C 
ATOM     25  N   UNL     1       6.117   1.873   6.988  0.00  0.00    -0.191 NA
ENDBRANCH  22  24
ENDBRANCH  17  18
ENDBRANCH   4  17
TORSDOF 6
