REMARK  Name = ZINC20257645
REMARK  5 active torsions:
REMARK  status: ('A' for Active; 'I' for Inactive)
REMARK    1  A    between atoms: C_1  and  C_2
REMARK    2  A    between atoms: N_7  and  S_9
REMARK    3  A    between atoms: S_9  and  N_12
REMARK    4  A    between atoms: N_12  and  C_13
REMARK    5  A    between atoms: C_13  and  C_14
REMARK                            x       y       z     vdW  Elec       q    Type
REMARK                         _______ _______ _______ _____ _____    ______ ____
ROOT
ATOM      1  S   UNL     1       3.010   5.099  -0.370  0.00  0.00    +0.014 S 
ATOM      2  O   UNL     1       4.424   5.212  -0.272  0.00  0.00    -0.174 OA
ATOM      3  O   UNL     1       2.302   5.420  -1.560  0.00  0.00    -0.174 OA
ENDROOT
BRANCH   1   9
ATOM      4  C   UNL     1       3.893   8.241   3.517  0.00  0.00    +0.009 C 
ATOM      5  C   UNL     1       3.190   7.892   2.204  0.00  0.00    +0.002 C 
ATOM      6  C   UNL     1       1.754   8.421   2.237  0.00  0.00    +0.006 C 
ATOM      7  C   UNL     1       1.060   8.101   0.911  0.00  0.00    +0.017 C 
ATOM      8  C   UNL     1       1.014   6.587   0.715  0.00  0.00    +0.107 C 
ATOM      9  N   UNL     1       2.376   6.048   0.829  0.00  0.00    -0.193 NA
ATOM     10  C   UNL     1       3.166   6.371   2.025  0.00  0.00    +0.110 C 
ENDBRANCH   1   9
BRANCH   1  11
ATOM     11  N   UNL     1       2.634   3.529  -0.004  0.00  0.00    +0.445 N 
ATOM     12  H   UNL     1       3.115   2.857  -0.731  0.00  0.00    -0.047 HD
ATOM     13  H   UNL     1       2.994   3.292   1.008  0.00  0.00    -0.047 HD
BRANCH  11  14
ATOM     14  C   UNL     1       1.235   3.094   0.007  0.00  0.00    +0.080 C 
BRANCH  14  15
ATOM     15  C   UNL     1       1.177   1.588  -0.001  0.00  0.00    +0.343 C 
ATOM     16  O   UNL     1       2.199   0.944  -0.014  0.00  0.00    -0.248 OA
ATOM     17  O   UNL     1      -0.011   0.963   0.007  0.00  0.00    -0.248 OA
ENDBRANCH  14  15
ENDBRANCH  11  14
ENDBRANCH   1  11
TORSDOF 4
