REMARK  Name = ZINC56708907
REMARK  12 active torsions:
REMARK  status: ('A' for Active; 'I' for Inactive)
REMARK    1  A    between atoms: C_1  and  C_2
REMARK    2  A    between atoms: C_2  and  C_3
REMARK    3  A    between atoms: C_3  and  C_4
REMARK    4  A    between atoms: C_3  and  C_6
REMARK    5  A    between atoms: C_4  and  C_5
REMARK    6  A    between atoms: C_6  and  C_8
REMARK    7  A    between atoms: C_6  and  N_13
REMARK    8  A    between atoms: N_16  and  C_17
REMARK    9  A    between atoms: C_20  and  O_24
REMARK   10  A    between atoms: C_22  and  C_23
REMARK   11  A    between atoms: O_24  and  C_25
REMARK   12  A    between atoms: C_25  and  C_26
REMARK                            x       y       z     vdW  Elec       q    Type
REMARK                         _______ _______ _______ _____ _____    ______ ____
ROOT
ATOM      1  N   UNL     1      -2.180   0.827   0.481  0.00  0.00    -0.292 N 
ATOM      2  C   UNL     1      -1.337   1.857   0.274  0.00  0.00    +0.304 C 
ATOM      3  O   UNL     1      -0.180   1.643  -0.035  0.00  0.00    -0.252 OA
ATOM      4  N   UNL     1      -1.775   3.124   0.410  0.00  0.00    -0.269 N 
ATOM      5  H   UNL     1      -3.119   0.996   0.657  0.00  0.00    +0.151 HD
ATOM      6  H   UNL     1      -2.675   3.295   0.728  0.00  0.00    +0.156 HD
ENDROOT
BRANCH   4   7
ATOM      7  C   UNL     1      -0.930   4.196   0.091  0.00  0.00    +0.038 A 
ATOM      8  C   UNL     1       0.445   4.062   0.232  0.00  0.00    +0.027 A 
ATOM      9  C   UNL     1       1.277   5.118  -0.083  0.00  0.00    +0.047 A 
ATOM     10  C   UNL     1       0.740   6.313  -0.540  0.00  0.00    +0.122 A 
ATOM     11  C   UNL     1      -0.633   6.447  -0.682  0.00  0.00    +0.050 A 
ATOM     12  C   UNL     1      -1.466   5.389  -0.372  0.00  0.00    -0.026 A 
ATOM     13  C   UNL     1      -2.958   5.533  -0.532  0.00  0.00    +0.046 C 
BRANCH  10  14
ATOM     14  O   UNL     1       1.560   7.353  -0.849  0.00  0.00    -0.483 OA
BRANCH  14  15
ATOM     15  C   UNL     1       2.963   7.145  -0.679  0.00  0.00    +0.324 C 
BRANCH  15  16
ATOM     16  C   UNL     1       3.707   8.396  -1.068  0.00  0.00    +0.248 C 
ATOM     17  O   UNL     1       3.095   9.370  -1.453  0.00  0.00    -0.272 OA
ATOM     18  N   UNL     1       5.052   8.433  -0.988  0.00  0.00    -0.327 N 
ATOM     19  H   UNL     1       5.541   7.654  -0.680  0.00  0.00    +0.145 HD
ATOM     20  H   UNL     1       5.531   9.239  -1.238  0.00  0.00    +0.145 HD
ENDBRANCH  15  16
ENDBRANCH  14  15
ENDBRANCH  10  14
ENDBRANCH   4   7
BRANCH   1  21
ATOM     21  C   UNL     1      -1.680  -0.550   0.440  0.00  0.00    +0.114 C 
BRANCH  21  22
ATOM     22  C   UNL     1      -2.719  -1.479   1.012  0.00  0.00    +0.010 A 
ATOM     23  C   UNL     1      -2.545  -2.606   1.744  0.00  0.00    +0.013 A 
ATOM     24  C   UNL     1      -3.658  -3.309   2.168  0.00  0.00    +0.008 A 
ATOM     25  C   UNL     1      -4.890  -2.850   1.837  0.00  0.00    +0.045 A 
ATOM     26  S   UNL     1      -4.498  -1.378   0.905  0.00  0.00    -0.100 S 
ENDBRANCH  21  22
BRANCH  21  27
ATOM     27  C   UNL     1      -1.385  -0.942  -1.009  0.00  0.00    +0.014 C 
BRANCH  27  29
ATOM     28  C   UNL     1       0.675  -2.217  -0.401  0.00  0.00    +0.004 C 
ATOM     29  C   UNL     1      -0.712  -2.316  -1.038  0.00  0.00    +0.002 C 
ENDBRANCH  27  29
BRANCH  27  30
ATOM     30  C   UNL     1      -2.695  -1.000  -1.798  0.00  0.00    +0.002 C 
ATOM     31  C   UNL     1      -3.281   0.408  -1.916  0.00  0.00    +0.004 C 
ENDBRANCH  27  30
ENDBRANCH  21  27
ENDBRANCH   1  21
TORSDOF 9
