REMARK  Name = ZINC35734542
REMARK  5 active torsions:
REMARK  status: ('A' for Active; 'I' for Inactive)
REMARK    1  A    between atoms: C_1  and  C_2
REMARK    2  A    between atoms: C_2  and  C_4
REMARK    3  A    between atoms: C_2  and  N_10
REMARK    4  A    between atoms: N_10  and  C_11
REMARK    5  A    between atoms: C_16  and  N_17
REMARK                            x       y       z     vdW  Elec       q    Type
REMARK                         _______ _______ _______ _____ _____    ______ ____
ROOT
ATOM      1  C   UNL     1      -2.077  -0.648  -1.190  0.00  0.00    +0.050 A 
ATOM      2  C   UNL     1      -1.474  -0.309  -2.390  0.00  0.00    +0.048 A 
ATOM      3  C   UNL     1      -2.175  -0.446  -3.581  0.00  0.00    +0.038 A 
ATOM      4  C   UNL     1      -3.479  -0.922  -3.569  0.00  0.00    -0.024 A 
ATOM      5  C   UNL     1      -4.083  -1.260  -2.372  0.00  0.00    +0.030 A 
ATOM      6  C   UNL     1      -3.386  -1.130  -1.181  0.00  0.00    +0.046 A 
ATOM      7  C   UNL     1      -4.235  -1.071  -4.864  0.00  0.00    +0.046 C 
ATOM      8  C   UNL     1      -3.816   0.038  -5.830  0.00  0.00    +0.101 C 
ATOM      9  C   UNL     1      -2.315   0.125  -5.891  0.00  0.00    +0.218 C 
ATOM     10  O   UNL     1      -1.773   0.406  -6.939  0.00  0.00    -0.275 OA
ATOM     11  N   UNL     1      -1.567  -0.105  -4.796  0.00  0.00    -0.285 N 
ATOM     12  H   UNL     1      -0.602  -0.034  -4.849  0.00  0.00    +0.155 HD
ENDROOT
BRANCH   6  13
ATOM     13  N   UNL     1      -3.997  -1.479   0.032  0.00  0.00    -0.357 N 
ATOM     14  H   UNL     1      -3.510  -1.385   0.865  0.00  0.00    +0.142 HD
ATOM     15  H   UNL     1      -4.907  -1.815   0.037  0.00  0.00    +0.142 HD
ENDBRANCH   6  13
BRANCH   1  16
ATOM     16  N   UNL     1      -1.372  -0.511   0.012  0.00  0.00    -0.337 N 
ATOM     17  H   UNL     1      -1.794  -0.752   0.852  0.00  0.00    +0.146 HD
BRANCH  16  19
ATOM     18  C   UNL     1      -0.019   1.526   0.010  0.00  0.00    +0.030 C 
ATOM     19  C   UNL     1       0.002  -0.004   0.002  0.00  0.00    +0.096 C 
BRANCH  19  20
ATOM     20  C   UNL     1       0.742  -0.511   1.242  0.00  0.00    +0.138 C 
ATOM     21  C   UNL     1       2.224  -0.061   1.204  0.00  0.00    +0.035 C 
ATOM     22  C   UNL     1       2.576  -0.081   2.717  0.00  0.00    +0.031 C 
ATOM     23  C   UNL     1       1.245   0.351   3.369  0.00  0.00    +0.160 C 
ATOM     24  O   UNL     1       0.196   0.087   2.428  0.00  0.00    -0.375 OA
ENDBRANCH  19  20
ENDBRANCH  16  19
ENDBRANCH   1  16
TORSDOF 4
