REMARK  Name = ZINC61053331
REMARK  3 active torsions:
REMARK  status: ('A' for Active; 'I' for Inactive)
REMARK    1  A    between atoms: C_3  and  S_9
REMARK    2  A    between atoms: C_4  and  N_8
REMARK    3  A    between atoms: S_9  and  C_10
REMARK                            x       y       z     vdW  Elec       q    Type
REMARK                         _______ _______ _______ _____ _____    ______ ____
ROOT
ATOM      1  S   UNL     1       3.760   2.395  -0.022  0.00  0.00    -0.028 S 
ENDROOT
BRANCH   1   2
ATOM      2  C   UNL     1       3.187   4.061  -0.008  0.00  0.00    +0.198 A 
ATOM      3  N   UNL     1       1.934   4.457   0.012  0.00  0.00    -0.122 NA
ATOM      4  N   UNL     1       1.882   5.744   0.025  0.00  0.00    -0.134 NA
ATOM      5  C   UNL     1       3.086   6.235   0.017  0.00  0.00    +0.134 A 
ATOM      6  N   UNL     1       3.956   5.183  -0.009  0.00  0.00    -0.306 N 
ATOM      7  C   UNL     1       5.416   5.262  -0.050  0.00  0.00    +0.125 C 
ATOM      8  C   UNL     1       5.872   6.558   0.625  0.00  0.00    +0.022 C 
ATOM      9  C   UNL     1       5.935   7.683  -0.406  0.00  0.00    +0.002 C 
ATOM     10  C   UNL     1       4.556   7.940  -1.007  0.00  0.00    +0.008 C 
ATOM     11  C   UNL     1       3.478   7.690   0.045  0.00  0.00    +0.076 C 
ENDBRANCH   1   2
BRANCH   1  14
ATOM     12  C   UNL     1      -0.016   1.313   0.009  0.00  0.00    +0.224 A 
ATOM     13  N   UNL     1       1.093   2.027   0.003  0.00  0.00    -0.227 NA
ATOM     14  C   UNL     1       2.283   1.435  -0.012  0.00  0.00    +0.130 A 
ATOM     15  C   UNL     1       2.342   0.035  -0.020  0.00  0.00    +0.095 A 
ATOM     16  C   UNL     1       1.148  -0.673  -0.013  0.00  0.00    +0.154 A 
ATOM     17  N   UNL     1       0.002  -0.004   0.002  0.00  0.00    -0.222 NA
ATOM     18 CL   UNL     1       1.154  -2.409  -0.022  0.00  0.00    -0.060 Cl
BRANCH  15  19
ATOM     19  N   UNL     1       3.574  -0.632  -0.036  0.00  0.00    -0.354 N 
ATOM     20  H   UNL     1       4.401  -0.125  -0.042  0.00  0.00    +0.142 HD
ATOM     21  H   UNL     1       3.600  -1.602  -0.042  0.00  0.00    +0.142 HD
ENDBRANCH  15  19
ENDBRANCH   1  14
TORSDOF 3
