REMARK  Name = ZINC08790566
REMARK  4 active torsions:
REMARK  status: ('A' for Active; 'I' for Inactive)
REMARK    1  A    between atoms: C_16  and  C_18
REMARK    2  A    between atoms: C_18  and  C_19
REMARK    3  A    between atoms: N_24  and  C_27
REMARK    4  A    between atoms: C_27  and  C_28
REMARK                            x       y       z     vdW  Elec       q    Type
REMARK                         _______ _______ _______ _____ _____    ______ ____
ROOT
ATOM      1  C   UNL     1      -1.731   5.133   4.497  0.00  0.00    +0.002 A 
ATOM      2  C   UNL     1      -1.091   4.332   3.567  0.00  0.00    +0.004 A 
ATOM      3  C   UNL     1       0.204   4.612   3.192  0.00  0.00    -0.026 A 
ATOM      4  C   UNL     1       0.883   5.696   3.740  0.00  0.00    +0.054 A 
ATOM      5  C   UNL     1       0.231   6.497   4.675  0.00  0.00    +0.062 A 
ATOM      6  C   UNL     1      -1.067   6.213   5.048  0.00  0.00    +0.022 A 
ATOM      7 CL   UNL     1       1.054   7.857   5.374  0.00  0.00    -0.082 Cl
ATOM      8  N   UNL     1       2.173   5.776   3.209  0.00  0.00    -0.285 N 
ATOM      9  C   UNL     1       2.418   4.796   2.319  0.00  0.00    +0.211 C 
ATOM     10  O   UNL     1       3.447   4.617   1.703  0.00  0.00    -0.277 OA
ATOM     11  C   UNL     1       1.166   3.966   2.236  0.00  0.00    +0.050 C 
ATOM     12  C   UNL     1       0.607   3.936   0.808  0.00  0.00    +0.088 C 
ATOM     13  C   UNL     1       1.120   2.594   0.215  0.00  0.00    +0.073 C 
ATOM     14  C   UNL     1       1.952   1.953   1.346  0.00  0.00    -0.049 C 
ATOM     15  C   UNL     1      -0.147   1.795   0.013  0.00  0.00    +0.224 C 
ATOM     16  O   UNL     1      -0.201   0.667  -0.429  0.00  0.00    -0.275 OA
ATOM     17  N   UNL     1      -1.201   2.528   0.391  0.00  0.00    -0.237 N 
ATOM     18  C   UNL     1      -0.893   3.744   0.856  0.00  0.00    +0.225 C 
ATOM     19  O   UNL     1      -1.692   4.567   1.249  0.00  0.00    -0.275 OA
ATOM     20  H   UNL     1       2.818   6.458   3.454  0.00  0.00    +0.155 HD
ATOM     21  N   UNL     1       1.433   2.576   2.565  0.00  0.00    +0.394 N 
ATOM     22  H   UNL     1       0.567   2.109   2.861  0.00  0.00    -0.083 HD
ATOM     23  H   UNL     1       2.128   2.517   3.318  0.00  0.00    -0.083 HD
ENDROOT
BRANCH  14  24
ATOM     24  C   UNL     1       3.434   2.290   1.171  0.00  0.00    +0.080 C 
BRANCH  24  25
ATOM     25  C   UNL     1       4.104   1.210   0.362  0.00  0.00    +0.209 C 
ATOM     26  O   UNL     1       3.458   0.263  -0.037  0.00  0.00    -0.276 OA
ATOM     27  N   UNL     1       5.419   1.295   0.080  0.00  0.00    -0.329 N 
ATOM     28  H   UNL     1       5.935   2.052   0.399  0.00  0.00    +0.145 HD
ATOM     29  H   UNL     1       5.849   0.600  -0.441  0.00  0.00    +0.145 HD
ENDBRANCH  24  25
ENDBRANCH  14  24
BRANCH  17  30
ATOM     30  C   UNL     1      -2.579   2.037   0.307  0.00  0.00    +0.151 C 
BRANCH  30  31
ATOM     31  C   UNL     1      -2.944   1.345   1.595  0.00  0.00    -0.026 A 
ATOM     32  C   UNL     1      -2.719  -0.012   1.736  0.00  0.00    +0.009 A 
ATOM     33  C   UNL     1      -3.047  -0.650   2.918  0.00  0.00    +0.050 A 
ATOM     34  C   UNL     1      -3.614   0.066   3.959  0.00  0.00    +0.166 A 
ATOM     35  C   UNL     1      -3.845   1.432   3.815  0.00  0.00    +0.167 A 
ATOM     36  C   UNL     1      -3.508   2.067   2.630  0.00  0.00    +0.054 A 
ATOM     37  O   UNL     1      -4.404   1.904   4.967  0.00  0.00    -0.453 OA
ATOM     38  C   UNL     1      -4.888   0.741   5.664  0.00  0.00    +0.466 C 
ATOM     39  O   UNL     1      -4.028  -0.317   5.202  0.00  0.00    -0.453 OA
ENDBRANCH  30  31
ENDBRANCH  17  30
TORSDOF 4
