REMARK  Name = ZINC50653672
REMARK  6 active torsions:
REMARK  status: ('A' for Active; 'I' for Inactive)
REMARK    1  A    between atoms: C_1  and  C_2
REMARK    2  A    between atoms: C_7  and  N_10
REMARK    3  A    between atoms: N_10  and  S_11
REMARK    4  A    between atoms: S_11  and  C_14
REMARK    5  A    between atoms: C_16  and  N_21
REMARK    6  A    between atoms: C_19  and  N_20
REMARK                            x       y       z     vdW  Elec       q    Type
REMARK                         _______ _______ _______ _____ _____    ______ ____
ROOT
ATOM      1  S   UNL     1       2.376  -3.739   0.155  0.00  0.00    +0.060 S 
ATOM      2  O   UNL     1       3.091  -3.924  -1.059  0.00  0.00    -0.153 OA
ATOM      3  O   UNL     1       3.026  -3.449   1.385  0.00  0.00    -0.153 OA
ENDROOT
BRANCH   1   4
ATOM      4  C   UNL     1       1.438  -5.208   0.416  0.00  0.00    +0.128 A 
ATOM      5  C   UNL     1       1.485  -5.850   1.639  0.00  0.00    +0.063 A 
ATOM      6  C   UNL     1       0.749  -7.003   1.844  0.00  0.00    +0.128 A 
ATOM      7  C   UNL     1      -0.036  -7.516   0.828  0.00  0.00    +0.034 A 
ATOM      8  C   UNL     1      -0.087  -6.880  -0.396  0.00  0.00    +0.027 A 
ATOM      9  C   UNL     1       0.647  -5.718  -0.604  0.00  0.00    +0.051 A 
BRANCH   9  10
ATOM     10  N   UNL     1       0.593  -5.068  -1.839  0.00  0.00    -0.356 N 
ATOM     11  H   UNL     1       1.082  -4.241  -1.974  0.00  0.00    +0.142 HD
ATOM     12  H   UNL     1       0.066  -5.444  -2.562  0.00  0.00    +0.142 HD
ENDBRANCH   9  10
BRANCH   6  13
ATOM     13  N   UNL     1       0.802  -7.688   3.155  0.00  0.00    +0.056 N 
ATOM     14  O   UNL     1       1.488  -7.240   4.044  0.00  0.00    -0.126 OA
ATOM     15  O   UNL     1       0.160  -8.696   3.336  0.00  0.00    -0.126 OA
ENDBRANCH   6  13
ENDBRANCH   1   4
BRANCH   1  16
ATOM     16  N   UNL     1       1.298  -2.511  -0.112  0.00  0.00    -0.187 NA
ATOM     17  H   UNL     1       1.279  -2.061  -0.971  0.00  0.00    +0.148 HD
BRANCH  16  23
ATOM     18  C   UNL     1       0.639   1.702   0.423  0.00  0.00    +0.007 C 
ATOM     19  C   UNL     1       0.392   0.234   0.067  0.00  0.00    -0.013 C 
ATOM     20  C   UNL     1      -1.049   0.062  -0.418  0.00  0.00    +0.003 C 
ATOM     21  C   UNL     1      -1.296  -1.405  -0.774  0.00  0.00    +0.002 C 
ATOM     22  C   UNL     1      -1.067  -2.275   0.464  0.00  0.00    +0.020 C 
ATOM     23  C   UNL     1       0.374  -2.104   0.949  0.00  0.00    +0.077 C 
ATOM     24  C   UNL     1       0.621  -0.636   1.305  0.00  0.00    +0.023 C 
ENDBRANCH  16  23
ENDBRANCH   1  16
TORSDOF 5
