REMARK  Name = ZINC01237073
REMARK  8 active torsions:
REMARK  status: ('A' for Active; 'I' for Inactive)
REMARK    1  A    between atoms: C_1  and  C_2
REMARK    2  A    between atoms: C_2  and  C_3
REMARK    3  A    between atoms: C_3  and  N_4
REMARK    4  A    between atoms: C_8  and  C_9
REMARK    5  A    between atoms: C_10  and  N_21
REMARK    6  A    between atoms: C_15  and  C_20
REMARK    7  A    between atoms: N_21  and  C_22
REMARK    8  A    between atoms: C_22  and  C_23
REMARK                            x       y       z     vdW  Elec       q    Type
REMARK                         _______ _______ _______ _____ _____    ______ ____
ROOT
ATOM      1  C   UNL     1       4.853   0.188   0.100  0.00  0.00    +0.081 A 
ATOM      2  C   UNL     1       5.004   1.578   0.313  0.00  0.00    +0.134 A 
ATOM      3  N   UNL     1       3.928   2.337   0.459  0.00  0.00    -0.214 NA
ATOM      4  C   UNL     1       2.698   1.825   0.410  0.00  0.00    +0.142 A 
ATOM      5  C   UNL     1       1.593   2.680   0.573  0.00  0.00    +0.047 A 
ATOM      6  C   UNL     1       0.332   2.165   0.522  0.00  0.00    +0.008 A 
ATOM      7  C   UNL     1       0.154   0.791   0.310  0.00  0.00    -0.034 A 
ATOM      8  C   UNL     1       1.227  -0.016   0.158  0.00  0.00    +0.099 A 
ATOM      9  N   UNL     1       2.493   0.488   0.206  0.00  0.00    -0.267 N 
ATOM     10  C   UNL     1       3.543  -0.346   0.049  0.00  0.00    +0.267 A 
ATOM     11  O   UNL     1       3.366  -1.538  -0.134  0.00  0.00    -0.267 OA
ATOM     12  C   UNL     1      -1.237   0.213   0.253  0.00  0.00    +0.045 C 
ENDROOT
BRANCH   1  17
ATOM     13  N   UNL     1       8.864  -0.561  -2.321  0.00  0.00    -0.255 N 
ATOM     14  C   UNL     1       8.149  -1.006  -1.302  0.00  0.00    +0.258 C 
ATOM     15  O   UNL     1       8.550  -1.925  -0.610  0.00  0.00    -0.269 OA
ATOM     16  C   UNL     1       6.897  -0.381  -1.037  0.00  0.00    +0.077 C 
ATOM     17  C   UNL     1       5.983  -0.648  -0.060  0.00  0.00    +0.037 C 
ATOM     18  S   UNL     1       6.846   0.846  -2.337  0.00  0.00    -0.061 S 
ATOM     19  C   UNL     1       8.420   0.459  -3.089  0.00  0.00    +0.121 C 
ATOM     20  S   UNL     1       9.172   1.190  -4.442  0.00  0.00    -0.027 S 
BRANCH  13  21
ATOM     21  C   UNL     1      10.157  -1.182  -2.622  0.00  0.00    +0.115 C 
BRANCH  21  23
ATOM     22  C   UNL     1      11.300  -2.989  -3.913  0.00  0.00    +0.005 C 
ATOM     23  C   UNL     1       9.951  -2.341  -3.599  0.00  0.00    +0.016 C 
ENDBRANCH  21  23
ENDBRANCH  13  21
ENDBRANCH   1  17
BRANCH   2  24
ATOM     24  N   UNL     1       6.262   2.139   0.369  0.00  0.00    -0.321 N 
ATOM     25  H   UNL     1       7.047   1.579   0.262  0.00  0.00    +0.148 HD
BRANCH  24  26
ATOM     26  C   UNL     1       6.412   3.579   0.591  0.00  0.00    +0.177 C 
BRANCH  26  27
ATOM     27  C   UNL     1       7.877   3.934   0.610  0.00  0.00    +0.122 A 
ATOM     28  C   UNL     1       8.616   4.282  -0.459  0.00  0.00    +0.046 A 
ATOM     29  C   UNL     1       9.925   4.531   0.012  0.00  0.00    +0.041 A 
ATOM     30  C   UNL     1       9.911   4.311   1.339  0.00  0.00    +0.195 A 
ATOM     31  O   UNL     1       8.667   3.950   1.695  0.00  0.00    -0.466 OA
ENDBRANCH  26  27
ENDBRANCH  24  26
ENDBRANCH   2  24
TORSDOF 6
