REMARK  Name = ZINC39669018
REMARK  8 active torsions:
REMARK  status: ('A' for Active; 'I' for Inactive)
REMARK    1  A    between atoms: C_1  and  C_2
REMARK    2  A    between atoms: C_2  and  C_3
REMARK    3  A    between atoms: C_3  and  C_4
REMARK    4  A    between atoms: C_3  and  C_6
REMARK    5  A    between atoms: C_4  and  C_5
REMARK    6  A    between atoms: C_10  and  C_19
REMARK    7  A    between atoms: N_21  and  C_22
REMARK    8  A    between atoms: C_22  and  C_23
REMARK                            x       y       z     vdW  Elec       q    Type
REMARK                         _______ _______ _______ _____ _____    ______ ____
ROOT
ATOM      1  C   UNL     1      -1.264  -1.990   0.128  0.00  0.00    +0.219 C 
ATOM      2  O   UNL     1      -0.194  -2.515   0.349  0.00  0.00    -0.275 OA
ATOM      3  N   UNL     1      -2.383  -2.739   0.070  0.00  0.00    -0.300 N 
ATOM      4  C   UNL     1      -3.781  -2.273  -0.093  0.00  0.00    +0.121 C 
ATOM      5  C   UNL     1      -4.428  -3.308  -1.041  0.00  0.00    +0.100 C 
ATOM      6  C   UNL     1      -3.581  -4.580  -0.871  0.00  0.00    -0.004 C 
ATOM      7  C   UNL     1      -2.494  -4.215   0.150  0.00  0.00    +0.115 C 
ATOM      8  C   UNL     1      -2.940  -4.969  -2.199  0.00  0.00    -0.010 C 
ATOM      9  C   UNL     1      -2.149  -6.268  -2.018  0.00  0.00    -0.082 C 
ATOM     10  N   UNL     1      -3.050  -7.331  -1.557  0.00  0.00    +0.379 N 
ATOM     11  C   UNL     1      -3.591  -6.991  -0.235  0.00  0.00    -0.082 C 
ATOM     12  C   UNL     1      -4.443  -5.722  -0.341  0.00  0.00    -0.010 C 
ATOM     13  H   UNL     1      -3.810  -7.434  -2.213  0.00  0.00    -0.086 HD
ATOM     14  H   UNL     1      -2.541  -8.199  -1.497  0.00  0.00    -0.086 HD
ENDROOT
BRANCH   5  15
ATOM     15  C   UNL     1      -5.857  -3.568  -0.636  0.00  0.00    +0.218 C 
ATOM     16  O   UNL     1      -6.203  -3.391   0.513  0.00  0.00    -0.275 OA
ATOM     17  N   UNL     1      -6.749  -3.997  -1.550  0.00  0.00    -0.312 N 
ATOM     18  H   UNL     1      -6.472  -4.138  -2.469  0.00  0.00    +0.149 HD
BRANCH  17  19
ATOM     19  C   UNL     1      -8.137  -4.249  -1.157  0.00  0.00    +0.140 C 
BRANCH  19  20
ATOM     20  C   UNL     1      -8.934  -4.724  -2.374  0.00  0.00    +0.165 C 
ATOM     21  C   UNL     1     -10.359  -4.990  -1.964  0.00  0.00    -0.014 A 
ATOM     22  C   UNL     1     -10.595  -5.667  -0.778  0.00  0.00    +0.006 A 
ATOM     23  C   UNL     1     -11.888  -5.933  -0.373  0.00  0.00    +0.000 A 
ATOM     24  C   UNL     1     -12.953  -5.523  -1.155  0.00  0.00    +0.000 A 
ATOM     25  C   UNL     1     -12.719  -4.847  -2.336  0.00  0.00    +0.004 A 
ATOM     26  C   UNL     1     -11.421  -4.578  -2.741  0.00  0.00    -0.040 A 
ATOM     27  C   UNL     1     -11.205  -3.826  -4.030  0.00  0.00    +0.063 C 
ATOM     28  C   UNL     1      -9.758  -3.999  -4.493  0.00  0.00    +0.165 C 
ATOM     29  O   UNL     1      -8.894  -3.719  -3.386  0.00  0.00    -0.370 OA
ENDBRANCH  19  20
ENDBRANCH  17  19
ENDBRANCH   5  15
BRANCH   1  30
ATOM     30  C   UNL     1      -1.343  -0.500  -0.083  0.00  0.00    +0.075 C 
BRANCH  30  32
ATOM     31  C   UNL     1      -1.653   1.702   1.056  0.00  0.00    +0.004 C 
ATOM     32  C   UNL     1      -1.448   0.202   1.273  0.00  0.00    +0.009 C 
ENDBRANCH  30  32
BRANCH  30  33
ATOM     33  C   UNL     1      -0.085  -0.020  -0.810  0.00  0.00    +0.009 C 
ATOM     34  C   UNL     1      -0.053  -0.615  -2.219  0.00  0.00    +0.004 C 
ENDBRANCH  30  33
ENDBRANCH   1  30
TORSDOF 6
