REMARK  Name = ZINC02541248
REMARK  1 active torsions:
REMARK  status: ('A' for Active; 'I' for Inactive)
REMARK    1  A    between atoms: C_1  and  C_2
REMARK                            x       y       z     vdW  Elec       q    Type
REMARK                         _______ _______ _______ _____ _____    ______ ____
ROOT
ATOM      1  C   UNL     1      -1.823   0.578   1.697  0.00  0.00    +0.016 C 
ATOM      2  C   UNL     1      -0.812   1.622   1.218  0.00  0.00    +0.057 C 
ATOM      3  C   UNL     1      -0.013   1.086   0.008  0.00  0.00    +0.034 C 
ATOM      4  C   UNL     1      -0.834   1.634  -1.179  0.00  0.00    +0.148 C 
ATOM      5  N   UNL     1      -1.522   2.827  -0.665  0.00  0.00    -0.229 N 
ATOM      6  C   UNL     1      -1.526   2.842   0.678  0.00  0.00    +0.154 A 
ATOM      7  N   UNL     1      -2.159   3.930   1.045  0.00  0.00    -0.113 NA
ATOM      8  N   UNL     1      -2.523   4.556  -0.021  0.00  0.00    -0.023 NA
ATOM      9  N   UNL     1      -2.139   3.895  -1.056  0.00  0.00    -0.044 NA
ENDROOT
TORSDOF 0
