REMARK  Name = ZINC39685765
REMARK  14 active torsions:
REMARK  status: ('A' for Active; 'I' for Inactive)
REMARK    1  A    between atoms: C_1  and  C_2
REMARK    2  A    between atoms: C_2  and  C_3
REMARK    3  A    between atoms: C_3  and  C_5
REMARK    4  A    between atoms: C_3  and  C_6
REMARK    5  A    between atoms: C_10  and  C_19
REMARK    6  A    between atoms: N_21  and  C_22
REMARK    7  A    between atoms: C_22  and  C_24
REMARK    8  A    between atoms: C_22  and  C_27
REMARK    9  A    between atoms: C_24  and  C_25
REMARK   10  A    between atoms: C_24  and  C_26
REMARK   11  A    between atoms: N_29  and  C_30
REMARK   12  A    between atoms: C_30  and  C_31
REMARK   13  A    between atoms: C_30  and  C_32
REMARK   14  A    between atoms: C_30  and  C_33
REMARK                            x       y       z     vdW  Elec       q    Type
REMARK                         _______ _______ _______ _____ _____    ______ ____
ROOT
ATOM      1  C   UNL     1      -1.895  -3.941   1.432  0.00  0.00    +0.218 C 
ATOM      2  O   UNL     1      -1.139  -4.815   1.800  0.00  0.00    -0.275 OA
ATOM      3  N   UNL     1      -3.214  -4.194   1.319  0.00  0.00    -0.300 N 
ATOM      4  C   UNL     1      -4.283  -3.265   0.883  0.00  0.00    +0.121 C 
ATOM      5  C   UNL     1      -5.221  -4.130   0.013  0.00  0.00    +0.100 C 
ATOM      6  C   UNL     1      -4.982  -5.572   0.493  0.00  0.00    -0.004 C 
ATOM      7  C   UNL     1      -3.922  -5.466   1.599  0.00  0.00    +0.115 C 
ATOM      8  C   UNL     1      -4.455  -6.430  -0.654  0.00  0.00    -0.010 C 
ATOM      9  C   UNL     1      -4.279  -7.871  -0.168  0.00  0.00    -0.082 C 
ATOM     10  N   UNL     1      -5.568  -8.390   0.306  0.00  0.00    +0.379 N 
ATOM     11  C   UNL     1      -6.023  -7.617   1.468  0.00  0.00    -0.082 C 
ATOM     12  C   UNL     1      -6.272  -6.165   1.051  0.00  0.00    -0.010 C 
ATOM     13  H   UNL     1      -6.250  -8.317  -0.433  0.00  0.00    -0.086 HD
ATOM     14  H   UNL     1      -5.463  -9.359   0.569  0.00  0.00    -0.086 HD
ENDROOT
BRANCH   5  15
ATOM     15  C   UNL     1      -6.658  -3.733   0.235  0.00  0.00    +0.219 C 
ATOM     16  O   UNL     1      -7.011  -3.317   1.318  0.00  0.00    -0.275 OA
ATOM     17  N   UNL     1      -7.549  -3.839  -0.770  0.00  0.00    -0.303 N 
ATOM     18  H   UNL     1      -7.266  -4.171  -1.637  0.00  0.00    +0.149 HD
BRANCH  17  19
ATOM     19  C   UNL     1      -8.946  -3.452  -0.555  0.00  0.00    +0.161 C 
BRANCH  19  20
ATOM     20  C   UNL     1      -9.828  -4.193  -1.526  0.00  0.00    +0.234 C 
ATOM     21  O   UNL     1      -9.348  -4.693  -2.521  0.00  0.00    -0.274 OA
ATOM     22  N   UNL     1     -11.150  -4.300  -1.289  0.00  0.00    -0.309 N 
ATOM     23  H   UNL     1     -11.546  -3.843  -0.530  0.00  0.00    +0.149 HD
BRANCH  22  24
ATOM     24  C   UNL     1     -11.991  -5.108  -2.177  0.00  0.00    +0.026 C 
ATOM     25  C   UNL     1     -11.495  -6.555  -2.170  0.00  0.00    +0.031 C 
ATOM     26  C   UNL     1     -13.440  -5.062  -1.688  0.00  0.00    +0.031 C 
ATOM     27  C   UNL     1     -11.914  -4.549  -3.599  0.00  0.00    +0.031 C 
ENDBRANCH  22  24
ENDBRANCH  19  20
BRANCH  19  28
ATOM     28  C   UNL     1      -9.098  -1.946  -0.775  0.00  0.00    +0.012 C 
ATOM     29  C   UNL     1      -8.279  -1.192   0.276  0.00  0.00    +0.009 C 
ATOM     30  C   UNL     1      -8.594  -1.581  -2.172  0.00  0.00    +0.009 C 
ENDBRANCH  19  28
ENDBRANCH  17  19
ENDBRANCH   5  15
BRANCH   1  31
ATOM     31  C   UNL     1      -1.359  -2.572   1.099  0.00  0.00    +0.072 C 
ATOM     32  C   UNL     1      -2.013  -1.533   2.011  0.00  0.00    +0.017 C 
BRANCH  31  34
ATOM     33  C   UNL     1       0.718  -1.204   0.854  0.00  0.00    +0.004 C 
ATOM     34  C   UNL     1       0.157  -2.553   1.309  0.00  0.00    +0.009 C 
ENDBRANCH  31  34
ENDBRANCH   1  31
TORSDOF 7
