REMARK  Name = ZINC17222117
REMARK  4 active torsions:
REMARK  status: ('A' for Active; 'I' for Inactive)
REMARK    1  A    between atoms: C_1  and  C_2
REMARK    2  A    between atoms: C_7  and  C_9
REMARK    3  A    between atoms: C_19  and  C_21
REMARK    4  A    between atoms: C_26  and  O_27
REMARK                            x       y       z     vdW  Elec       q    Type
REMARK                         _______ _______ _______ _____ _____    ______ ____
ROOT
ATOM      1  C   UNL     1       2.907   5.055  -0.709  0.00  0.00    +0.068 C 
ATOM      2  C   UNL     1       2.228   3.739  -0.431  0.00  0.00    +0.067 A 
ATOM      3  C   UNL     1       2.838   2.492  -0.458  0.00  0.00    +0.037 A 
ATOM      4  C   UNL     1       1.882   1.540  -0.144  0.00  0.00    +0.167 A 
ATOM      5  N   UNL     1       0.711   2.212   0.062  0.00  0.00    -0.177 N 
ATOM      6  N   UNL     1       0.964   3.579  -0.123  0.00  0.00    -0.167 NA
ATOM      7  C   UNL     1      -0.474   1.661   0.390  0.00  0.00    +0.280 C 
ATOM      8  O   UNL     1      -0.590   0.452   0.438  0.00  0.00    -0.265 OA
ATOM      9  N   UNL     1       2.125   0.211  -0.056  0.00  0.00    -0.207 NA
ATOM     10  C   UNL     1       3.166  -0.351  -0.614  0.00  0.00    +0.154 C 
ATOM     11  S   UNL     1       4.311   0.550  -1.602  0.00  0.00    -0.078 S 
ATOM     12  C   UNL     1       4.278   2.154  -0.757  0.00  0.00    +0.123 C 
ATOM     13  N   UNL     1       3.374  -1.694  -0.421  0.00  0.00    -0.338 N 
ATOM     14  H   UNL     1       4.243  -2.187  -0.881  0.00  0.00    +0.144 HD
ATOM     15  H   UNL     1       2.672  -2.276   0.193  0.00  0.00    +0.144 HD
ENDROOT
BRANCH   7  16
ATOM     16  C   UNL     1      -1.634   2.525   0.686  0.00  0.00    +0.041 A 
ATOM     17  C   UNL     1      -1.545   3.907   0.499  0.00  0.00    +0.015 A 
ATOM     18  C   UNL     1      -2.633   4.708   0.771  0.00  0.00    +0.021 A 
ATOM     19  C   UNL     1      -3.810   4.147   1.241  0.00  0.00    +0.041 A 
ATOM     20  C   UNL     1      -3.903   2.778   1.434  0.00  0.00    +0.021 A 
ATOM     21  C   UNL     1      -2.823   1.966   1.159  0.00  0.00    +0.015 A 
ATOM     22 CL   UNL     1      -5.173   5.163   1.589  0.00  0.00    -0.084 Cl
ENDBRANCH   7  16
BRANCH  12  23
ATOM     23  C   UNL     1       5.060   2.071   0.528  0.00  0.00    +0.012 A 
ATOM     24  C   UNL     1       5.221   0.854   1.162  0.00  0.00    +0.008 A 
ATOM     25  C   UNL     1       5.938   0.776   2.341  0.00  0.00    +0.001 A 
ATOM     26  C   UNL     1       6.497   1.916   2.889  0.00  0.00    +0.004 A 
ATOM     27  C   UNL     1       6.340   3.135   2.259  0.00  0.00    +0.046 A 
ATOM     28  C   UNL     1       5.624   3.215   1.073  0.00  0.00    +0.121 A 
BRANCH  28  29
ATOM     29  O   UNL     1       5.472   4.412   0.449  0.00  0.00    -0.506 OA
ATOM     30  H   UNL     1       5.920   5.319   0.882  0.00  0.00    +0.292 HD
ENDBRANCH  28  29
ENDBRANCH  12  23
TORSDOF 3
