REMARK  Name = ZINC11712893
REMARK  6 active torsions:
REMARK  status: ('A' for Active; 'I' for Inactive)
REMARK    1  A    between atoms: C_1  and  C_2
REMARK    2  A    between atoms: C_8  and  N_10
REMARK    3  A    between atoms: C_14  and  C_16
REMARK    4  A    between atoms: C_16  and  O_17
REMARK    5  A    between atoms: O_17  and  C_18
REMARK    6  A    between atoms: C_18  and  C_20
REMARK                            x       y       z     vdW  Elec       q    Type
REMARK                         _______ _______ _______ _____ _____    ______ ____
ROOT
ATOM      1  N   UNL     1      -3.133  -3.649   0.012  0.00  0.00    -0.296 N 
ATOM      2  C   UNL     1      -2.904  -2.321   0.017  0.00  0.00    +0.306 C 
ATOM      3  O   UNL     1      -3.839  -1.543   0.030  0.00  0.00    -0.252 OA
ATOM      4  N   UNL     1      -1.640  -1.854   0.008  0.00  0.00    -0.237 N 
ATOM      5  C   UNL     1      -1.412  -0.526   0.013  0.00  0.00    +0.258 C 
ATOM      6  O   UNL     1      -2.344   0.249   0.026  0.00  0.00    -0.272 OA
ATOM      7  H   UNL     1      -2.387  -4.269   0.002  0.00  0.00    +0.151 HD
ATOM      8  H   UNL     1      -0.894  -2.474  -0.003  0.00  0.00    +0.159 HD
ENDROOT
BRANCH   1  15
ATOM      9  C   UNL     1      -4.031  -5.489  -2.036  0.00  0.00    +0.009 C 
ATOM     10  C   UNL     1      -4.539  -5.556  -0.594  0.00  0.00    +0.006 C 
ATOM     11  C   UNL     1      -3.644  -6.492   0.220  0.00  0.00    +0.005 C 
ATOM     12  C   UNL     1      -4.152  -6.558   1.661  0.00  0.00    +0.000 C 
ATOM     13  C   UNL     1      -4.120  -5.159   2.278  0.00  0.00    +0.002 C 
ATOM     14  C   UNL     1      -5.015  -4.222   1.464  0.00  0.00    +0.022 C 
ATOM     15  C   UNL     1      -4.507  -4.156   0.023  0.00  0.00    +0.077 C 
ENDBRANCH   1  15
BRANCH   5  16
ATOM     16  C   UNL     1       0.002  -0.004   0.002  0.00  0.00    +0.328 C 
BRANCH  16  17
ATOM     17  O   UNL     1      -0.018   1.448   0.010  0.00  0.00    -0.451 OA
BRANCH  17  18
ATOM     18  C   UNL     1       1.174   2.075   0.002  0.00  0.00    +0.360 C 
ATOM     19  O   UNL     1       2.201   1.428  -0.011  0.00  0.00    -0.243 OA
BRANCH  18  20
ATOM     20  C   UNL     1       1.231   3.554   0.009  0.00  0.00    +0.167 A 
ATOM     21  C   UNL     1       2.468   4.198   0.007  0.00  0.00    +0.073 A 
ATOM     22  C   UNL     1       2.506   5.586   0.009  0.00  0.00    +0.025 A 
ATOM     23  C   UNL     1       1.307   6.279   0.025  0.00  0.00    +0.041 A 
ATOM     24  C   UNL     1       0.112   5.573   0.031  0.00  0.00    +0.130 A 
ATOM     25  N   UNL     1       0.105   4.257   0.024  0.00  0.00    -0.227 NA
ATOM     26 CL   UNL     1      -1.393   6.437   0.050  0.00  0.00    -0.062 Cl
ATOM     27 CL   UNL     1       3.940   3.278  -0.005  0.00  0.00    -0.081 Cl
ENDBRANCH  18  20
ENDBRANCH  17  18
ENDBRANCH  16  17
ENDBRANCH   5  16
TORSDOF 5
