REMARK  Name = ZINC44785647
REMARK  4 active torsions:
REMARK  status: ('A' for Active; 'I' for Inactive)
REMARK    1  A    between atoms: C_1  and  C_2
REMARK    2  A    between atoms: C_8  and  C_10
REMARK    3  A    between atoms: C_10  and  C_15
REMARK    4  A    between atoms: N_16  and  O_17
REMARK                            x       y       z     vdW  Elec       q    Type
REMARK                         _______ _______ _______ _____ _____    ______ ____
ROOT
ATOM      1  C   UNL     1      -0.057  -4.234   2.117  0.00  0.00    +0.105 C 
ATOM      2  C   UNL     1      -1.431  -4.055   2.787  0.00  0.00    +0.024 C 
ATOM      3  C   UNL     1      -1.455  -5.003   4.004  0.00  0.00    +0.001 C 
ATOM      4  C   UNL     1       0.040  -5.218   4.347  0.00  0.00    +0.001 C 
ATOM      5  C   UNL     1       0.706  -5.285   2.950  0.00  0.00    +0.024 C 
ENDROOT
BRANCH   1  12
ATOM      6  C   UNL     1       4.982  -1.060   0.423  0.00  0.00    +0.009 C 
ATOM      7  C   UNL     1       4.145  -2.088   1.187  0.00  0.00    +0.005 C 
ATOM      8  C   UNL     1       3.952  -3.380   0.349  0.00  0.00    +0.024 C 
ATOM      9  C   UNL     1       2.626  -3.951   0.895  0.00  0.00    +0.108 C 
ATOM     10  N   UNL     1       1.892  -2.837   1.512  0.00  0.00    -0.300 N 
ATOM     11  C   UNL     1       2.684  -1.603   1.353  0.00  0.00    +0.111 C 
ATOM     12  C   UNL     1       0.694  -2.927   2.122  0.00  0.00    +0.229 C 
ATOM     13  O   UNL     1       0.219  -1.957   2.674  0.00  0.00    -0.275 OA
ENDBRANCH   1  12
BRANCH   1  14
ATOM     14  C   UNL     1      -0.231  -4.724   0.703  0.00  0.00    +0.147 C 
ATOM     15  N   UNL     1       0.166  -5.909   0.376  0.00  0.00    -0.076 NA
ATOM     16  N   UNL     1      -0.813  -3.908  -0.242  0.00  0.00    -0.343 N 
ATOM     17  H   UNL     1      -1.177  -3.047   0.018  0.00  0.00    +0.144 HD
ATOM     18  H   UNL     1      -0.859  -4.194  -1.168  0.00  0.00    +0.144 HD
BRANCH  15  19
ATOM     19  O   UNL     1       0.002  -6.370  -0.953  0.00  0.00    -0.408 OA
ATOM     20  H   UNL     1       0.329  -7.268  -1.101  0.00  0.00    +0.328 HD
ENDBRANCH  15  19
ENDBRANCH   1  14
TORSDOF 3
