REMARK  Name = ZINC66736809
REMARK  8 active torsions:
REMARK  status: ('A' for Active; 'I' for Inactive)
REMARK    1  A    between atoms: C_1  and  C_2
REMARK    2  A    between atoms: C_2  and  C_3
REMARK    3  A    between atoms: C_2  and  C_4
REMARK    4  A    between atoms: C_2  and  S_5
REMARK    5  A    between atoms: S_5  and  C_6
REMARK    6  A    between atoms: C_6  and  C_7
REMARK    7  A    between atoms: C_7  and  N_8
REMARK    8  A    between atoms: C_9  and  C_11
REMARK                            x       y       z     vdW  Elec       q    Type
REMARK                         _______ _______ _______ _____ _____    ______ ____
ROOT
ATOM      1  C   UNL     1       6.994   0.612  -3.300  0.00  0.00    +0.078 C 
ATOM      2  C   UNL     1       6.899   2.139  -3.249  0.00  0.00    +0.032 C 
ATOM      3  C   UNL     1       8.304   2.729  -3.098  0.00  0.00    +0.108 C 
ATOM      4  N   UNL     1       9.153   2.213  -4.181  0.00  0.00    -0.300 N 
ATOM      5  C   UNL     1       9.244   0.759  -4.375  0.00  0.00    +0.108 C 
ATOM      6  C   UNL     1       7.828   0.191  -4.512  0.00  0.00    +0.032 C 
ATOM      7  C   UNL     1       9.853   3.079  -5.002  0.00  0.00    +0.218 A 
ATOM      8  N   UNL     1       9.755   4.385  -4.799  0.00  0.00    -0.223 NA
ATOM      9  C   UNL     1      10.411   5.240  -5.565  0.00  0.00    +0.116 A 
ATOM     10  C   UNL     1      11.209   4.755  -6.590  0.00  0.00    +0.039 A 
ATOM     11  C   UNL     1      11.289   3.384  -6.775  0.00  0.00    +0.116 A 
ATOM     12  N   UNL     1      10.611   2.583  -5.970  0.00  0.00    -0.223 NA
ENDROOT
BRANCH   1  14
ATOM     13  N   UNL     1       4.696   0.265  -2.453  0.00  0.00    -0.314 N 
ATOM     14  C   UNL     1       5.610   0.026  -3.414  0.00  0.00    +0.216 C 
ATOM     15  O   UNL     1       5.320  -0.661  -4.370  0.00  0.00    -0.276 OA
ATOM     16  H   UNL     1       4.928   0.814  -1.688  0.00  0.00    +0.149 HD
BRANCH  13  17
ATOM     17  C   UNL     1       3.351  -0.305  -2.564  0.00  0.00    +0.115 C 
BRANCH  17  18
ATOM     18  C   UNL     1       2.517   0.116  -1.353  0.00  0.00    +0.088 C 
BRANCH  18  19
ATOM     19  S   UNL     1       0.851  -0.589  -1.490  0.00  0.00    -0.153 S 
BRANCH  19  21
ATOM     20  C   UNL     1      -0.019   1.526   0.010  0.00  0.00    +0.022 C 
ATOM     21  C   UNL     1       0.002  -0.004   0.002  0.00  0.00    +0.008 C 
ATOM     22  C   UNL     1       0.742  -0.511   1.242  0.00  0.00    +0.022 C 
ATOM     23  C   UNL     1      -1.433  -0.534   0.013  0.00  0.00    +0.022 C 
ENDBRANCH  19  21
ENDBRANCH  18  19
ENDBRANCH  17  18
ENDBRANCH  13  17
ENDBRANCH   1  14
TORSDOF 5
