REMARK  Name = ZINC37913032
REMARK  6 active torsions:
REMARK  status: ('A' for Active; 'I' for Inactive)
REMARK    1  A    between atoms: C_1  and  C_2
REMARK    2  A    between atoms: C_2  and  C_3
REMARK    3  A    between atoms: N_8  and  C_9
REMARK    4  A    between atoms: C_10  and  N_16
REMARK    5  A    between atoms: C_11  and  C_15
REMARK    6  A    between atoms: N_13  and  C_14
REMARK                            x       y       z     vdW  Elec       q    Type
REMARK                         _______ _______ _______ _____ _____    ______ ____
ROOT
ATOM      1  C   UNL     1      -0.431   1.311  -2.786  0.00  0.00    +0.141 A 
ATOM      2  C   UNL     1       0.274   2.044  -3.696  0.00  0.00    +0.088 A 
ATOM      3  C   UNL     1      -0.272   3.333  -3.723  0.00  0.00    +0.082 A 
ATOM      4  N   UNL     1      -1.263   3.380  -2.868  0.00  0.00    -0.173 NA
ATOM      5  N   UNL     1      -1.392   2.122  -2.267  0.00  0.00    -0.252 N 
ATOM      6  C   UNL     1      -2.384   1.746  -1.256  0.00  0.00    +0.174 C 
ATOM      7  C   UNL     1       0.201   4.472  -4.588  0.00  0.00    +0.069 C 
ENDROOT
BRANCH   1  12
ATOM      8  C   UNL     1       0.796  -0.519  -1.500  0.00  0.00    +0.075 C 
ATOM      9  C   UNL     1       0.695  -2.058  -1.475  0.00  0.00    +0.024 C 
ATOM     10  C   UNL     1       0.023  -2.385  -2.835  0.00  0.00    +0.021 C 
ATOM     11  C   UNL     1      -0.946  -1.187  -2.998  0.00  0.00    +0.107 C 
ATOM     12  N   UNL     1      -0.209  -0.028  -2.454  0.00  0.00    -0.311 N 
BRANCH   8  14
ATOM     13  C   UNL     1       0.719   1.560  -0.115  0.00  0.00    +0.006 C 
ATOM     14  C   UNL     1       0.509   0.044  -0.106  0.00  0.00    +0.019 C 
ENDBRANCH   8  14
ENDBRANCH   1  12
BRANCH   2  15
ATOM     15  N   UNL     1       1.362   1.584  -4.473  0.00  0.00    -0.354 N 
ATOM     16  H   UNL     1       1.720   0.695  -4.327  0.00  0.00    +0.142 HD
ATOM     17  H   UNL     1       1.750   2.158  -5.151  0.00  0.00    +0.142 HD
ENDBRANCH   2  15
TORSDOF 3
