REMARK  Name = ZINC38826660
REMARK  9 active torsions:
REMARK  status: ('A' for Active; 'I' for Inactive)
REMARK    1  A    between atoms: C_1  and  O_2
REMARK    2  A    between atoms: O_2  and  C_3
REMARK    3  A    between atoms: C_5  and  C_12
REMARK    4  A    between atoms: C_7  and  O_10
REMARK    5  A    between atoms: C_8  and  O_9
REMARK    6  A    between atoms: O_10  and  C_11
REMARK    7  A    between atoms: N_13  and  N_14
REMARK    8  A    between atoms: C_15  and  C_17
REMARK    9  A    between atoms: C_20  and  C_23
REMARK                            x       y       z     vdW  Elec       q    Type
REMARK                         _______ _______ _______ _____ _____    ______ ____
ROOT
ATOM      1  N   UNL     1      -7.187   0.322   0.050  0.00  0.00    -0.205 N 
ATOM      2  C   UNL     1      -8.388  -0.289   0.066  0.00  0.00    +0.263 C 
ATOM      3  O   UNL     1      -8.452  -1.500   0.077  0.00  0.00    -0.271 OA
ATOM      4  H   UNL     1      -7.136   1.291   0.041  0.00  0.00    +0.177 HD
ENDROOT
BRANCH   2   5
ATOM      5  C   UNL     1      -9.652   0.533   0.071  0.00  0.00    +0.240 C 
ATOM      6  C   UNL     1     -10.011   0.972  -1.337  0.00  0.00    +0.041 C 
ATOM      7  C   UNL     1     -11.213   0.403  -1.557  0.00  0.00    +0.092 C 
ATOM      8  N   UNL     1     -11.605  -0.310  -0.467  0.00  0.00    -0.153 NA
ATOM      9  N   UNL     1     -10.804  -0.289   0.474  0.00  0.00    -0.170 NA
BRANCH   7  10
ATOM     10  C   UNL     1     -11.996   0.535  -2.807  0.00  0.00    +0.010 A 
ATOM     11  C   UNL     1     -11.576   1.385  -3.821  0.00  0.00    +0.011 A 
ATOM     12  C   UNL     1     -12.293   1.529  -5.007  0.00  0.00    +0.005 A 
ATOM     13  C   UNL     1     -13.445   0.829  -5.210  0.00  0.00    -0.039 A 
ATOM     14  C   UNL     1     -13.882  -0.028  -4.205  0.00  0.00    -0.011 A 
ATOM     15  C   UNL     1     -13.186  -0.206  -2.997  0.00  0.00    -0.008 A 
ATOM     16  C   UNL     1     -13.716  -1.101  -2.058  0.00  0.00    +0.009 A 
ATOM     17  C   UNL     1     -14.874  -1.760  -2.357  0.00  0.00    +0.001 A 
ATOM     18  C   UNL     1     -15.548  -1.573  -3.566  0.00  0.00    +0.004 A 
ATOM     19  C   UNL     1     -15.065  -0.703  -4.495  0.00  0.00    -0.039 A 
ATOM     20  C   UNL     1     -15.510  -0.265  -5.869  0.00  0.00    +0.040 C 
ATOM     21  C   UNL     1     -14.442   0.745  -6.341  0.00  0.00    +0.040 C 
ENDBRANCH   7  10
ENDBRANCH   2   5
BRANCH   1  23
ATOM     22  C   UNL     1      -4.856   0.147   0.030  0.00  0.00    +0.138 C 
ATOM     23  N   UNL     1      -6.013  -0.441   0.045  0.00  0.00    -0.188 NA
BRANCH  22  26
ATOM     24  C   UNL     1      -1.216  -0.781   0.004  0.00  0.00    +0.166 A 
ATOM     25  C   UNL     1      -2.374  -0.024   0.008  0.00  0.00    +0.059 A 
ATOM     26  C   UNL     1      -3.620  -0.656   0.025  0.00  0.00    +0.002 A 
ATOM     27  C   UNL     1      -3.692  -2.051   0.038  0.00  0.00    +0.059 A 
ATOM     28  C   UNL     1      -2.531  -2.803   0.034  0.00  0.00    +0.166 A 
ATOM     29  C   UNL     1      -1.291  -2.170   0.011  0.00  0.00    +0.201 A 
BRANCH  24  31
ATOM     30  C   UNL     1       0.000   1.263  -0.018  0.00  0.00    +0.277 C 
ATOM     31  O   UNL     1      -0.003  -0.166  -0.012  0.00  0.00    -0.491 OA
ENDBRANCH  24  31
BRANCH  29  32
ATOM     32  O   UNL     1      -0.151  -2.912   0.002  0.00  0.00    -0.501 OA
ATOM     33  H   UNL     1       0.189  -3.122   0.882  0.00  0.00    +0.292 HD
ENDBRANCH  29  32
BRANCH  28  34
ATOM     34  O   UNL     1      -2.600  -4.161   0.046  0.00  0.00    -0.491 OA
ATOM     35  C   UNL     1      -3.905  -4.744   0.063  0.00  0.00    +0.277 C 
ENDBRANCH  28  34
ENDBRANCH  22  26
ENDBRANCH   1  23
TORSDOF 7
