REMARK  Name = ZINC57041200
REMARK  6 active torsions:
REMARK  status: ('A' for Active; 'I' for Inactive)
REMARK    1  A    between atoms: C_1  and  C_2
REMARK    2  A    between atoms: C_2  and  C_4
REMARK    3  A    between atoms: C_2  and  C_19
REMARK    4  A    between atoms: C_4  and  N_5
REMARK    5  A    between atoms: C_12  and  C_14
REMARK    6  A    between atoms: C_19  and  N_20
REMARK                            x       y       z     vdW  Elec       q    Type
REMARK                         _______ _______ _______ _____ _____    ______ ____
ROOT
ATOM      1  N   UNL     1       2.125  -0.091  -1.209  0.00  0.00    -0.299 N 
ATOM      2  C   UNL     1       2.955  -0.418  -2.220  0.00  0.00    +0.303 C 
ATOM      3  O   UNL     1       2.537  -1.050  -3.170  0.00  0.00    -0.253 OA
ATOM      4  N   UNL     1       4.249  -0.044  -2.176  0.00  0.00    -0.279 N 
ATOM      5  C   UNL     1       4.888   0.716  -1.086  0.00  0.00    +0.110 C 
ATOM      6  C   UNL     1       6.109   1.405  -1.745  0.00  0.00    +0.021 C 
ATOM      7  C   UNL     1       6.582   0.314  -2.741  0.00  0.00    +0.029 C 
ATOM      8  C   UNL     1       5.260  -0.332  -3.204  0.00  0.00    +0.108 C 
ATOM      9  H   UNL     1       2.459   0.413  -0.451  0.00  0.00    +0.150 HD
ENDROOT
BRANCH   8  10
ATOM     10  C   UNL     1       5.436  -1.822  -3.347  0.00  0.00    -0.020 A 
ATOM     11  C   UNL     1       5.633  -2.389  -4.592  0.00  0.00    +0.013 A 
ATOM     12  C   UNL     1       5.788  -3.733  -4.685  0.00  0.00    +0.045 A 
ATOM     13  S   UNL     1       5.655  -4.239  -2.978  0.00  0.00    -0.105 S 
ATOM     14  C   UNL     1       5.409  -2.625  -2.255  0.00  0.00    +0.050 A 
ENDBRANCH   8  10
BRANCH   1  15
ATOM     15  C   UNL     1       0.718  -0.497  -1.257  0.00  0.00    +0.107 C 
BRANCH  15  17
ATOM     16  C   UNL     1      -0.019   1.526   0.010  0.00  0.00    +0.007 C 
ATOM     17  C   UNL     1       0.002  -0.004   0.002  0.00  0.00    -0.014 C 
BRANCH  17  18
ATOM     18  C   UNL     1      -1.433  -0.534   0.013  0.00  0.00    -0.074 C 
BRANCH  18  19
ATOM     19  N   UNL     1      -2.083  -0.161   1.276  0.00  0.00    +0.380 N 
ATOM     20  C   UNL     1      -1.404  -0.832   2.391  0.00  0.00    -0.079 C 
ATOM     21  C   UNL     1      -2.025  -0.385   3.716  0.00  0.00    -0.019 C 
ATOM     22  C   UNL     1      -3.512  -0.751   3.726  0.00  0.00    -0.004 C 
ATOM     23  C   UNL     1      -4.196  -0.106   2.517  0.00  0.00    -0.019 C 
ATOM     24  C   UNL     1      -3.494  -0.564   1.237  0.00  0.00    -0.079 C 
ATOM     25  H   UNL     1      -2.024   0.839   1.402  0.00  0.00    -0.082 HD
ENDBRANCH  18  19
ENDBRANCH  17  18
ENDBRANCH  15  17
ENDBRANCH   1  15
TORSDOF 5
