REMARK  Name = ZINC13474024
REMARK  10 active torsions:
REMARK  status: ('A' for Active; 'I' for Inactive)
REMARK    1  A    between atoms: C_1  and  C_2
REMARK    2  A    between atoms: C_4  and  O_20
REMARK    3  A    between atoms: C_6  and  O_9
REMARK    4  A    between atoms: O_9  and  C_10
REMARK    5  A    between atoms: C_14  and  O_16
REMARK    6  A    between atoms: O_16  and  C_17
REMARK    7  A    between atoms: C_17  and  C_18
REMARK    8  A    between atoms: C_17  and  C_19
REMARK    9  A    between atoms: O_20  and  C_21
REMARK   10  A    between atoms: C_25  and  C_27
REMARK                            x       y       z     vdW  Elec       q    Type
REMARK                         _______ _______ _______ _____ _____    ______ ____
ROOT
ATOM      1  C   UNL     1      -0.954   0.687  -2.304  0.00  0.00    +0.050 C 
ATOM      2  C   UNL     1      -1.365   1.366  -1.023  0.00  0.00    +0.030 A 
ATOM      3  C   UNL     1      -2.235   0.744  -0.139  0.00  0.00    +0.191 A 
ATOM      4  C   UNL     1      -2.589   1.396   1.036  0.00  0.00    +0.260 A 
ATOM      5  N   UNL     1      -2.114   2.600   1.310  0.00  0.00    -0.172 NA
ATOM      6  C   UNL     1      -1.287   3.224   0.486  0.00  0.00    +0.260 A 
ATOM      7  C   UNL     1      -0.887   2.628  -0.704  0.00  0.00    +0.191 A 
ATOM      8  F   UNL     1      -0.043   3.270  -1.540  0.00  0.00    -0.200 F 
ATOM      9  F   UNL     1      -2.729  -0.483  -0.414  0.00  0.00    -0.200 F 
ENDROOT
BRANCH   6  10
ATOM     10  O   UNL     1      -0.824   4.459   0.807  0.00  0.00    -0.435 OA
BRANCH  10  11
ATOM     11  C   UNL     1      -1.350   5.073   1.900  0.00  0.00    +0.134 A 
ATOM     12  C   UNL     1      -2.630   4.750   2.329  0.00  0.00    +0.046 A 
ATOM     13  C   UNL     1      -3.163   5.371   3.442  0.00  0.00    +0.007 A 
ATOM     14  C   UNL     1      -2.428   6.322   4.124  0.00  0.00    +0.046 A 
ATOM     15  C   UNL     1      -1.151   6.652   3.696  0.00  0.00    +0.124 A 
ATOM     16  C   UNL     1      -0.611   6.027   2.582  0.00  0.00    +0.092 A 
BRANCH  15  17
ATOM     17  O   UNL     1      -0.429   7.588   4.367  0.00  0.00    -0.489 OA
BRANCH  17  18
ATOM     18  C   UNL     1       0.907   7.822   3.917  0.00  0.00    +0.167 C 
ATOM     19  C   UNL     1       1.335   9.240   4.303  0.00  0.00    +0.051 C 
ATOM     20  C   UNL     1       1.850   6.810   4.571  0.00  0.00    +0.051 C 
ENDBRANCH  17  18
ENDBRANCH  15  17
ENDBRANCH  10  11
ENDBRANCH   6  10
BRANCH   4  21
ATOM     21  O   UNL     1      -3.435   0.793   1.910  0.00  0.00    -0.436 OA
BRANCH  21  22
ATOM     22  C   UNL     1      -3.656   1.400   3.105  0.00  0.00    +0.131 A 
ATOM     23  C   UNL     1      -2.677   2.209   3.665  0.00  0.00    +0.046 A 
ATOM     24  C   UNL     1      -2.897   2.829   4.881  0.00  0.00    +0.004 A 
ATOM     25  C   UNL     1      -4.092   2.647   5.546  0.00  0.00    +0.011 A 
ATOM     26  C   UNL     1      -5.082   1.836   4.992  0.00  0.00    +0.016 A 
ATOM     27  C   UNL     1      -4.861   1.216   3.763  0.00  0.00    +0.057 A 
BRANCH  26  28
ATOM     28  C   UNL     1      -6.366   1.639   5.703  0.00  0.00    +0.094 C 
ATOM     29  N   UNL     1      -6.584   2.257   6.915  0.00  0.00    -0.345 N 
ATOM     30  H   UNL     1      -8.163   0.691   5.573  0.00  0.00    +0.157 HD
ATOM     31  H   UNL     1      -5.896   2.822   7.302  0.00  0.00    +0.144 HD
ATOM     32  H   UNL     1      -7.425   2.128   7.381  0.00  0.00    +0.144 HD
ATOM     33  N   UNL     1      -7.263   0.857   5.122  0.00  0.00    -0.387 N 
ATOM     34  H   UNL     1      -7.053   0.419   4.218  0.00  0.00    +0.157 HD
ENDBRANCH  26  28
ENDBRANCH  21  22
ENDBRANCH   4  21
TORSDOF 7
