REMARK  Name = ZINC16284848
REMARK  6 active torsions:
REMARK  status: ('A' for Active; 'I' for Inactive)
REMARK    1  A    between atoms: C_1  and  C_2
REMARK    2  A    between atoms: C_5  and  N_9
REMARK    3  A    between atoms: C_6  and  C_8
REMARK    4  A    between atoms: C_13  and  N_14
REMARK    5  A    between atoms: N_14  and  N_15
REMARK    6  A    between atoms: N_15  and  C_16
REMARK                            x       y       z     vdW  Elec       q    Type
REMARK                         _______ _______ _______ _____ _____    ______ ____
ROOT
ATOM      1  N   UNL     1      -0.010   1.435  -0.377  0.00  0.00    -0.189 N 
ATOM      2  C   UNL     1      -1.183   2.059  -0.143  0.00  0.00    +0.265 C 
ATOM      3  O   UNL     1      -2.191   1.424   0.103  0.00  0.00    -0.269 OA
ATOM      4  C   UNL     1      -1.208   3.532  -0.188  0.00  0.00    +0.115 C 
ATOM      5  C   UNL     1      -2.372   4.240   0.047  0.00  0.00    +0.106 C 
ATOM      6  C   UNL     1       0.059   4.216  -0.499  0.00  0.00    +0.258 C 
ATOM      7  O   UNL     1       0.116   5.430  -0.558  0.00  0.00    -0.270 OA
ATOM      8  N   UNL     1       1.155   3.460  -0.716  0.00  0.00    -0.235 N 
ATOM      9  C   UNL     1       1.107   2.122  -0.654  0.00  0.00    +0.320 C 
ATOM     10  O   UNL     1       2.130   1.499  -0.861  0.00  0.00    -0.251 OA
ATOM     11  H   UNL     1       1.998   3.895  -0.922  0.00  0.00    +0.159 HD
ENDROOT
BRANCH   1  16
ATOM     12  C   UNL     1       0.193  -4.234  -0.206  0.00  0.00    +0.044 C 
ATOM     13  C   UNL     1       0.139  -2.729  -0.252  0.00  0.00    -0.050 A 
ATOM     14  C   UNL     1       0.378  -1.995   0.896  0.00  0.00    +0.005 A 
ATOM     15  C   UNL     1       0.334  -0.616   0.857  0.00  0.00    +0.024 A 
ATOM     16  C   UNL     1       0.040   0.035  -0.335  0.00  0.00    +0.049 A 
ATOM     17  C   UNL     1      -0.198  -0.705  -1.485  0.00  0.00    -0.028 A 
ATOM     18  C   UNL     1      -0.147  -2.084  -1.441  0.00  0.00    +0.008 A 
ATOM     19  C   UNL     1      -0.512  -0.003  -2.781  0.00  0.00    +0.046 C 
ENDBRANCH   1  16
BRANCH   5  20
ATOM     20  N   UNL     1      -2.333   5.583   0.156  0.00  0.00    -0.273 N 
ATOM     21  H   UNL     1      -1.481   6.046   0.150  0.00  0.00    +0.169 HD
BRANCH  20  22
ATOM     22  N   UNL     1      -3.524   6.311   0.276  0.00  0.00    -0.266 N 
ATOM     23  H   UNL     1      -4.377   5.849   0.282  0.00  0.00    +0.170 HD
BRANCH  22  24
ATOM     24  C   UNL     1      -3.484   7.699   0.389  0.00  0.00    +0.052 A 
ATOM     25  C   UNL     1      -2.275   8.363   0.387  0.00  0.00    +0.025 A 
ATOM     26  C   UNL     1      -2.224   9.749   0.493  0.00  0.00    +0.002 A 
ATOM     27  C   UNL     1      -3.362  10.487   0.613  0.00  0.00    +0.008 A 
ATOM     28  C   UNL     1      -4.615   9.850   0.624  0.00  0.00    -0.016 A 
ATOM     29  C   UNL     1      -4.680   8.439   0.511  0.00  0.00    +0.004 A 
ATOM     30  C   UNL     1      -5.931   7.804   0.521  0.00  0.00    +0.010 A 
ATOM     31  C   UNL     1      -7.065   8.549   0.641  0.00  0.00    +0.001 A 
ATOM     32  C   UNL     1      -7.002   9.937   0.752  0.00  0.00    +0.001 A 
ATOM     33  C   UNL     1      -5.806  10.586   0.745  0.00  0.00    +0.008 A 
ENDBRANCH  22  24
ENDBRANCH  20  22
ENDBRANCH   5  20
TORSDOF 4
