REMARK  Name = ZINC43460896
REMARK  3 active torsions:
REMARK  status: ('A' for Active; 'I' for Inactive)
REMARK    1  A    between atoms: C_3  and  C_9
REMARK    2  A    between atoms: C_4  and  O_8
REMARK    3  A    between atoms: C_6  and  N_7
REMARK                            x       y       z     vdW  Elec       q    Type
REMARK                         _______ _______ _______ _____ _____    ______ ____
ROOT
ATOM      1  C   UNL     1      -0.017   1.388   0.010  0.00  0.00    +0.023 A 
ATOM      2  C   UNL     1       1.163   2.097   0.002  0.00  0.00    +0.017 A 
ATOM      3  C   UNL     1       2.385   1.419  -0.013  0.00  0.00    +0.059 A 
ATOM      4  C   UNL     1       2.403   0.016  -0.021  0.00  0.00    +0.129 A 
ATOM      5  C   UNL     1       1.212  -0.687  -0.013  0.00  0.00    +0.068 A 
ATOM      6  C   UNL     1       0.002  -0.004   0.002  0.00  0.00    +0.028 A 
ENDROOT
BRANCH   3   7
ATOM      7  C   UNL     1       3.651   2.175  -0.022  0.00  0.00    +0.145 A 
ATOM      8  N   UNL     1       4.851   1.641  -0.042  0.00  0.00    -0.208 NA
ATOM      9  H   UNL     1       3.019   4.174  -0.004  0.00  0.00    +0.167 HD
ATOM     10  C   UNL     1       5.785   2.615  -0.045  0.00  0.00    +0.178 A 
ATOM     11  C   UNL     1       5.101   3.844  -0.025  0.00  0.00    +0.087 A 
ATOM     12  N   UNL     1       3.754   3.540  -0.016  0.00  0.00    -0.336 N 
ATOM     13  C   UNL     1       5.826   5.028  -0.024  0.00  0.00    +0.046 A 
ATOM     14  C   UNL     1       7.209   4.950  -0.042  0.00  0.00    +0.038 A 
ATOM     15  C   UNL     1       7.822   3.707  -0.061  0.00  0.00    +0.128 A 
ATOM     16  N   UNL     1       7.117   2.596  -0.062  0.00  0.00    -0.233 NA
ATOM     17 BR   UNL     1       8.253   6.527  -0.042  0.00  0.00    -0.049 Br
ENDBRANCH   3   7
BRANCH   6  18
ATOM     18  N   UNL     1      -1.196  -0.715   0.010  0.00  0.00    -0.358 N 
ATOM     19  H   UNL     1      -2.042  -0.240   0.021  0.00  0.00    +0.142 HD
ATOM     20  H   UNL     1      -1.185  -1.685   0.005  0.00  0.00    +0.142 HD
ENDBRANCH   6  18
BRANCH   4  21
ATOM     21  O   UNL     1       3.586  -0.649  -0.036  0.00  0.00    -0.506 OA
ATOM     22  H   UNL     1       3.938  -0.846   0.843  0.00  0.00    +0.292 HD
ENDBRANCH   4  21
TORSDOF 3
