REMARK  Name = ZINC40713397
REMARK  3 active torsions:
REMARK  status: ('A' for Active; 'I' for Inactive)
REMARK    1  A    between atoms: C_1  and  N_2
REMARK    2  A    between atoms: C_4  and  N_7
REMARK    3  A    between atoms: C_9  and  N_15
REMARK                            x       y       z     vdW  Elec       q    Type
REMARK                         _______ _______ _______ _____ _____    ______ ____
ROOT
ATOM      1  N   UNL     1      -0.071  -3.230  -1.491  0.00  0.00    -0.295 N 
ATOM      2  C   UNL     1       0.004  -4.498  -0.924  0.00  0.00    +0.153 A 
ATOM      3  C   UNL     1      -0.030  -5.622  -1.742  0.00  0.00    +0.167 A 
ATOM      4  C   UNL     1       0.046  -6.877  -1.165  0.00  0.00    +0.053 A 
ATOM      5  C   UNL     1       0.153  -6.965   0.217  0.00  0.00    +0.038 A 
ATOM      6  C   UNL     1       0.181  -5.807   0.969  0.00  0.00    +0.128 A 
ATOM      7  N   UNL     1       0.112  -4.623   0.390  0.00  0.00    -0.237 NA
ATOM      8 BR   UNL     1       0.260  -8.654   1.061  0.00  0.00    -0.049 Br
ATOM      9  H   UNL     1      -0.227  -3.134  -2.443  0.00  0.00    +0.154 HD
ENDROOT
BRANCH   1  13
ATOM     10  C   UNL     1       0.238   1.461  -0.013  0.00  0.00    +0.172 C 
ATOM     11  N   UNL     1       0.217  -0.004  -0.017  0.00  0.00    -0.273 N 
ATOM     12  C   UNL     1       0.027  -0.798  -1.104  0.00  0.00    +0.131 A 
ATOM     13  C   UNL     1       0.078  -2.088  -0.682  0.00  0.00    +0.070 A 
ATOM     14  C   UNL     1       0.305  -2.079   0.702  0.00  0.00    +0.157 A 
ATOM     15  N   UNL     1       0.394  -0.835   1.097  0.00  0.00    -0.178 NA
ENDBRANCH   1  13
BRANCH   3  16
ATOM     16  N   UNL     1      -0.146  -5.478  -3.211  0.00  0.00    +0.060 N 
ATOM     17  O   UNL     1      -0.816  -6.260  -3.844  0.00  0.00    -0.126 OA
ATOM     18  O   UNL     1       0.430  -4.578  -3.777  0.00  0.00    -0.126 OA
ENDBRANCH   3  16
TORSDOF 2
