REMARK  Name = ZINC39980131
REMARK  4 active torsions:
REMARK  status: ('A' for Active; 'I' for Inactive)
REMARK    1  A    between atoms: C_4  and  S_7
REMARK    2  A    between atoms: S_7  and  N_10
REMARK    3  A    between atoms: C_12  and  N_22
REMARK    4  A    between atoms: N_22  and  C_23
REMARK                            x       y       z     vdW  Elec       q    Type
REMARK                         _______ _______ _______ _____ _____    ______ ____
ROOT
ATOM      1  N   UNL     1       3.954  -1.204   1.573  0.00  0.00    -0.110 NA
ATOM      2  C   UNL     1       5.163  -1.644   1.760  0.00  0.00    +0.192 C 
ATOM      3  C   UNL     1       5.717  -1.792   3.159  0.00  0.00    +0.237 C 
ATOM      4  N   UNL     1       7.092  -2.296   3.303  0.00  0.00    -0.359 N 
ATOM      5  C   UNL     1       7.764  -2.588   2.225  0.00  0.00    +0.063 A 
ATOM      6  C   UNL     1       9.142  -3.095   2.315  0.00  0.00    +0.027 A 
ATOM      7  C   UNL     1       9.806  -3.387   1.175  0.00  0.00    +0.002 A 
ATOM      8  C   UNL     1       9.214  -3.220  -0.088  0.00  0.00    +0.002 A 
ATOM      9  C   UNL     1       7.955  -2.760  -0.250  0.00  0.00    +0.030 A 
ATOM     10  C   UNL     1       7.165  -2.421   0.878  0.00  0.00    +0.089 A 
ATOM     11  N   UNL     1       5.936  -1.978   0.715  0.00  0.00    -0.226 NA
ATOM     12  H   UNL     1       7.490  -2.408   4.181  0.00  0.00    +0.162 HD
ENDROOT
BRANCH   1  13
ATOM     13  S   UNL     1       3.357  -1.052   0.036  0.00  0.00    +0.100 S 
ATOM     14  O   UNL     1       3.254  -2.367  -0.492  0.00  0.00    -0.146 OA
ATOM     15  O   UNL     1       4.120  -0.034  -0.598  0.00  0.00    -0.146 OA
BRANCH  13  19
ATOM     16  C   UNL     1      -0.870   0.531   0.390  0.00  0.00    +0.000 A 
ATOM     17  C   UNL     1       0.192   1.411   0.286  0.00  0.00    +0.002 A 
ATOM     18  C   UNL     1       1.482   0.927   0.178  0.00  0.00    +0.029 A 
ATOM     19  C   UNL     1       1.712  -0.436   0.175  0.00  0.00    +0.113 A 
ATOM     20  C   UNL     1       0.651  -1.315   0.279  0.00  0.00    +0.029 A 
ATOM     21  C   UNL     1      -0.640  -0.832   0.386  0.00  0.00    +0.002 A 
ENDBRANCH  13  19
ENDBRANCH   1  13
BRANCH   3  22
ATOM     22  N   UNL     1       4.831  -2.696   3.897  0.00  0.00    -0.317 N 
ATOM     23  H   UNL     1       4.503  -3.505   3.475  0.00  0.00    +0.148 HD
BRANCH  22  24
ATOM     24  C   UNL     1       4.459  -2.392   5.210  0.00  0.00    +0.048 A 
ATOM     25  C   UNL     1       5.027  -1.304   5.860  0.00  0.00    +0.026 A 
ATOM     26  C   UNL     1       4.657  -1.006   7.157  0.00  0.00    +0.022 A 
ATOM     27  C   UNL     1       3.721  -1.789   7.809  0.00  0.00    +0.042 A 
ATOM     28  C   UNL     1       3.153  -2.873   7.165  0.00  0.00    +0.041 A 
ATOM     29  C   UNL     1       3.515  -3.174   5.865  0.00  0.00    +0.063 A 
ATOM     30 CL   UNL     1       2.796  -4.530   5.054  0.00  0.00    -0.082 Cl
ATOM     31 CL   UNL     1       3.259  -1.410   9.439  0.00  0.00    -0.083 Cl
ENDBRANCH  22  24
ENDBRANCH   3  22
TORSDOF 4
