REMARK  Name = ZINC14475747
REMARK  5 active torsions:
REMARK  status: ('A' for Active; 'I' for Inactive)
REMARK    1  A    between atoms: C_4  and  N_7
REMARK    2  A    between atoms: C_8  and  C_10
REMARK    3  A    between atoms: C_17  and  C_26
REMARK    4  A    between atoms: C_28  and  N_33
REMARK    5  A    between atoms: C_31  and  O_32
REMARK                            x       y       z     vdW  Elec       q    Type
REMARK                         _______ _______ _______ _____ _____    ______ ____
ROOT
ATOM      1  C   UNL     1       4.932  -2.705   0.151  0.00  0.00    +0.058 A 
ATOM      2  C   UNL     1       6.122  -1.983   0.254  0.00  0.00    +0.015 A 
ATOM      3  C   UNL     1       7.326  -2.647   0.340  0.00  0.00    +0.001 A 
ATOM      4  C   UNL     1       7.361  -4.033   0.318  0.00  0.00    +0.006 A 
ATOM      5  C   UNL     1       6.198  -4.763   0.213  0.00  0.00    -0.019 A 
ATOM      6  C   UNL     1       4.962  -4.109   0.144  0.00  0.00    +0.044 A 
ATOM      7  N   UNL     1       3.764  -4.816   0.084  0.00  0.00    -0.336 N 
ATOM      8  C   UNL     1       3.745  -6.295   0.062  0.00  0.00    +0.108 C 
ATOM      9  C   UNL     1       4.915  -6.734   0.924  0.00  0.00    +0.029 C 
ATOM     10  C   UNL     1       6.190  -6.241   0.164  0.00  0.00    +0.049 C 
ATOM     11  C   UNL     1       7.275  -7.055   0.769  0.00  0.00    -0.023 C 
ATOM     12  C   UNL     1       6.759  -8.206   1.183  0.00  0.00    -0.030 C 
ATOM     13  C   UNL     1       5.237  -8.233   0.956  0.00  0.00    +0.033 C 
ATOM     14  H   UNL     1       2.926  -4.329   0.057  0.00  0.00    +0.147 HD
ENDROOT
BRANCH   8  15
ATOM     15  C   UNL     1       2.449  -6.806   0.637  0.00  0.00    +0.017 A 
ATOM     16  C   UNL     1       1.682  -5.990   1.446  0.00  0.00    +0.041 A 
ATOM     17  C   UNL     1       0.493  -6.459   1.974  0.00  0.00    +0.127 A 
ATOM     18  C   UNL     1       0.070  -7.745   1.695  0.00  0.00    +0.036 A 
ATOM     19  C   UNL     1       0.834  -8.565   0.888  0.00  0.00    +0.048 A 
ATOM     20  C   UNL     1       2.024  -8.095   0.352  0.00  0.00    +0.122 A 
BRANCH  17  21
ATOM     21  N   UNL     1      -0.327  -5.582   2.840  0.00  0.00    +0.056 N 
ATOM     22  O   UNL     1       0.043  -4.457   3.085  0.00  0.00    -0.126 OA
ATOM     23  O   UNL     1      -1.366  -5.991   3.303  0.00  0.00    -0.126 OA
ENDBRANCH  17  21
BRANCH  20  24
ATOM     24  O   UNL     1       2.775  -8.898  -0.447  0.00  0.00    -0.506 OA
ATOM     25  H   UNL     1       3.425  -9.431   0.031  0.00  0.00    +0.292 HD
ENDBRANCH  20  24
ENDBRANCH   8  15
BRANCH   1  27
ATOM     26  N   UNL     1       3.622  -0.651  -0.045  0.00  0.00    -0.281 N 
ATOM     27  C   UNL     1       3.644  -1.995   0.057  0.00  0.00    +0.250 C 
ATOM     28  O   UNL     1       2.602  -2.621   0.072  0.00  0.00    -0.270 OA
ATOM     29  H   UNL     1       4.452  -0.157  -0.121  0.00  0.00    +0.155 HD
BRANCH  26  33
ATOM     30  C   UNL     1      -0.016   1.379  -0.035  0.00  0.00    +0.000 A 
ATOM     31  C   UNL     1       1.093   1.947   0.564  0.00  0.00    +0.002 A 
ATOM     32  C   UNL     1       2.301   1.277   0.562  0.00  0.00    +0.023 A 
ATOM     33  C   UNL     1       2.400   0.030  -0.041  0.00  0.00    +0.034 A 
ATOM     34  C   UNL     1       1.284  -0.538  -0.641  0.00  0.00    +0.023 A 
ATOM     35  C   UNL     1       0.080   0.137  -0.636  0.00  0.00    +0.002 A 
ENDBRANCH  26  33
ENDBRANCH   1  27
TORSDOF 5
