REMARK  Name = ZINC37129856
REMARK  5 active torsions:
REMARK  status: ('A' for Active; 'I' for Inactive)
REMARK    1  A    between atoms: C_1  and  C_2
REMARK    2  A    between atoms: C_5  and  N_13
REMARK    3  A    between atoms: C_7  and  C_12
REMARK    4  A    between atoms: N_10  and  C_11
REMARK    5  A    between atoms: N_13  and  C_14
REMARK                            x       y       z     vdW  Elec       q    Type
REMARK                         _______ _______ _______ _____ _____    ______ ____
ROOT
ATOM      1  C   UNL     1      -4.546   0.032   0.648  0.00  0.00    +0.044 A 
ATOM      2  C   UNL     1      -4.303   1.189  -0.077  0.00  0.00    +0.051 A 
ATOM      3  C   UNL     1      -5.344   1.813  -0.747  0.00  0.00    +0.069 A 
ATOM      4  C   UNL     1      -6.632   1.276  -0.690  0.00  0.00    +0.068 A 
ATOM      5  C   UNL     1      -6.869   0.119   0.037  0.00  0.00    +0.045 A 
ATOM      6  C   UNL     1      -5.829  -0.504   0.699  0.00  0.00    +0.041 A 
ATOM      7 BR   UNL     1      -6.151  -2.086   1.684  0.00  0.00    -0.048 Br
ATOM      8  N   UNL     1      -7.450   2.111  -1.450  0.00  0.00    -0.306 N 
ATOM      9  H   UNL     1      -8.402   1.994  -1.597  0.00  0.00    +0.170 HD
ATOM     10  C   UNL     1      -6.694   3.109  -1.946  0.00  0.00    +0.325 A 
ATOM     11  O   UNL     1      -7.100   4.011  -2.654  0.00  0.00    -0.247 OA
ATOM     12  N   UNL     1      -5.420   2.957  -1.539  0.00  0.00    -0.306 N 
ATOM     13  H   UNL     1      -4.679   3.544  -1.760  0.00  0.00    +0.170 HD
ENDROOT
BRANCH   1  14
ATOM     14  N   UNL     1      -3.498  -0.601   1.326  0.00  0.00    -0.340 N 
ATOM     15  H   UNL     1      -3.666  -1.413   1.830  0.00  0.00    +0.146 HD
BRANCH  14  19
ATOM     16  C   UNL     1      -0.019   1.526   0.010  0.00  0.00    -0.013 C 
ATOM     17  C   UNL     1       0.002  -0.004   0.002  0.00  0.00    -0.070 C 
ATOM     18  C   UNL     1      -1.434  -0.533   0.011  0.00  0.00    +0.007 C 
ATOM     19  C   UNL     1      -2.146  -0.038   1.273  0.00  0.00    +0.070 C 
ATOM     20  C   UNL     1      -1.354  -0.487   2.504  0.00  0.00    -0.011 C 
ATOM     21  C   UNL     1       0.079   0.040   2.403  0.00  0.00    -0.074 C 
ATOM     22  N   UNL     1       0.713  -0.490   1.191  0.00  0.00    +0.380 N 
ATOM     23  C   UNL     1       2.112  -0.044   1.139  0.00  0.00    -0.096 C 
ATOM     24  C   UNL     1      -2.015   0.068   3.768  0.00  0.00    +0.007 C 
ATOM     25  H   UNL     1       0.684  -1.498   1.210  0.00  0.00    -0.082 HD
ENDBRANCH  14  19
ENDBRANCH   1  14
TORSDOF 2
