REMARK  Name = ZINC31862869
REMARK  5 active torsions:
REMARK  status: ('A' for Active; 'I' for Inactive)
REMARK    1  A    between atoms: C_1  and  C_2
REMARK    2  A    between atoms: C_4  and  N_24
REMARK    3  A    between atoms: C_8  and  C_11
REMARK    4  A    between atoms: C_11  and  C_12
REMARK    5  A    between atoms: C_11  and  C_18
REMARK                            x       y       z     vdW  Elec       q    Type
REMARK                         _______ _______ _______ _____ _____    ______ ____
ROOT
ATOM      1  C   UNL     1      -4.197  -2.490  -3.988  0.00  0.00    +0.045 C 
ATOM      2  C   UNL     1      -4.308  -1.030  -3.634  0.00  0.00    -0.032 A 
ATOM      3  C   UNL     1      -5.022  -0.161  -4.476  0.00  0.00    +0.031 A 
ATOM      4  C   UNL     1      -5.122   1.163  -4.153  0.00  0.00    +0.070 A 
ATOM      5  C   UNL     1      -4.501   1.633  -2.973  0.00  0.00    +0.182 A 
ATOM      6  N   UNL     1      -4.417   2.821  -2.400  0.00  0.00    -0.127 NA
ATOM      7  N   UNL     1      -3.733   2.727  -1.313  0.00  0.00    -0.133 NA
ATOM      8  C   UNL     1      -3.338   1.492  -1.133  0.00  0.00    +0.150 A 
ATOM      9  N   UNL     1      -3.812   0.755  -2.174  0.00  0.00    -0.284 N 
ATOM     10  C   UNL     1      -3.722  -0.565  -2.511  0.00  0.00    +0.098 A 
ENDROOT
BRANCH   4  11
ATOM     11  N   UNL     1      -5.827   2.041  -4.978  0.00  0.00    -0.355 N 
ATOM     12  H   UNL     1      -5.903   3.106  -4.711  0.00  0.00    +0.142 HD
ATOM     13  H   UNL     1      -6.307   1.669  -5.895  0.00  0.00    +0.142 HD
ENDBRANCH   4  11
BRANCH   8  14
ATOM     14  C   UNL     1      -2.514   0.980   0.019  0.00  0.00    +0.117 C 
BRANCH  14  15
ATOM     15  C   UNL     1      -1.188   1.695   0.046  0.00  0.00    -0.033 A 
ATOM     16  C   UNL     1      -1.147   3.077   0.044  0.00  0.00    +0.004 A 
ATOM     17  C   UNL     1       0.069   3.733   0.074  0.00  0.00    +0.000 A 
ATOM     18  C   UNL     1       1.245   3.007   0.101  0.00  0.00    +0.000 A 
ATOM     19  C   UNL     1       1.205   1.625   0.098  0.00  0.00    +0.000 A 
ATOM     20  C   UNL     1      -0.011   0.969   0.068  0.00  0.00    +0.004 A 
ENDBRANCH  14  15
BRANCH  14  21
ATOM     21  C   UNL     1      -3.246   1.231   1.312  0.00  0.00    -0.033 A 
ATOM     22  C   UNL     1      -3.709   2.500   1.609  0.00  0.00    +0.004 A 
ATOM     23  C   UNL     1      -4.385   2.730   2.792  0.00  0.00    +0.000 A 
ATOM     24  C   UNL     1      -4.590   1.694   3.684  0.00  0.00    +0.000 A 
ATOM     25  C   UNL     1      -4.123   0.426   3.389  0.00  0.00    +0.000 A 
ATOM     26  C   UNL     1      -3.451   0.195   2.204  0.00  0.00    +0.004 A 
ENDBRANCH  14  21
ENDBRANCH   8  14
TORSDOF 4
