REMARK  Name = ZINC62369842
REMARK  7 active torsions:
REMARK  status: ('A' for Active; 'I' for Inactive)
REMARK    1  A    between atoms: C_1  and  C_2
REMARK    2  A    between atoms: C_3  and  N_9
REMARK    3  A    between atoms: N_12  and  C_13
REMARK    4  A    between atoms: C_13  and  C_14
REMARK    5  A    between atoms: C_13  and  C_15
REMARK    6  A    between atoms: N_17  and  C_18
REMARK    7  A    between atoms: C_18  and  C_19
REMARK                            x       y       z     vdW  Elec       q    Type
REMARK                         _______ _______ _______ _____ _____    ______ ____
ROOT
ATOM      1  N   UNL     1      -0.010   0.011  -2.413  0.00  0.00    -0.269 N 
ATOM      2  C   UNL     1       0.095  -0.653  -3.581  0.00  0.00    +0.304 C 
ATOM      3  O   UNL     1       0.112  -1.869  -3.590  0.00  0.00    -0.252 OA
ATOM      4  N   UNL     1       0.182   0.030  -4.740  0.00  0.00    -0.288 N 
ATOM      5  H   UNL     1      -0.106   0.977  -2.411  0.00  0.00    +0.156 HD
ATOM      6  H   UNL     1       0.168   1.000  -4.733  0.00  0.00    +0.151 HD
ENDROOT
BRANCH   1   9
ATOM      7  C   UNL     1      -1.262   1.188  -0.145  0.00  0.00    +0.047 C 
ATOM      8  C   UNL     1      -0.580  -0.153  -0.072  0.00  0.00    -0.011 A 
ATOM      9  C   UNL     1       0.019  -0.691  -1.203  0.00  0.00    +0.039 A 
ATOM     10  C   UNL     1       0.646  -1.928  -1.132  0.00  0.00    +0.024 A 
ATOM     11  C   UNL     1       0.673  -2.620   0.063  0.00  0.00    +0.003 A 
ATOM     12  C   UNL     1       0.076  -2.083   1.188  0.00  0.00    +0.020 A 
ATOM     13  C   UNL     1      -0.546  -0.848   1.123  0.00  0.00    +0.046 A 
ATOM     14 CL   UNL     1      -1.287  -0.173   2.540  0.00  0.00    -0.083 Cl
ENDBRANCH   1   9
BRANCH   4  15
ATOM     15  C   UNL     1       0.296  -0.692  -6.009  0.00  0.00    +0.157 C 
ATOM     16  C   UNL     1      -1.100  -1.072  -6.507  0.00  0.00    +0.038 C 
BRANCH  15  17
ATOM     17  C   UNL     1       0.971   0.189  -7.029  0.00  0.00    +0.233 C 
ATOM     18  O   UNL     1       1.322   1.309  -6.725  0.00  0.00    -0.274 OA
ATOM     19  N   UNL     1       1.185  -0.269  -8.278  0.00  0.00    -0.307 N 
ATOM     20  H   UNL     1       0.904  -1.165  -8.521  0.00  0.00    +0.149 HD
BRANCH  19  21
ATOM     21  C   UNL     1       1.841   0.587  -9.270  0.00  0.00    +0.178 C 
BRANCH  21  22
ATOM     22  C   UNL     1       1.958  -0.155 -10.576  0.00  0.00    +0.122 A 
ATOM     23  C   UNL     1       1.050  -0.151 -11.568  0.00  0.00    +0.046 A 
ATOM     24  C   UNL     1       1.563  -0.975 -12.596  0.00  0.00    +0.041 A 
ATOM     25  C   UNL     1       2.753  -1.434 -12.171  0.00  0.00    +0.195 A 
ATOM     26  O   UNL     1       2.991  -0.930 -10.949  0.00  0.00    -0.466 OA
ENDBRANCH  21  22
ENDBRANCH  19  21
ENDBRANCH  15  17
ENDBRANCH   4  15
TORSDOF 5
