REMARK  Name = ZINC61890806
REMARK  6 active torsions:
REMARK  status: ('A' for Active; 'I' for Inactive)
REMARK    1  A    between atoms: C_1  and  C_2
REMARK    2  A    between atoms: C_2  and  C_3
REMARK    3  A    between atoms: C_2  and  N_4
REMARK    4  A    between atoms: C_8  and  C_9
REMARK    5  A    between atoms: N_11  and  C_12
REMARK    6  A    between atoms: C_17  and  C_19
REMARK                            x       y       z     vdW  Elec       q    Type
REMARK                         _______ _______ _______ _____ _____    ______ ____
ROOT
ATOM      1  C   UNL     1      -1.224  -1.976  -2.056  0.00  0.00    +0.261 C 
ATOM      2  O   UNL     1      -1.850  -2.622  -2.876  0.00  0.00    -0.269 OA
ATOM      3  N   UNL     1       0.104  -1.803  -2.206  0.00  0.00    -0.306 N 
ATOM      4  H   UNL     1       0.615  -1.352  -1.517  0.00  0.00    +0.149 HD
ENDROOT
BRANCH   1   9
ATOM      5  N   UNL     1      -3.239  -1.561  -0.573  0.00  0.00    -0.340 N 
ATOM      6  C   UNL     1      -3.500  -0.859   0.558  0.00  0.00    +0.102 A 
ATOM      7  C   UNL     1      -2.366  -0.232   0.954  0.00  0.00    +0.036 A 
ATOM      8  C   UNL     1      -1.357  -0.550   0.040  0.00  0.00    +0.047 A 
ATOM      9  C   UNL     1      -1.915  -1.385  -0.905  0.00  0.00    +0.106 A 
ATOM     10 BR   UNL     1      -2.182   0.879   2.474  0.00  0.00    -0.049 Br
BRANCH   5  12
ATOM     11  C   UNL     1      -4.652  -3.553  -0.445  0.00  0.00    +0.030 C 
ATOM     12  C   UNL     1      -4.205  -2.376  -1.314  0.00  0.00    +0.081 C 
ATOM     13  C   UNL     1      -5.420  -1.521  -1.680  0.00  0.00    +0.030 C 
ENDBRANCH   5  12
ENDBRANCH   1   9
BRANCH   3  14
ATOM     14  C   UNL     1       0.775  -2.296  -3.412  0.00  0.00    +0.090 C 
ATOM     15  C   UNL     1       1.192  -3.769  -3.219  0.00  0.00    +0.023 C 
ATOM     16  C   UNL     1       2.558  -3.874  -3.941  0.00  0.00    +0.003 C 
ATOM     17  C   UNL     1       3.228  -2.518  -3.605  0.00  0.00    +0.020 C 
ATOM     18  C   UNL     1       2.069  -1.500  -3.657  0.00  0.00    +0.112 C 
BRANCH  18  19
ATOM     19  C   UNL     1       2.243  -0.483  -2.608  0.00  0.00    +0.068 C 
ATOM     20  N   UNL     1       2.377   0.302  -1.797  0.00  0.00    -0.196 NA
ENDBRANCH  18  19
ENDBRANCH   3  14
TORSDOF 4
