REMARK  Name = ZINC15768930
REMARK  4 active torsions:
REMARK  status: ('A' for Active; 'I' for Inactive)
REMARK    1  A    between atoms: C_4  and  N_7
REMARK    2  A    between atoms: C_12  and  N_55
REMARK    3  A    between atoms: C_19  and  N_55
REMARK    4  A    between atoms: C_26  and  N_28
REMARK                            x       y       z     vdW  Elec       q    Type
REMARK                         _______ _______ _______ _____ _____    ______ ____
ROOT
ATOM      1  N   UNL     1      -4.119   0.738   1.271  0.00  0.00    -0.230 N 
ATOM      2  C   UNL     1      -2.942   0.472   0.452  0.00  0.00    +0.120 C 
ATOM      3  C   UNL     1      -1.642   1.171   0.772  0.00  0.00    +0.025 C 
ATOM      4  C   UNL     1      -0.643   0.785  -0.334  0.00  0.00    -0.014 C 
ATOM      5  C   UNL     1      -1.159   1.145  -1.723  0.00  0.00    -0.069 C 
ATOM      6  C   UNL     1      -2.564   0.563  -1.980  0.00  0.00    +0.015 C 
ATOM      7  C   UNL     1      -3.450   1.095  -0.881  0.00  0.00    +0.150 C 
ATOM      8  N   UNL     1      -4.859   0.791  -0.835  0.00  0.00    -0.166 NA
ATOM      9  N   UNL     1      -5.195   0.603   0.356  0.00  0.00    -0.083 NA
ENDROOT
BRANCH   1  13
ATOM     10  C   UNL     1      -5.716   1.716   5.104  0.00  0.00    +0.000 C 
ATOM     11  C   UNL     1      -4.895   2.778   4.370  0.00  0.00    +0.002 C 
ATOM     12  C   UNL     1      -4.834   2.435   2.880  0.00  0.00    +0.024 C 
ATOM     13  C   UNL     1      -4.177   1.066   2.698  0.00  0.00    +0.095 C 
ATOM     14  C   UNL     1      -4.998   0.004   3.432  0.00  0.00    +0.024 C 
ATOM     15  C   UNL     1      -5.058   0.347   4.922  0.00  0.00    +0.002 C 
ENDBRANCH   1  13
BRANCH   5  16
ATOM     16  N   UNL     1      -0.232   0.605  -2.736  0.00  0.00    +0.384 N 
ATOM     17  H   UNL     1      -0.740   0.459  -3.616  0.00  0.00    -0.085 HD
ATOM     18  H   UNL     1       0.145  -0.291  -2.406  0.00  0.00    -0.085 HD
BRANCH  16  19
ATOM     19  C   UNL     1       0.880   1.546  -2.966  0.00  0.00    -0.042 C 
ATOM     20  C   UNL     1       0.449   2.607  -3.980  0.00  0.00    -0.012 C 
ATOM     21  C   UNL     1       0.065   1.929  -5.297  0.00  0.00    +0.018 C 
ATOM     22  C   UNL     1       1.269   1.159  -5.844  0.00  0.00    +0.083 C 
ATOM     23  C   UNL     1       1.700   0.098  -4.830  0.00  0.00    +0.049 C 
ATOM     24  C   UNL     1       2.084   0.776  -3.513  0.00  0.00    +0.157 C 
ATOM     25 CL   UNL     1       0.817   0.359  -7.395  0.00  0.00    -0.122 Cl
BRANCH  24  26
ATOM     26  N   UNL     1       2.497  -0.240  -2.542  0.00  0.00    +0.024 N 
ATOM     27  O   UNL     1       2.909  -1.319  -2.928  0.00  0.00    -0.131 OA
ATOM     28  O   UNL     1       2.427  -0.006  -1.349  0.00  0.00    -0.131 OA
ENDBRANCH  24  26
ENDBRANCH  16  19
ENDBRANCH   5  16
TORSDOF 4
