REMARK  Name = ZINC50698600
REMARK  6 active torsions:
REMARK  status: ('A' for Active; 'I' for Inactive)
REMARK    1  A    between atoms: C_1  and  C_2
REMARK    2  A    between atoms: C_5  and  N_9
REMARK    3  A    between atoms: C_6  and  C_8
REMARK    4  A    between atoms: C_10  and  C_12
REMARK    5  A    between atoms: C_14  and  N_21
REMARK    6  A    between atoms: C_17  and  N_18
REMARK                            x       y       z     vdW  Elec       q    Type
REMARK                         _______ _______ _______ _____ _____    ______ ____
ROOT
ATOM      1  N   UNL     1       0.117  -4.150  -0.095  0.00  0.00    -0.281 N 
ATOM      2  C   UNL     1      -0.004  -4.841  -1.246  0.00  0.00    +0.251 C 
ATOM      3  O   UNL     1      -0.022  -4.252  -2.309  0.00  0.00    -0.270 OA
ATOM      4  H   UNL     1       0.193  -4.623   0.748  0.00  0.00    +0.155 HD
ENDROOT
BRANCH   1   9
ATOM      5  C   UNL     1       0.182   1.521  -0.185  0.00  0.00    +0.044 C 
ATOM      6  C   UNL     1       0.165   0.014  -0.161  0.00  0.00    -0.050 A 
ATOM      7  C   UNL     1       0.738  -0.699  -1.198  0.00  0.00    +0.005 A 
ATOM      8  C   UNL     1       0.724  -2.079  -1.179  0.00  0.00    +0.024 A 
ATOM      9  C   UNL     1       0.133  -2.752  -0.117  0.00  0.00    +0.037 A 
ATOM     10  C   UNL     1      -0.441  -2.033   0.923  0.00  0.00    -0.029 A 
ATOM     11  C   UNL     1      -0.419  -0.652   0.900  0.00  0.00    +0.008 A 
ATOM     12  C   UNL     1      -1.083  -2.759   2.077  0.00  0.00    +0.045 C 
ENDBRANCH   1   9
BRANCH   2  13
ATOM     13  C   UNL     1      -0.115  -6.315  -1.216  0.00  0.00    +0.069 A 
ATOM     14  C   UNL     1       0.861  -7.077  -0.573  0.00  0.00    +0.038 A 
ATOM     15  C   UNL     1       0.751  -8.458  -0.549  0.00  0.00    +0.025 A 
ATOM     16  C   UNL     1      -0.330  -9.080  -1.164  0.00  0.00    +0.025 A 
ATOM     17  C   UNL     1      -1.296  -8.325  -1.801  0.00  0.00    +0.035 A 
ATOM     18  C   UNL     1      -1.199  -6.949  -1.825  0.00  0.00    +0.138 A 
BRANCH  18  19
ATOM     19  N   UNL     1      -2.240  -6.144  -2.503  0.00  0.00    +0.057 N 
ATOM     20  O   UNL     1      -3.114  -6.694  -3.133  0.00  0.00    -0.126 OA
ATOM     21  O   UNL     1      -2.217  -4.938  -2.428  0.00  0.00    -0.126 OA
ENDBRANCH  18  19
BRANCH  15  22
ATOM     22  N   UNL     1       1.726  -9.226   0.093  0.00  0.00    -0.358 N 
ATOM     23  H   UNL     1       2.480  -8.792   0.522  0.00  0.00    +0.142 HD
ATOM     24  H   UNL     1       1.648 -10.193   0.110  0.00  0.00    +0.142 HD
ENDBRANCH  15  22
ENDBRANCH   2  13
TORSDOF 4
