REMARK  Name = ZINC17070426
REMARK  5 active torsions:
REMARK  status: ('A' for Active; 'I' for Inactive)
REMARK    1  A    between atoms: C_1  and  C_2
REMARK    2  A    between atoms: C_12  and  C_14
REMARK    3  A    between atoms: C_14  and  S_15
REMARK    4  A    between atoms: S_15  and  C_16
REMARK    5  A    between atoms: C_22  and  N_24
REMARK                            x       y       z     vdW  Elec       q    Type
REMARK                         _______ _______ _______ _____ _____    ______ ____
ROOT
ATOM      1  C   UNL     1       3.728  -0.721  -0.037  0.00  0.00    +0.046 C 
ATOM      2  C   UNL     1       2.403  -0.004  -0.021  0.00  0.00    -0.024 A 
ATOM      3  C   UNL     1       2.374   1.367  -0.013  0.00  0.00    +0.005 A 
ATOM      4  C   UNL     1       1.177   2.067   0.002  0.00  0.00    +0.001 A 
ATOM      5  C   UNL     1      -0.017   1.368   0.010  0.00  0.00    +0.017 A 
ATOM      6  C   UNL     1       0.002  -0.004   0.002  0.00  0.00    +0.041 A 
ATOM      7  C   UNL     1       1.202  -0.751  -0.013  0.00  0.00    +0.083 A 
ATOM      8  N   UNL     1       1.056  -2.094  -0.019  0.00  0.00    -0.224 NA
ATOM      9  C   UNL     1      -0.121  -2.675  -0.010  0.00  0.00    +0.165 A 
ATOM     10  S   UNL     1      -1.236  -1.278   0.008  0.00  0.00    -0.052 S 
ATOM     11  N   UNL     1      -0.422  -4.027  -0.015  0.00  0.00    -0.264 N 
ATOM     12  C   UNL     1      -1.707  -4.431  -0.004  0.00  0.00    +0.229 C 
ATOM     13  O   UNL     1      -2.601  -3.611   0.009  0.00  0.00    -0.275 OA
ATOM     14  H   UNL     1       0.293  -4.683  -0.025  0.00  0.00    +0.157 HD
ENDROOT
BRANCH  12  15
ATOM     15  C   UNL     1      -2.035  -5.902  -0.009  0.00  0.00    +0.173 C 
BRANCH  15  16
ATOM     16  S   UNL     1      -3.832  -6.121   0.008  0.00  0.00    -0.078 S 
BRANCH  16  17
ATOM     17  C   UNL     1      -3.926  -7.880  -0.001  0.00  0.00    +0.171 A 
ATOM     18  N   UNL     1      -5.148  -8.483   0.008  0.00  0.00    -0.302 N 
ATOM     19  H   UNL     1      -5.954  -7.943   0.019  0.00  0.00    +0.171 HD
ATOM     20  C   UNL     1      -5.239  -9.829   0.001  0.00  0.00    +0.254 A 
ATOM     21  O   UNL     1      -6.330 -10.377   0.009  0.00  0.00    -0.268 OA
ATOM     22  C   UNL     1      -4.063 -10.586  -0.015  0.00  0.00    +0.113 A 
ATOM     23  C   UNL     1      -2.844  -9.923  -0.023  0.00  0.00    +0.124 A 
ATOM     24  N   UNL     1      -2.814  -8.586  -0.021  0.00  0.00    -0.209 NA
BRANCH  23  25
ATOM     25  N   UNL     1      -1.665 -10.642  -0.038  0.00  0.00    -0.343 N 
ATOM     26  H   UNL     1      -1.688 -11.612  -0.043  0.00  0.00    +0.144 HD
ATOM     27  H   UNL     1      -0.814 -10.178  -0.044  0.00  0.00    +0.144 HD
ENDBRANCH  23  25
ENDBRANCH  16  17
ENDBRANCH  15  16
ENDBRANCH  12  15
TORSDOF 4
