REMARK  Name = ZINC16444980
REMARK  14 active torsions:
REMARK  status: ('A' for Active; 'I' for Inactive)
REMARK    1  A    between atoms: C_1  and  C_2
REMARK    2  A    between atoms: C_2  and  C_3
REMARK    3  A    between atoms: C_3  and  C_4
REMARK    4  A    between atoms: C_4  and  N_5
REMARK    5  A    between atoms: N_5  and  C_6
REMARK    6  A    between atoms: C_7  and  N_19
REMARK    7  A    between atoms: N_8  and  C_15
REMARK    8  A    between atoms: C_15  and  C_16
REMARK    9  A    between atoms: C_16  and  C_17
REMARK   10  A    between atoms: C_16  and  C_18
REMARK   11  A    between atoms: C_20  and  C_22
REMARK   12  A    between atoms: C_22  and  N_66
REMARK   13  A    between atoms: C_27  and  C_29
REMARK   14  A    between atoms: C_29  and  C_30
REMARK                            x       y       z     vdW  Elec       q    Type
REMARK                         _______ _______ _______ _____ _____    ______ ____
ROOT
ATOM      1  N   UNL     1       0.344   3.917  -0.023  0.00  0.00    -0.266 N 
ATOM      2  C   UNL     1       1.371   3.110  -0.363  0.00  0.00    +0.203 C 
ATOM      3  O   UNL     1       1.164   1.946  -0.636  0.00  0.00    -0.277 OA
ENDROOT
BRANCH   1   4
ATOM      4  C   UNL     1      -0.981   3.436  -0.086  0.00  0.00    +0.140 A 
ATOM      5  C   UNL     1      -1.871   3.951  -1.006  0.00  0.00    +0.127 A 
ATOM      6  N   UNL     1      -3.155   3.458  -1.047  0.00  0.00    -0.280 N 
ATOM      7  C   UNL     1      -3.539   2.489  -0.197  0.00  0.00    +0.331 A 
ATOM      8  O   UNL     1      -4.678   2.067  -0.249  0.00  0.00    -0.246 OA
ATOM      9  N   UNL     1      -2.687   1.979   0.710  0.00  0.00    -0.273 N 
ATOM     10  H   UNL     1      -2.998   1.259   1.331  0.00  0.00    +0.173 HD
ATOM     11  C   UNL     1      -1.419   2.427   0.792  0.00  0.00    +0.277 A 
ATOM     12  O   UNL     1      -0.654   1.957   1.618  0.00  0.00    -0.266 OA
BRANCH   5  13
ATOM     13  N   UNL     1      -1.478   4.940  -1.875  0.00  0.00    -0.343 N 
ATOM     14  H   UNL     1      -2.083   5.243  -2.571  0.00  0.00    +0.144 HD
ATOM     15  H   UNL     1      -0.598   5.338  -1.791  0.00  0.00    +0.144 HD
ENDBRANCH   5  13
BRANCH   6  16
ATOM     16  C   UNL     1      -4.109   3.991  -2.022  0.00  0.00    +0.131 C 
BRANCH  16  17
ATOM     17  C   UNL     1      -4.026   3.177  -3.315  0.00  0.00    +0.003 C 
ATOM     18  C   UNL     1      -4.484   1.742  -3.044  0.00  0.00    +0.009 C 
ATOM     19  C   UNL     1      -4.930   3.809  -4.375  0.00  0.00    +0.009 C 
ENDBRANCH  16  17
ENDBRANCH   6  16
ENDBRANCH   1   4
BRANCH   1  20
ATOM     20  C   UNL     1       0.605   5.291   0.412  0.00  0.00    +0.114 C 
BRANCH  20  21
ATOM     21  C   UNL     1       0.910   5.303   1.911  0.00  0.00    +0.019 C 
BRANCH  21  23
ATOM     22  C   UNL     1       1.486   6.750   3.864  0.00  0.00    +0.004 C 
ATOM     23  C   UNL     1       1.182   6.739   2.365  0.00  0.00    -0.002 C 
ENDBRANCH  21  23
ENDBRANCH  20  21
ENDBRANCH   1  20
BRANCH   2  24
ATOM     24  C   UNL     1       2.776   3.655  -0.404  0.00  0.00    +0.019 C 
BRANCH  24  30
ATOM     25  C   UNL     1       3.659   1.482   0.193  0.00  0.00    -0.078 C 
ATOM     26  C   UNL     1       4.740   0.453  -0.146  0.00  0.00    -0.019 C 
ATOM     27  C   UNL     1       4.504  -0.080  -1.562  0.00  0.00    -0.003 C 
ATOM     28  C   UNL     1       4.511   1.091  -2.548  0.00  0.00    -0.015 C 
ATOM     29  C   UNL     1       3.436   2.102  -2.139  0.00  0.00    -0.068 C 
ATOM     30  N   UNL     1       3.734   2.595  -0.777  0.00  0.00    +0.387 N 
ATOM     31  H   UNL     1       4.684   2.984  -0.765  0.00  0.00    -0.081 HD
BRANCH  29  32
ATOM     32  C   UNL     1       3.452   3.284  -3.110  0.00  0.00    -0.019 C 
ATOM     33  C   UNL     1       3.076   2.798  -4.511  0.00  0.00    +0.002 C 
ENDBRANCH  29  32
ENDBRANCH  24  30
ENDBRANCH   2  24
TORSDOF 10
