REMARK  Name = ZINC04625858
REMARK  12 active torsions:
REMARK  status: ('A' for Active; 'I' for Inactive)
REMARK    1  A    between atoms: C_1  and  C_2
REMARK    2  A    between atoms: C_2  and  N_3
REMARK    3  A    between atoms: N_3  and  C_4
REMARK    4  A    between atoms: N_3  and  C_6
REMARK    5  A    between atoms: C_4  and  C_5
REMARK    6  A    between atoms: C_9  and  C_12
REMARK    7  A    between atoms: C_19  and  O_20
REMARK    8  A    between atoms: C_22  and  C_29
REMARK    9  A    between atoms: C_22  and  O_30
REMARK   10  A    between atoms: C_23  and  C_25
REMARK   11  A    between atoms: C_25  and  O_27
REMARK   12  A    between atoms: O_27  and  C_28
REMARK                            x       y       z     vdW  Elec       q    Type
REMARK                         _______ _______ _______ _____ _____    ______ ____
ROOT
ATOM      1  C   UNL     1       0.735   0.702   1.287  0.00  0.00    +0.072 C 
ATOM      2  C   UNL     1       1.387   2.062   1.270  0.00  0.00    +0.044 A 
ATOM      3  C   UNL     1       0.720   3.229   1.454  0.00  0.00    +0.046 A 
ATOM      4  N   UNL     1       1.610   4.232   1.371  0.00  0.00    -0.278 N 
ATOM      5  H   UNL     1       1.409   5.207   1.464  0.00  0.00    +0.189 HD
ATOM      6  N   UNL     1       2.872   3.669   1.130  0.00  0.00    -0.136 NA
ATOM      7  C   UNL     1       2.736   2.364   1.070  0.00  0.00    +0.235 A 
ATOM      8  C   UNL     1      -0.764   3.324   1.707  0.00  0.00    +0.090 C 
ATOM      9  C   UNL     1      -1.273   1.939   2.125  0.00  0.00    +0.082 C 
ATOM     10  C   UNL     1      -0.778   0.889   1.125  0.00  0.00    +0.141 C 
ATOM     11  C   UNL     1      -2.803   1.942   2.145  0.00  0.00    +0.042 C 
ENDROOT
BRANCH   1  15
ATOM     12  C   UNL     1       2.248  -1.661  -1.937  0.00  0.00    +0.030 A 
ATOM     13  C   UNL     1       2.399  -2.095  -0.625  0.00  0.00    +0.023 A 
ATOM     14  C   UNL     1       1.909  -1.328   0.414  0.00  0.00    +0.006 A 
ATOM     15  C   UNL     1       1.269  -0.131   0.150  0.00  0.00    -0.039 A 
ATOM     16  C   UNL     1       1.112   0.300  -1.154  0.00  0.00    +0.006 A 
ATOM     17  C   UNL     1       1.605  -0.459  -2.198  0.00  0.00    +0.023 A 
BRANCH  12  18
ATOM     18  N   UNL     1       2.743  -2.434  -2.990  0.00  0.00    -0.330 N 
BRANCH  18  20
ATOM     19  C   UNL     1       3.789  -1.123  -4.770  0.00  0.00    +0.024 C 
ATOM     20  C   UNL     1       2.583  -1.976  -4.372  0.00  0.00    +0.102 C 
ENDBRANCH  18  20
BRANCH  18  21
ATOM     21  C   UNL     1       3.421  -3.703  -2.713  0.00  0.00    +0.102 C 
ATOM     22  C   UNL     1       2.395  -4.837  -2.700  0.00  0.00    +0.024 C 
ENDBRANCH  18  21
ENDBRANCH  12  18
ENDBRANCH   1  15
BRANCH   7  23
ATOM     23  O   UNL     1       3.733   1.466   0.850  0.00  0.00    -0.491 OA
ATOM     24  H   UNL     1       4.601   1.951   0.740  0.00  0.00    +0.294 HD
ENDBRANCH   7  23
BRANCH  10  25
ATOM     25  C   UNL     1      -1.477  -0.420   1.385  0.00  0.00    +0.314 C 
ATOM     26  O   UNL     1      -1.268  -1.024   2.411  0.00  0.00    -0.250 OA
BRANCH  25  27
ATOM     27  O   UNL     1      -2.332  -0.917   0.477  0.00  0.00    -0.468 OA
ATOM     28  C   UNL     1      -2.969  -2.183   0.793  0.00  0.00    +0.280 C 
ENDBRANCH  25  27
ENDBRANCH  10  25
BRANCH   9  29
ATOM     29  O   UNL     1      -0.780   1.624   3.429  0.00  0.00    -0.388 OA
ATOM     30  H   UNL     1      -1.056   2.248   4.114  0.00  0.00    +0.210 HD
ENDBRANCH   9  29
TORSDOF 8
