REMARK  Name = ZINC01950564
REMARK  9 active torsions:
REMARK  status: ('A' for Active; 'I' for Inactive)
REMARK    1  A    between atoms: C_1  and  C_2
REMARK    2  A    between atoms: C_2  and  C_25
REMARK    3  A    between atoms: C_4  and  N_9
REMARK    4  A    between atoms: C_6  and  C_7
REMARK    5  A    between atoms: C_6  and  C_8
REMARK    6  A    between atoms: C_10  and  C_11
REMARK    7  A    between atoms: C_10  and  C_17
REMARK    8  A    between atoms: C_20  and  O_24
REMARK    9  A    between atoms: C_22  and  O_23
REMARK                            x       y       z     vdW  Elec       q    Type
REMARK                         _______ _______ _______ _____ _____    ______ ____
ROOT
ATOM      1  N   UNL     1       5.513   3.570  -1.268  0.00  0.00    -0.279 NA
ATOM      2  C   UNL     1       5.138   3.304  -0.048  0.00  0.00    +0.076 C 
ENDROOT
BRANCH   1   6
ATOM      3  C   UNL     1       9.896   4.011  -1.241  0.00  0.00    -0.010 C 
ATOM      4  C   UNL     1       9.073   3.934  -2.533  0.00  0.00    -0.071 C 
ATOM      5  C   UNL     1       7.732   3.265  -2.244  0.00  0.00    +0.014 C 
ATOM      6  C   UNL     1       6.801   4.232  -1.513  0.00  0.00    +0.103 C 
ATOM      7  C   UNL     1       6.577   5.456  -2.400  0.00  0.00    +0.014 C 
ATOM      8  C   UNL     1       7.905   6.152  -2.688  0.00  0.00    -0.071 C 
ATOM      9  C   UNL     1       8.360   6.925  -1.444  0.00  0.00    -0.010 C 
ATOM     10  C   UNL     1       7.654   7.190  -3.804  0.00  0.00    -0.010 C 
ATOM     11  C   UNL     1       9.846   3.024  -3.513  0.00  0.00    -0.010 C 
ATOM     12  N   UNL     1       8.982   5.261  -3.199  0.00  0.00    +0.386 N 
ATOM     13  H   UNL     1       8.815   5.104  -4.200  0.00  0.00    -0.084 HD
ATOM     14  H   UNL     1       9.880   5.743  -3.073  0.00  0.00    -0.084 HD
ENDBRANCH   1   6
BRANCH   2  15
ATOM     15  C   UNL     1       6.069   3.537   1.081  0.00  0.00    +0.001 A 
ATOM     16  C   UNL     1       7.283   2.853   1.139  0.00  0.00    +0.010 A 
ATOM     17  C   UNL     1       8.149   3.077   2.190  0.00  0.00    +0.001 A 
ATOM     18  C   UNL     1       7.809   3.971   3.191  0.00  0.00    +0.000 A 
ATOM     19  C   UNL     1       6.604   4.649   3.141  0.00  0.00    +0.001 A 
ATOM     20  C   UNL     1       5.733   4.436   2.092  0.00  0.00    +0.010 A 
ENDBRANCH   2  15
BRANCH   2  21
ATOM     21  C   UNL     1       3.785   2.769   0.209  0.00  0.00    +0.042 A 
ATOM     22  C   UNL     1       3.402   2.426   1.508  0.00  0.00    +0.017 A 
ATOM     23  C   UNL     1       2.138   1.933   1.745  0.00  0.00    +0.046 A 
ATOM     24  C   UNL     1       1.244   1.764   0.693  0.00  0.00    +0.120 A 
ATOM     25  C   UNL     1       1.615   2.102  -0.600  0.00  0.00    +0.091 A 
ATOM     26  C   UNL     1       2.881   2.604  -0.849  0.00  0.00    +0.129 A 
BRANCH  26  27
ATOM     27  O   UNL     1       3.246   2.935  -2.114  0.00  0.00    -0.506 OA
ATOM     28  H   UNL     1       3.051   3.852  -2.352  0.00  0.00    +0.292 HD
ENDBRANCH  26  27
BRANCH  24  29
ATOM     29  O   UNL     1       0.002   1.272   0.934  0.00  0.00    -0.507 OA
ATOM     30  H   UNL     1      -0.058   0.309   0.875  0.00  0.00    +0.292 HD
ENDBRANCH  24  29
ENDBRANCH   2  21
TORSDOF 5
