REMARK  Name = ZINC48890647
REMARK  7 active torsions:
REMARK  status: ('A' for Active; 'I' for Inactive)
REMARK    1  A    between atoms: C_1  and  C_2
REMARK    2  A    between atoms: C_5  and  O_9
REMARK    3  A    between atoms: C_6  and  C_8
REMARK    4  A    between atoms: O_9  and  C_10
REMARK    5  A    between atoms: C_10  and  C_11
REMARK    6  A    between atoms: C_14  and  C_16
REMARK    7  A    between atoms: N_18  and  C_19
REMARK                            x       y       z     vdW  Elec       q    Type
REMARK                         _______ _______ _______ _____ _____    ______ ____
ROOT
ATOM      1  C   UNL     1       0.058  -4.771  -1.298  0.00  0.00    +0.303 C 
ENDROOT
BRANCH   1   2
ATOM      2  C   UNL     1       0.079  -6.266  -1.108  0.00  0.00    +0.143 A 
ATOM      3  C   UNL     1      -1.009  -7.061  -1.009  0.00  0.00    +0.049 A 
ATOM      4  C   UNL     1      -0.546  -8.376  -0.843  0.00  0.00    +0.055 A 
ATOM      5  C   UNL     1       0.818  -8.315  -0.849  0.00  0.00    +0.190 A 
ATOM      6  O   UNL     1       1.178  -7.026  -1.016  0.00  0.00    -0.452 OA
BRANCH   5   7
ATOM      7  C   UNL     1       1.732  -9.453  -0.704  0.00  0.00    +0.279 C 
ATOM      8  O   UNL     1       1.287 -10.576  -0.562  0.00  0.00    -0.267 OA
ATOM      9  N   UNL     1       3.065  -9.254  -0.728  0.00  0.00    -0.312 N 
ATOM     10  C   UNL     1       3.978 -10.390  -0.583  0.00  0.00    +0.128 C 
ATOM     11  H   UNL     1       3.420  -8.358  -0.841  0.00  0.00    +0.149 HD
ENDBRANCH   5   7
ENDBRANCH   1   2
BRANCH   1  12
ATOM     12  O   UNL     1       0.057  -4.129  -0.021  0.00  0.00    -0.484 OA
BRANCH  12  17
ATOM     13  C   UNL     1      -0.018   1.503   0.010  0.00  0.00    +0.044 C 
ATOM     14  C   UNL     1       0.002  -0.004   0.002  0.00  0.00    -0.050 A 
ATOM     15  C   UNL     1       0.006  -0.688  -1.200  0.00  0.00    +0.007 A 
ATOM     16  C   UNL     1       0.024  -2.069  -1.210  0.00  0.00    +0.046 A 
ATOM     17  C   UNL     1       0.039  -2.770  -0.013  0.00  0.00    +0.124 A 
ATOM     18  C   UNL     1       0.036  -2.082   1.191  0.00  0.00    -0.009 A 
ATOM     19  C   UNL     1       0.023  -0.701   1.196  0.00  0.00    +0.010 A 
ATOM     20  C   UNL     1       0.052  -2.841   2.493  0.00  0.00    +0.047 C 
ENDBRANCH  12  17
ENDBRANCH   1  12
TORSDOF 4
