REMARK  Name = ZINC04660473
REMARK  5 active torsions:
REMARK  status: ('A' for Active; 'I' for Inactive)
REMARK    1  A    between atoms: C_9  and  C_12
REMARK    2  A    between atoms: C_12  and  N_13
REMARK    3  A    between atoms: C_14  and  C_16
REMARK    4  A    between atoms: C_19  and  N_25
REMARK    5  A    between atoms: C_20  and  N_22
REMARK                            x       y       z     vdW  Elec       q    Type
REMARK                         _______ _______ _______ _____ _____    ______ ____
ROOT
ATOM      1  N   UNL     1      -1.166   1.039   1.256  0.00  0.00    -0.308 N 
ATOM      2  C   UNL     1      -0.551   0.861   2.442  0.00  0.00    +0.244 C 
ATOM      3  O   UNL     1       0.433   0.150   2.516  0.00  0.00    -0.270 OA
ATOM      4  H   UNL     1      -1.951   1.606   1.197  0.00  0.00    +0.149 HD
ENDROOT
BRANCH   2   5
ATOM      5  C   UNL     1      -1.071   1.529   3.650  0.00  0.00    +0.039 A 
ATOM      6  C   UNL     1      -2.199   2.351   3.565  0.00  0.00    +0.015 A 
ATOM      7  C   UNL     1      -2.685   2.968   4.695  0.00  0.00    +0.026 A 
ATOM      8  C   UNL     1      -2.049   2.784   5.920  0.00  0.00    +0.055 A 
ATOM      9  C   UNL     1      -0.922   1.971   6.006  0.00  0.00    +0.147 A 
ATOM     10  C   UNL     1      -0.434   1.346   4.881  0.00  0.00    +0.047 A 
BRANCH   9  11
ATOM     11  N   UNL     1      -0.248   1.777   7.310  0.00  0.00    +0.058 N 
ATOM     12  O   UNL     1       0.800   1.160   7.368  0.00  0.00    -0.126 OA
ATOM     13  O   UNL     1      -0.742   2.236   8.325  0.00  0.00    -0.126 OA
ENDBRANCH   9  11
BRANCH   8  14
ATOM     14  N   UNL     1      -2.539   3.414   7.058  0.00  0.00    -0.356 N 
ATOM     15  H   UNL     1      -1.946   3.599   7.803  0.00  0.00    +0.142 HD
ATOM     16  H   UNL     1      -3.474   3.668   7.107  0.00  0.00    +0.142 HD
ENDBRANCH   8  14
ENDBRANCH   2   5
BRANCH   1  17
ATOM     17  C   UNL     1      -0.649   0.376   0.056  0.00  0.00    +0.152 C 
BRANCH  17  26
ATOM     18  C   UNL     1      -5.425   0.248  -4.156  0.00  0.00    +0.004 A 
ATOM     19  C   UNL     1      -5.931   0.223  -2.870  0.00  0.00    +0.004 A 
ATOM     20  C   UNL     1      -5.074   0.246  -1.786  0.00  0.00    +0.049 A 
ATOM     21  C   UNL     1      -3.702   0.295  -1.987  0.00  0.00    +0.163 A 
ATOM     22  C   UNL     1      -3.193   0.323  -3.280  0.00  0.00    +0.162 A 
ATOM     23  C   UNL     1      -4.059   0.298  -4.362  0.00  0.00    +0.049 A 
ATOM     24  O   UNL     1      -1.851   0.378  -3.499  0.00  0.00    -0.485 OA
ATOM     25  C   UNL     1      -1.004   0.025  -2.399  0.00  0.00    +0.275 C 
ATOM     26  C   UNL     1      -1.523   0.741  -1.145  0.00  0.00    +0.228 C 
ATOM     27  O   UNL     1      -2.870   0.315  -0.910  0.00  0.00    -0.480 OA
ENDBRANCH  17  26
ENDBRANCH   1  17
TORSDOF 5
