REMARK  Name = ZINC07887965
REMARK  7 active torsions:
REMARK  status: ('A' for Active; 'I' for Inactive)
REMARK    1  A    between atoms: C_1  and  C_2
REMARK    2  A    between atoms: C_2  and  C_4
REMARK    3  A    between atoms: C_2  and  O_15
REMARK    4  A    between atoms: N_6  and  C_7
REMARK    5  A    between atoms: C_12  and  C_13
REMARK    6  A    between atoms: O_15  and  C_16
REMARK    7  A    between atoms: C_16  and  C_18
REMARK                            x       y       z     vdW  Elec       q    Type
REMARK                         _______ _______ _______ _____ _____    ______ ____
ROOT
ATOM      1  C   UNL     1       6.467   2.595   1.384  0.00  0.00    +0.062 C 
ATOM      2  C   UNL     1       6.037   2.314  -0.057  0.00  0.00    +0.259 C 
ENDROOT
BRANCH   2   3
ATOM      3  C   UNL     1       7.135   1.568  -0.772  0.00  0.00    +0.258 C 
ATOM      4  O   UNL     1       6.919   0.468  -1.234  0.00  0.00    -0.271 OA
ATOM      5  N   UNL     1       8.356   2.124  -0.899  0.00  0.00    -0.281 N 
ATOM      6  H   UNL     1       8.511   3.030  -0.588  0.00  0.00    +0.155 HD
BRANCH   5   7
ATOM      7  C   UNL     1       9.396   1.398  -1.476  0.00  0.00    +0.051 A 
ATOM      8  C   UNL     1       9.136   0.509  -2.510  0.00  0.00    +0.024 A 
ATOM      9  C   UNL     1      10.168  -0.205  -3.084  0.00  0.00    +0.002 A 
ATOM     10  C   UNL     1      11.467  -0.050  -2.629  0.00  0.00    +0.001 A 
ATOM     11  C   UNL     1      11.744   0.824  -1.599  0.00  0.00    +0.021 A 
ATOM     12  C   UNL     1      10.710   1.558  -1.012  0.00  0.00    +0.073 A 
BRANCH  12  13
ATOM     13  C   UNL     1      10.990   2.467   0.058  0.00  0.00    +0.101 C 
ATOM     14  N   UNL     1      11.213   3.189   0.907  0.00  0.00    -0.191 NA
ENDBRANCH  12  13
ENDBRANCH   5   7
ENDBRANCH   2   3
BRANCH   2  15
ATOM     15  O   UNL     1       4.828   1.510  -0.054  0.00  0.00    -0.449 OA
BRANCH  15  16
ATOM     16  C   UNL     1       3.654   2.171  -0.050  0.00  0.00    +0.340 C 
ATOM     17  O   UNL     1       3.641   3.386  -0.048  0.00  0.00    -0.245 OA
BRANCH  16  18
ATOM     18  C   UNL     1       2.383   1.419  -0.046  0.00  0.00    +0.059 A 
ATOM     19  C   UNL     1       2.393   0.022  -0.048  0.00  0.00    +0.015 A 
ATOM     20  C   UNL     1       1.203  -0.671  -0.045  0.00  0.00    +0.005 A 
ATOM     21  C   UNL     1      -0.006   0.009  -0.040  0.00  0.00    -0.044 A 
ATOM     22  C   UNL     1      -0.023   1.393  -0.038  0.00  0.00    -0.043 A 
ATOM     23  C   UNL     1       1.165   2.099  -0.042  0.00  0.00    +0.019 A 
ATOM     24  C   UNL     1      -1.454   1.887  -0.039  0.00  0.00    +0.036 C 
ATOM     25  C   UNL     1      -2.301   0.674  -0.472  0.00  0.00    +0.009 C 
ATOM     26  C   UNL     1      -1.425  -0.519  -0.035  0.00  0.00    +0.036 C 
ENDBRANCH  16  18
ENDBRANCH  15  16
ENDBRANCH   2  15
TORSDOF 6
