REMARK  Name = ZINC39871600
REMARK  9 active torsions:
REMARK  status: ('A' for Active; 'I' for Inactive)
REMARK    1  A    between atoms: C_1  and  C_2
REMARK    2  A    between atoms: C_3  and  C_27
REMARK    3  A    between atoms: N_6  and  C_23
REMARK    4  A    between atoms: C_8  and  N_9
REMARK    5  A    between atoms: N_10  and  C_11
REMARK    6  A    between atoms: C_14  and  N_18
REMARK    7  A    between atoms: C_23  and  C_24
REMARK    8  A    between atoms: C_24  and  C_25
REMARK    9  A    between atoms: C_24  and  C_26
REMARK                            x       y       z     vdW  Elec       q    Type
REMARK                         _______ _______ _______ _____ _____    ______ ____
ROOT
ATOM      1  C   UNL     1      -0.018   1.503   0.010  0.00  0.00    +0.048 C 
ATOM      2  C   UNL     1       0.002  -0.004   0.002  0.00  0.00    +0.005 A 
ATOM      3  C   UNL     1       0.006  -0.705  -1.200  0.00  0.00    +0.121 A 
ATOM      4  C   UNL     1       0.025  -2.123  -1.178  0.00  0.00    +0.272 A 
ATOM      5  O   UNL     1       0.029  -2.745  -2.226  0.00  0.00    -0.266 OA
ATOM      6  N   UNL     1       0.040  -2.786  -0.008  0.00  0.00    -0.273 N 
ATOM      7  C   UNL     1       0.036  -2.123   1.175  0.00  0.00    +0.282 A 
ATOM      8  C   UNL     1       0.023  -0.725   1.208  0.00  0.00    +0.155 A 
ATOM      9  O   UNL     1       0.050  -2.817   2.329  0.00  0.00    -0.265 OA
ENDROOT
BRANCH   8  10
ATOM     10  N   UNL     1       0.026  -0.066   2.400  0.00  0.00    -0.143 NA
ATOM     11  N   UNL     1       0.046  -0.732   3.505  0.00  0.00    -0.147 NA
BRANCH  11  12
ATOM     12  C   UNL     1       0.049  -0.072   4.701  0.00  0.00    +0.114 A 
ATOM     13  C   UNL     1       0.025   1.326   4.733  0.00  0.00    +0.048 A 
ATOM     14  C   UNL     1       0.028   1.986   5.945  0.00  0.00    +0.050 A 
ATOM     15  C   UNL     1       0.054   1.267   7.127  0.00  0.00    +0.128 A 
ATOM     16  C   UNL     1       0.078  -0.116   7.105  0.00  0.00    +0.050 A 
ATOM     17  C   UNL     1       0.070  -0.790   5.901  0.00  0.00    +0.048 A 
ATOM     18 BR   UNL     1       0.094  -2.681   5.873  0.00  0.00    -0.048 Br
ATOM     19 BR   UNL     1      -0.011   2.310   3.118  0.00  0.00    -0.048 Br
BRANCH  15  20
ATOM     20  N   UNL     1       0.058   1.983   8.423  0.00  0.00    +0.056 N 
ATOM     21  O   UNL     1       0.038   3.191   8.447  0.00  0.00    -0.126 OA
ATOM     22  O   UNL     1       0.081   1.359   9.458  0.00  0.00    -0.126 OA
ENDBRANCH  15  20
ENDBRANCH  11  12
ENDBRANCH   8  10
BRANCH   3  23
ATOM     23  C   UNL     1      -0.010  -0.001  -2.448  0.00  0.00    +0.105 C 
ATOM     24  N   UNL     1      -0.022   0.557  -3.437  0.00  0.00    -0.191 NA
ENDBRANCH   3  23
BRANCH   6  25
ATOM     25  C   UNL     1       0.060  -4.251  -0.011  0.00  0.00    +0.131 C 
BRANCH  25  26
ATOM     26  C   UNL     1       1.509  -4.741  -0.019  0.00  0.00    +0.003 C 
ATOM     27  C   UNL     1       2.193  -4.330   1.286  0.00  0.00    +0.009 C 
ATOM     28  C   UNL     1       1.531  -6.266  -0.148  0.00  0.00    +0.009 C 
ENDBRANCH  25  26
ENDBRANCH   6  25
TORSDOF 6
