REMARK  Name = ZINC06662823
REMARK  5 active torsions:
REMARK  status: ('A' for Active; 'I' for Inactive)
REMARK    1  A    between atoms: C_1  and  C_2
REMARK    2  A    between atoms: C_2  and  C_24
REMARK    3  A    between atoms: C_7  and  N_12
REMARK    4  A    between atoms: C_8  and  C_9
REMARK    5  A    between atoms: C_13  and  C_15
REMARK                            x       y       z     vdW  Elec       q    Type
REMARK                         _______ _______ _______ _____ _____    ______ ____
ROOT
ATOM      1  C   UNL     1      -0.019   1.526   0.010  0.00  0.00    +0.041 C 
ATOM      2  C   UNL     1       0.002  -0.004   0.002  0.00  0.00    +0.068 C 
ATOM      3  C   UNL     1       0.705  -0.496  -1.268  0.00  0.00    +0.071 C 
ATOM      4  C   UNL     1       0.930  -1.995  -1.129  0.00  0.00    -0.016 A 
ATOM      5  C   UNL     1       0.854  -2.582   0.087  0.00  0.00    +0.021 A 
ATOM      6  S   UNL     1       1.176  -4.292  -0.219  0.00  0.00    -0.075 S 
ATOM      7  C   UNL     1       1.405  -4.248  -1.883  0.00  0.00    +0.087 A 
ATOM      8  C   UNL     1       1.234  -2.907  -2.214  0.00  0.00    +0.095 A 
ATOM      9  C   UNL     1       0.560  -1.889   1.380  0.00  0.00    +0.203 C 
ATOM     10  O   UNL     1       0.694  -0.475   1.161  0.00  0.00    -0.368 OA
ATOM     11  C   UNL     1      -1.434  -0.531   0.020  0.00  0.00    +0.041 C 
ENDROOT
BRANCH   7  12
ATOM     12  N   UNL     1       1.698  -5.301  -2.729  0.00  0.00    -0.272 N 
ATOM     13  C   UNL     1       1.831  -6.547  -2.232  0.00  0.00    +0.304 C 
ATOM     14  O   UNL     1       1.693  -6.744  -1.042  0.00  0.00    -0.265 OA
ATOM     15  H   UNL     1       1.808  -5.144  -3.680  0.00  0.00    +0.156 HD
BRANCH  13  16
ATOM     16  C   UNL     1       2.147  -7.685  -3.146  0.00  0.00    +0.302 C 
ATOM     17  O   UNL     1       2.284  -7.488  -4.335  0.00  0.00    -0.265 OA
ATOM     18  N   UNL     1       2.279  -8.931  -2.649  0.00  0.00    -0.294 N 
ATOM     19  C   UNL     1       2.133  -9.310  -1.236  0.00  0.00    +0.108 C 
ATOM     20  C   UNL     1       2.397 -10.828  -1.139  0.00  0.00    +0.020 C 
ATOM     21  C   UNL     1       3.232 -11.117  -2.415  0.00  0.00    +0.020 C 
ATOM     22  C   UNL     1       2.589 -10.140  -3.434  0.00  0.00    +0.108 C 
ENDBRANCH  13  16
ENDBRANCH   7  12
BRANCH   8  23
ATOM     23  C   UNL     1       1.350  -2.454  -3.553  0.00  0.00    +0.389 C 
ATOM     24  O   UNL     1       1.193  -1.268  -3.814  0.00  0.00    -0.240 OA
ATOM     25  O   UNL     1       1.607  -3.249  -4.449  0.00  0.00    -0.240 OA
ENDBRANCH   8  23
TORSDOF 3
