REMARK  Name = ZINC02782015
REMARK  11 active torsions:
REMARK  status: ('A' for Active; 'I' for Inactive)
REMARK    1  A    between atoms: C_1  and  C_2
REMARK    2  A    between atoms: C_5  and  C_24
REMARK    3  A    between atoms: C_10  and  C_12
REMARK    4  A    between atoms: N_14  and  N_15
REMARK    5  A    between atoms: N_15  and  C_16
REMARK    6  A    between atoms: C_16  and  N_18
REMARK    7  A    between atoms: N_18  and  C_19
REMARK    8  A    between atoms: C_19  and  C_20
REMARK    9  A    between atoms: C_20  and  O_21
REMARK   10  A    between atoms: O_21  and  C_22
REMARK   11  A    between atoms: C_24  and  C_25
REMARK                            x       y       z     vdW  Elec       q    Type
REMARK                         _______ _______ _______ _____ _____    ______ ____
ROOT
ATOM      1  C   UNL     1       0.430   2.144  -0.108  0.00  0.00    +0.028 C 
ATOM      2  C   UNL     1       0.277   0.633   0.077  0.00  0.00    +0.071 C 
ATOM      3  C   UNL     1       0.845  -0.096  -1.145  0.00  0.00    +0.055 C 
ATOM      4  C   UNL     1       2.308   0.307  -1.359  0.00  0.00    +0.189 C 
ATOM      5  N   UNL     1       3.029   0.167  -0.091  0.00  0.00    -0.241 N 
ATOM      6  C   UNL     1       2.415   0.117   1.129  0.00  0.00    +0.118 A 
ATOM      7  C   UNL     1       3.367  -0.018   2.073  0.00  0.00    +0.078 A 
ATOM      8  C   UNL     1       4.618  -0.050   1.416  0.00  0.00    +0.150 A 
ATOM      9  N   UNL     1       4.404   0.062   0.117  0.00  0.00    -0.164 NA
ATOM     10  N   UNL     1       1.024   0.202   1.275  0.00  0.00    -0.327 N 
ATOM     11  H   UNL     1       0.578  -0.010   2.110  0.00  0.00    +0.148 HD
ENDROOT
BRANCH   8  12
ATOM     12  C   UNL     1       5.937  -0.185   2.069  0.00  0.00    +0.280 C 
ATOM     13  O   UNL     1       6.009  -0.281   3.278  0.00  0.00    -0.267 OA
ATOM     14  N   UNL     1       7.059  -0.203   1.323  0.00  0.00    -0.230 N 
ATOM     15  H   UNL     1       7.001  -0.127   0.357  0.00  0.00    +0.173 HD
BRANCH  14  16
ATOM     16  N   UNL     1       8.309  -0.331   1.942  0.00  0.00    -0.246 N 
ATOM     17  H   UNL     1       8.367  -0.407   2.907  0.00  0.00    +0.172 HD
BRANCH  16  18
ATOM     18  C   UNL     1       9.432  -0.348   1.196  0.00  0.00    +0.147 C 
ATOM     19  S   UNL     1      10.960  -0.505   1.952  0.00  0.00    -0.017 S 
BRANCH  18  20
ATOM     20  N   UNL     1       9.352  -0.242  -0.145  0.00  0.00    -0.323 N 
ATOM     21  H   UNL     1       8.486  -0.154  -0.574  0.00  0.00    +0.148 HD
BRANCH  20  22
ATOM     22  C   UNL     1      10.572  -0.261  -0.956  0.00  0.00    +0.131 C 
BRANCH  22  23
ATOM     23  C   UNL     1      10.204  -0.127  -2.435  0.00  0.00    +0.178 C 
BRANCH  23  24
ATOM     24  O   UNL     1       9.617   1.156  -2.664  0.00  0.00    -0.381 OA
ATOM     25  C   UNL     1       9.235   1.386  -4.022  0.00  0.00    +0.194 C 
ENDBRANCH  23  24
ENDBRANCH  22  23
ENDBRANCH  20  22
ENDBRANCH  18  20
ENDBRANCH  16  18
ENDBRANCH  14  16
ENDBRANCH   8  12
BRANCH   4  26
ATOM     26  C   UNL     1       2.941  -0.602  -2.414  0.00  0.00    +0.363 C 
ATOM     27  F   UNL     1       4.301  -0.298  -2.537  0.00  0.00    -0.193 F 
ATOM     28  F   UNL     1       2.796  -1.938  -2.026  0.00  0.00    -0.193 F 
BRANCH  26  29
ATOM     29  C   UNL     1       2.246  -0.384  -3.760  0.00  0.00    +0.456 C 
ATOM     30  F   UNL     1       2.269   0.978  -4.080  0.00  0.00    -0.165 F 
ATOM     31  F   UNL     1       2.914  -1.108  -4.753  0.00  0.00    -0.165 F 
ATOM     32  F   UNL     1       0.920  -0.820  -3.675  0.00  0.00    -0.165 F 
ENDBRANCH  26  29
ENDBRANCH   4  26
TORSDOF 9
