REMARK  Name = ZINC46021969
REMARK  6 active torsions:
REMARK  status: ('A' for Active; 'I' for Inactive)
REMARK    1  A    between atoms: C_1  and  C_2
REMARK    2  A    between atoms: C_5  and  C_8
REMARK    3  A    between atoms: C_8  and  N_9
REMARK    4  A    between atoms: N_11  and  C_12
REMARK    5  A    between atoms: C_16  and  C_18
REMARK    6  A    between atoms: N_24  and  C_27
REMARK                            x       y       z     vdW  Elec       q    Type
REMARK                         _______ _______ _______ _____ _____    ______ ____
ROOT
ATOM      1  N   UNL     1      -1.112  -5.309   0.503  0.00  0.00    -0.313 N 
ATOM      2  C   UNL     1      -0.005  -6.052   0.181  0.00  0.00    +0.183 C 
ATOM      3  N   UNL     1       0.205  -6.412  -1.065  0.00  0.00    -0.219 NA
ATOM      4  N   UNL     1       0.883  -6.421   1.160  0.00  0.00    -0.307 N 
ATOM      5  C   UNL     1       0.594  -6.162   2.579  0.00  0.00    +0.089 C 
ATOM      6  C   UNL     1       0.803  -7.462   3.362  0.00  0.00    -0.059 C 
ATOM      7  N   UNL     1       2.154  -7.976   3.103  0.00  0.00    +0.384 N 
ATOM      8  C   UNL     1       2.287  -8.342   1.687  0.00  0.00    -0.059 C 
ATOM      9  C   UNL     1       2.148  -7.091   0.822  0.00  0.00    +0.089 C 
ATOM     10  H   UNL     1      -1.959  -5.484   0.063  0.00  0.00    +0.149 HD
ATOM     11  H   UNL     1       2.833  -7.265   3.330  0.00  0.00    -0.081 HD
ENDROOT
BRANCH   3  12
ATOM     12  C   UNL     1      -0.689  -6.056  -2.040  0.00  0.00    +0.068 A 
ATOM     13  C   UNL     1      -1.445  -7.037  -2.687  0.00  0.00    +0.028 A 
ATOM     14  C   UNL     1      -2.346  -6.681  -3.671  0.00  0.00    +0.003 A 
ATOM     15  C   UNL     1      -2.508  -5.356  -4.023  0.00  0.00    +0.015 A 
ATOM     16  C   UNL     1      -1.758  -4.364  -3.384  0.00  0.00    +0.065 A 
ATOM     17  C   UNL     1      -0.850  -4.716  -2.385  0.00  0.00    +0.043 A 
BRANCH  16  18
ATOM     18  C   UNL     1      -1.931  -2.948  -3.761  0.00  0.00    +0.387 C 
ATOM     19  O   UNL     1      -2.731  -2.641  -4.634  0.00  0.00    -0.241 OA
ATOM     20  O   UNL     1      -1.274  -2.082  -3.202  0.00  0.00    -0.241 OA
ENDBRANCH  16  18
ENDBRANCH   3  12
BRANCH   7  21
ATOM     21  C   UNL     1       2.394  -9.161   3.938  0.00  0.00    -0.068 C 
ATOM     22  C   UNL     1       2.267  -8.779   5.414  0.00  0.00    -0.015 C 
ATOM     23  C   UNL     1       2.517 -10.013   6.283  0.00  0.00    -0.002 C 
ATOM     24  C   UNL     1       3.924 -10.550   6.014  0.00  0.00    -0.000 C 
ATOM     25  C   UNL     1       4.051 -10.932   4.538  0.00  0.00    -0.002 C 
ATOM     26  C   UNL     1       3.801  -9.698   3.669  0.00  0.00    -0.015 C 
ENDBRANCH   7  21
BRANCH   1  27
ATOM     27  C   UNL     1      -1.016  -4.250   1.510  0.00  0.00    +0.139 C 
BRANCH  27  32
ATOM     28  C   UNL     1      -2.722   0.767  -0.795  0.00  0.00    +0.044 C 
ATOM     29  C   UNL     1      -2.277  -0.541  -0.194  0.00  0.00    -0.050 A 
ATOM     30  C   UNL     1      -3.198  -1.366   0.425  0.00  0.00    +0.003 A 
ATOM     31  C   UNL     1      -2.790  -2.566   0.976  0.00  0.00    +0.005 A 
ATOM     32  C   UNL     1      -1.461  -2.942   0.908  0.00  0.00    -0.030 A 
ATOM     33  C   UNL     1      -0.540  -2.117   0.289  0.00  0.00    +0.005 A 
ATOM     34  C   UNL     1      -0.949  -0.919  -0.266  0.00  0.00    +0.003 A 
ENDBRANCH  27  32
ENDBRANCH   1  27
TORSDOF 5
