REMARK  Name = ZINC18200668
REMARK  4 active torsions:
REMARK  status: ('A' for Active; 'I' for Inactive)
REMARK    1  A    between atoms: C_3  and  C_6
REMARK    2  A    between atoms: C_11  and  C_20
REMARK    3  A    between atoms: C_23  and  O_26
REMARK    4  A    between atoms: O_26  and  C_27
REMARK                            x       y       z     vdW  Elec       q    Type
REMARK                         _______ _______ _______ _____ _____    ______ ____
ROOT
ATOM      1  C   UNL     1       5.427   2.095   5.744  0.00  0.00    +0.039 C 
ATOM      2  C   UNL     1       5.411   0.655   6.260  0.00  0.00    +0.060 C 
ATOM      3  C   UNL     1       4.016   0.088   6.142  0.00  0.00    +0.020 C 
ATOM      4  C   UNL     1       2.932   0.885   6.249  0.00  0.00    +0.041 C 
ATOM      5  C   UNL     1       1.522   0.345   6.142  0.00  0.00    +0.175 C 
ATOM      6  N   UNL     1       1.536  -1.109   6.242  0.00  0.00    -0.219 N 
ATOM      7  C   UNL     1       2.664  -1.854   6.133  0.00  0.00    +0.220 A 
ATOM      8  N   UNL     1       2.334  -3.110   6.260  0.00  0.00    -0.180 NA
ATOM      9  C   UNL     1       1.012  -3.209   6.455  0.00  0.00    +0.233 A 
ATOM     10  N   UNL     1       0.487  -2.003   6.452  0.00  0.00    -0.132 NA
ATOM     11  N   UNL     1       0.305  -4.399   6.633  0.00  0.00    -0.326 N 
ATOM     12  N   UNL     1       3.901  -1.265   5.929  0.00  0.00    -0.287 N 
ATOM     13  C   UNL     1       3.071   2.268   6.467  0.00  0.00    +0.164 C 
ATOM     14  O   UNL     1       2.075   2.956   6.576  0.00  0.00    -0.292 OA
ATOM     15  C   UNL     1       4.425   2.913   6.566  0.00  0.00    +0.088 C 
ATOM     16  H   UNL     1      -0.655  -4.378   6.769  0.00  0.00    +0.145 HD
ATOM     17  H   UNL     1       0.775  -5.248   6.621  0.00  0.00    +0.145 HD
ATOM     18  H   UNL     1       4.664  -1.793   5.646  0.00  0.00    +0.155 HD
ENDROOT
BRANCH   5  19
ATOM     19  C   UNL     1       0.932   0.749   4.816  0.00  0.00    -0.018 A 
ATOM     20  C   UNL     1      -0.208   1.532   4.777  0.00  0.00    +0.009 A 
ATOM     21  C   UNL     1      -0.751   1.903   3.563  0.00  0.00    +0.046 A 
ATOM     22  C   UNL     1      -0.153   1.491   2.381  0.00  0.00    +0.130 A 
ATOM     23  C   UNL     1       0.987   0.701   2.422  0.00  0.00    +0.046 A 
ATOM     24  C   UNL     1       1.530   0.336   3.639  0.00  0.00    +0.009 A 
BRANCH  22  25
ATOM     25  O   UNL     1      -0.686   1.856   1.185  0.00  0.00    -0.406 OA
BRANCH  25  26
ATOM     26  C   UNL     1      -0.017   1.395   0.010  0.00  0.00    +0.575 C 
ATOM     27  F   UNL     1       0.002  -0.004   0.002  0.00  0.00    -0.133 F 
ATOM     28  F   UNL     1       1.296   1.879  -0.000  0.00  0.00    -0.133 F 
ATOM     29  F   UNL     1      -0.694   1.858  -1.124  0.00  0.00    -0.133 F 
ENDBRANCH  25  26
ENDBRANCH  22  25
ENDBRANCH   5  19
BRANCH   1  32
ATOM     30  C   UNL     1       8.882   3.646   5.332  0.00  0.00    +0.008 A 
ATOM     31  C   UNL     1       7.648   3.152   4.951  0.00  0.00    +0.011 A 
ATOM     32  C   UNL     1       6.809   2.675   5.902  0.00  0.00    -0.006 A 
ATOM     33  S   UNL     1       7.768   2.906   7.390  0.00  0.00    -0.101 S 
ATOM     34  C   UNL     1       9.220   3.629   6.644  0.00  0.00    +0.045 A 
ENDBRANCH   1  32
TORSDOF 4
