REMARK  Name = ZINC39946180
REMARK  8 active torsions:
REMARK  status: ('A' for Active; 'I' for Inactive)
REMARK    1  A    between atoms: C_1  and  C_2
REMARK    2  A    between atoms: C_7  and  N_12
REMARK    3  A    between atoms: C_9  and  C_11
REMARK    4  A    between atoms: C_13  and  C_15
REMARK    5  A    between atoms: C_15  and  S_16
REMARK    6  A    between atoms: S_16  and  C_17
REMARK    7  A    between atoms: C_21  and  C_30
REMARK    8  A    between atoms: N_22  and  C_23
REMARK                            x       y       z     vdW  Elec       q    Type
REMARK                         _______ _______ _______ _____ _____    ______ ____
ROOT
ATOM      1  C   UNL     1       4.087  -5.895   4.671  0.00  0.00    +0.241 C 
ATOM      2  N   UNL     1       3.173  -5.868   5.825  0.00  0.00    -0.237 N 
ATOM      3  N   UNL     1       3.946  -5.514   6.937  0.00  0.00    -0.169 NA
ATOM      4  C   UNL     1       5.196  -5.327   6.605  0.00  0.00    +0.151 C 
ATOM      5  N   UNL     1       5.398  -5.535   5.235  0.00  0.00    -0.254 N 
ATOM      6  H   UNL     1       2.221  -6.058   5.816  0.00  0.00    +0.171 HD
ENDROOT
BRANCH   4   7
ATOM      7  C   UNL     1       6.208  -4.964   7.507  0.00  0.00    +0.022 C 
ATOM      8  C   UNL     1       6.099  -4.841   8.893  0.00  0.00    +0.006 A 
ATOM      9  C   UNL     1       5.021  -5.027   9.784  0.00  0.00    +0.010 A 
ATOM     10  C   UNL     1       5.207  -4.834  11.115  0.00  0.00    +0.001 A 
ATOM     11  C   UNL     1       6.447  -4.453  11.633  0.00  0.00    +0.002 A 
ATOM     12  C   UNL     1       7.525  -4.258  10.835  0.00  0.00    +0.026 A 
ATOM     13  C   UNL     1       7.408  -4.441   9.433  0.00  0.00    +0.043 A 
ATOM     14  N   UNL     1       8.290  -4.316   8.461  0.00  0.00    -0.380 N 
ATOM     15  C   UNL     1       7.647  -4.629   7.181  0.00  0.00    +0.152 C 
ATOM     16  H   UNL     1       9.219  -4.061   8.575  0.00  0.00    +0.160 HD
ENDBRANCH   4   7
BRANCH   5  17
ATOM     17  C   UNL     1       6.605  -5.424   4.539  0.00  0.00    +0.038 A 
ATOM     18  C   UNL     1       7.409  -6.542   4.356  0.00  0.00    +0.025 A 
ATOM     19  C   UNL     1       8.601  -6.429   3.668  0.00  0.00    +0.022 A 
ATOM     20  C   UNL     1       8.995  -5.203   3.161  0.00  0.00    +0.041 A 
ATOM     21  C   UNL     1       8.196  -4.087   3.342  0.00  0.00    +0.022 A 
ATOM     22  C   UNL     1       7.000  -4.196   4.024  0.00  0.00    +0.025 A 
ATOM     23 CL   UNL     1      10.494  -5.064   2.297  0.00  0.00    -0.084 Cl
ENDBRANCH   5  17
BRANCH   1  24
ATOM     24  S   UNL     1       3.575  -4.678   3.428  0.00  0.00    -0.108 S 
BRANCH  24  25
ATOM     25  C   UNL     1       3.558  -3.106   4.334  0.00  0.00    +0.168 C 
BRANCH  25  27
ATOM     26  N   UNL     1       3.059  -0.730   3.861  0.00  0.00    -0.312 N 
ATOM     27  C   UNL     1       3.143  -1.995   3.404  0.00  0.00    +0.223 C 
ATOM     28  O   UNL     1       2.885  -2.239   2.244  0.00  0.00    -0.275 OA
ATOM     29  H   UNL     1       3.266  -0.534   4.788  0.00  0.00    +0.149 HD
BRANCH  26  35
ATOM     30  C   UNL     1       3.350   4.137   3.040  0.00  0.00    +0.008 C 
ATOM     31  C   UNL     1       2.793   2.808   2.527  0.00  0.00    -0.009 C 
ATOM     32  C   UNL     1       1.266   2.883   2.470  0.00  0.00    +0.003 C 
ATOM     33  C   UNL     1       0.709   1.554   1.957  0.00  0.00    +0.002 C 
ATOM     34  C   UNL     1       1.129   0.425   2.901  0.00  0.00    +0.022 C 
ATOM     35  C   UNL     1       2.656   0.351   2.957  0.00  0.00    +0.076 C 
ATOM     36  C   UNL     1       3.214   1.680   3.471  0.00  0.00    +0.009 C 
ATOM     37  C   UNL     1       2.665   1.956   4.872  0.00  0.00    +0.009 C 
ENDBRANCH  26  35
ENDBRANCH  25  27
ENDBRANCH  24  25
ENDBRANCH   1  24
TORSDOF 6
