REMARK  Name = ZINC21374096
REMARK  5 active torsions:
REMARK  status: ('A' for Active; 'I' for Inactive)
REMARK    1  A    between atoms: C_5  and  C_7
REMARK    2  A    between atoms: C_10  and  S_13
REMARK    3  A    between atoms: N_11  and  N_12
REMARK    4  A    between atoms: S_13  and  C_14
REMARK    5  A    between atoms: C_14  and  C_15
REMARK                            x       y       z     vdW  Elec       q    Type
REMARK                         _______ _______ _______ _____ _____    ______ ____
ROOT
ATOM      1  C   UNL     1      -0.587  -2.087  -0.198  0.00  0.00    +0.183 A 
ATOM      2  N   UNL     1       0.719  -2.010  -0.082  0.00  0.00    -0.127 NA
ATOM      3  N   UNL     1       1.070  -0.792   0.127  0.00  0.00    -0.121 NA
ATOM      4  C   UNL     1       0.010  -0.017   0.167  0.00  0.00    +0.209 A 
ATOM      5  N   UNL     1      -1.081  -0.812  -0.043  0.00  0.00    -0.224 N 
ENDROOT
BRANCH   1  10
ATOM      6  C   UNL     1      -3.103  -4.461  -1.659  0.00  0.00    +0.001 A 
ATOM      7  C   UNL     1      -2.857  -5.604  -0.918  0.00  0.00    +0.001 A 
ATOM      8  C   UNL     1      -1.875  -5.607   0.056  0.00  0.00    +0.016 A 
ATOM      9  C   UNL     1      -1.129  -4.469   0.291  0.00  0.00    +0.029 A 
ATOM     10  C   UNL     1      -1.377  -3.311  -0.449  0.00  0.00    +0.035 A 
ATOM     11  C   UNL     1      -2.369  -3.316  -1.430  0.00  0.00    +0.013 A 
ATOM     12 BR   UNL     1       0.219  -4.476   1.618  0.00  0.00    -0.050 Br
ENDBRANCH   1  10
BRANCH   5  13
ATOM     13  N   UNL     1      -2.389  -0.423  -0.088  0.00  0.00    -0.295 N 
ATOM     14  H   UNL     1      -2.654   0.636   0.052  0.00  0.00    +0.163 HD
ATOM     15  H   UNL     1      -3.179  -1.168  -0.266  0.00  0.00    +0.163 HD
ENDBRANCH   5  13
BRANCH   4  16
ATOM     16  S   UNL     1      -0.002   1.725   0.432  0.00  0.00    -0.079 S 
BRANCH  16  17
ATOM     17  C   UNL     1       1.773   2.026   0.621  0.00  0.00    +0.119 C 
BRANCH  17  18
ATOM     18  C   UNL     1       2.010   3.494   0.865  0.00  0.00    +0.001 A 
ATOM     19  C   UNL     1       2.061   4.167   2.040  0.00  0.00    +0.013 A 
ATOM     20  C   UNL     1       2.295   5.529   2.024  0.00  0.00    +0.028 A 
ATOM     21  C   UNL     1       2.466   6.152   0.832  0.00  0.00    +0.078 A 
ATOM     22  S   UNL     1       2.304   4.797  -0.320  0.00  0.00    -0.081 S 
ATOM     23 CL   UNL     1       2.771   7.831   0.509  0.00  0.00    -0.076 Cl
ENDBRANCH  17  18
ENDBRANCH  16  17
ENDBRANCH   4  16
TORSDOF 5
