REMARK  Name = ZINC42015293
REMARK  7 active torsions:
REMARK  status: ('A' for Active; 'I' for Inactive)
REMARK    1  A    between atoms: C_1  and  C_2
REMARK    2  A    between atoms: C_2  and  C_3
REMARK    3  A    between atoms: C_3  and  C_4
REMARK    4  A    between atoms: C_4  and  C_6
REMARK    5  A    between atoms: C_4  and  N_7
REMARK    6  A    between atoms: C_8  and  C_12
REMARK    7  A    between atoms: C_16  and  N_18
REMARK                            x       y       z     vdW  Elec       q    Type
REMARK                         _______ _______ _______ _____ _____    ______ ____
ROOT
ATOM      1  N   UNL     1       1.642  -2.335  -2.418  0.00  0.00    -0.222 N 
ATOM      2  C   UNL     1       2.692  -3.192  -2.373  0.00  0.00    +0.182 A 
ATOM      3  N   UNL     1       2.937  -3.567  -3.611  0.00  0.00    -0.108 NA
ATOM      4  N   UNL     1       2.115  -3.005  -4.422  0.00  0.00    -0.023 NA
ATOM      5  N   UNL     1       1.295  -2.247  -3.777  0.00  0.00    -0.043 NA
ENDROOT
BRANCH   2   6
ATOM      6  C   UNL     1       3.425  -3.623  -1.162  0.00  0.00    +0.023 A 
ATOM      7  C   UNL     1       2.761  -3.711   0.062  0.00  0.00    +0.014 A 
ATOM      8  C   UNL     1       3.446  -4.114   1.191  0.00  0.00    +0.041 A 
ATOM      9  C   UNL     1       4.791  -4.431   1.113  0.00  0.00    +0.144 A 
ATOM     10  C   UNL     1       5.460  -4.345  -0.104  0.00  0.00    +0.061 A 
ATOM     11  C   UNL     1       4.778  -3.948  -1.243  0.00  0.00    +0.037 A 
ATOM     12  F   UNL     1       5.455  -4.824   2.222  0.00  0.00    -0.204 F 
BRANCH  10  13
ATOM     13  N   UNL     1       6.820  -4.666  -0.178  0.00  0.00    -0.356 N 
ATOM     14  H   UNL     1       7.296  -4.947   0.618  0.00  0.00    +0.142 HD
ATOM     15  H   UNL     1       7.286  -4.606  -1.027  0.00  0.00    +0.142 HD
ENDBRANCH  10  13
ENDBRANCH   2   6
BRANCH   1  16
ATOM     16  C   UNL     1       1.003  -1.651  -1.291  0.00  0.00    +0.108 C 
ATOM     17  C   UNL     1      -0.404  -2.216  -1.084  0.00  0.00    +0.033 C 
BRANCH  16  18
ATOM     18  C   UNL     1       0.912  -0.153  -1.587  0.00  0.00    +0.026 C 
BRANCH  18  20
ATOM     19  C   UNL     1       0.269   2.075  -0.658  0.00  0.00    +0.004 C 
ATOM     20  C   UNL     1       0.360   0.577  -0.362  0.00  0.00    -0.001 C 
ENDBRANCH  18  20
ENDBRANCH  16  18
ENDBRANCH   1  16
TORSDOF 5
