REMARK  Name = ZINC44330497
REMARK  12 active torsions:
REMARK  status: ('A' for Active; 'I' for Inactive)
REMARK    1  A    between atoms: C_1  and  O_2
REMARK    2  A    between atoms: O_2  and  C_3
REMARK    3  A    between atoms: C_3  and  C_5
REMARK    4  A    between atoms: C_9  and  C_11
REMARK    5  A    between atoms: C_11  and  O_12
REMARK    6  A    between atoms: O_12  and  C_13
REMARK    7  A    between atoms: C_16  and  C_19
REMARK    8  A    between atoms: C_19  and  C_20
REMARK    9  A    between atoms: C_20  and  C_22
REMARK   10  A    between atoms: C_20  and  N_26
REMARK   11  A    between atoms: C_22  and  O_24
REMARK   12  A    between atoms: O_24  and  C_25
REMARK                            x       y       z     vdW  Elec       q    Type
REMARK                         _______ _______ _______ _____ _____    ______ ____
ROOT
ATOM      1  C   UNL     1       1.501  -5.580  -5.604  0.00  0.00    +0.121 A 
ATOM      2  C   UNL     1       2.833  -5.953  -5.712  0.00  0.00    +0.046 A 
ATOM      3  C   UNL     1       3.286  -6.567  -6.863  0.00  0.00    +0.007 A 
ATOM      4  C   UNL     1       2.414  -6.810  -7.908  0.00  0.00    -0.048 A 
ATOM      5  C   UNL     1       1.086  -6.438  -7.804  0.00  0.00    +0.007 A 
ATOM      6  C   UNL     1       0.626  -5.829  -6.652  0.00  0.00    +0.046 A 
ENDROOT
BRANCH   1   7
ATOM      7  O   UNL     1       1.052  -4.975  -4.473  0.00  0.00    -0.487 OA
BRANCH   7   8
ATOM      8  C   UNL     1       2.009  -4.750  -3.435  0.00  0.00    +0.264 C 
BRANCH   8  13
ATOM      9  C   UNL     1       0.658  -2.076  -1.122  0.00  0.00    +0.059 A 
ATOM     10  C   UNL     1       0.089  -2.853  -0.111  0.00  0.00    +0.015 A 
ATOM     11  C   UNL     1       0.147  -4.229  -0.188  0.00  0.00    +0.001 A 
ATOM     12  C   UNL     1       0.767  -4.840  -1.263  0.00  0.00    +0.007 A 
ATOM     13  C   UNL     1       1.334  -4.076  -2.268  0.00  0.00    -0.010 A 
ATOM     14  C   UNL     1       1.278  -2.699  -2.207  0.00  0.00    +0.022 A 
BRANCH   9  15
ATOM     15  C   UNL     1       0.601  -0.602  -1.046  0.00  0.00    +0.339 C 
ATOM     16  O   UNL     1       1.092   0.071  -1.930  0.00  0.00    -0.245 OA
BRANCH  15  18
ATOM     17  C   UNL     1      -0.017   1.425   0.010  0.00  0.00    +0.280 C 
ATOM     18  O   UNL     1       0.002  -0.004   0.002  0.00  0.00    -0.464 OA
ENDBRANCH  15  18
ENDBRANCH   9  15
ENDBRANCH   8  13
ENDBRANCH   7   8
ENDBRANCH   1   7
BRANCH   4  19
ATOM     19  C   UNL     1       2.911  -7.480  -9.163  0.00  0.00    +0.030 C 
BRANCH  19  20
ATOM     20  C   UNL     1       2.763  -8.996  -9.024  0.00  0.00    +0.040 C 
BRANCH  20  21
ATOM     21  N   UNL     1       1.338  -9.343  -8.937  0.00  0.00    +0.387 N 
ATOM     22  H   UNL     1       0.865  -9.034  -9.773  0.00  0.00    -0.089 HD
ATOM     23  H   UNL     1       1.240 -10.343  -8.846  0.00  0.00    -0.089 HD
ATOM     24  H   UNL     1       0.930  -8.890  -8.133  0.00  0.00    -0.089 HD
ENDBRANCH  20  21
BRANCH  20  25
ATOM     25  C   UNL     1       3.372  -9.672 -10.226  0.00  0.00    +0.292 C 
ATOM     26  O   UNL     1       2.663 -10.061 -11.124  0.00  0.00    -0.253 OA
BRANCH  25  27
ATOM     27  O   UNL     1       4.701  -9.842 -10.298  0.00  0.00    -0.469 OA
ATOM     28  C   UNL     1       5.210 -10.491 -11.465  0.00  0.00    +0.280 C 
ENDBRANCH  25  27
ENDBRANCH  20  25
ENDBRANCH  19  20
ENDBRANCH   4  19
TORSDOF 10
