REMARK  Name = ZINC65273216
REMARK  3 active torsions:
REMARK  status: ('A' for Active; 'I' for Inactive)
REMARK    1  A    between atoms: C_5  and  C_6
REMARK    2  A    between atoms: C_16  and  C_19
REMARK    3  A    between atoms: N_21  and  C_22
REMARK                            x       y       z     vdW  Elec       q    Type
REMARK                         _______ _______ _______ _____ _____    ______ ____
ROOT
ATOM      1  C   UNL     1       0.065   1.297   0.438  0.00  0.00    +0.024 A 
ATOM      2  C   UNL     1       1.268   1.966   0.265  0.00  0.00    -0.036 A 
ATOM      3  C   UNL     1       2.269   1.275  -0.352  0.00  0.00    -0.006 A 
ATOM      4  S   UNL     1       1.637  -0.231  -0.700  0.00  0.00    -0.088 S 
ATOM      5  C   UNL     1      -0.001  -0.002  -0.032  0.00  0.00    +0.075 A 
ATOM      6  C   UNL     1       3.652   1.775  -0.650  0.00  0.00    +0.043 C 
ATOM      7  C   UNL     1       3.898   3.045   0.175  0.00  0.00    +0.018 C 
ATOM      8  C   UNL     1       2.697   3.981   0.007  0.00  0.00    +0.080 C 
ATOM      9  C   UNL     1       1.483   3.402   0.734  0.00  0.00    +0.048 C 
ENDROOT
BRANCH   5  10
ATOM     10  C   UNL     1      -1.123  -0.944   0.008  0.00  0.00    +0.253 C 
ATOM     11  O   UNL     1      -2.260  -0.531   0.141  0.00  0.00    -0.269 OA
ATOM     12  N   UNL     1      -0.895  -2.268  -0.103  0.00  0.00    -0.297 N 
ATOM     13  C   UNL     1       0.476  -2.793  -0.115  0.00  0.00    +0.108 C 
ATOM     14  C   UNL     1       0.600  -3.872   0.966  0.00  0.00    +0.019 C 
ATOM     15  C   UNL     1      -0.481  -4.933   0.748  0.00  0.00    +0.003 C 
ATOM     16  C   UNL     1      -1.863  -4.287   0.867  0.00  0.00    +0.019 C 
ATOM     17  C   UNL     1      -2.015  -3.213  -0.209  0.00  0.00    +0.108 C 
ENDBRANCH   5  10
BRANCH   8  18
ATOM     18  C   UNL     1       3.030   5.331   0.589  0.00  0.00    +0.217 C 
ATOM     19  O   UNL     1       4.119   5.526   1.087  0.00  0.00    -0.275 OA
ATOM     20  N   UNL     1       2.118   6.323   0.555  0.00  0.00    -0.312 N 
ATOM     21  H   UNL     1       1.247   6.167   0.156  0.00  0.00    +0.149 HD
BRANCH  20  22
ATOM     22  C   UNL     1       2.441   7.635   1.120  0.00  0.00    +0.073 C 
ATOM     23  C   UNL     1       1.373   8.318   1.976  0.00  0.00    +0.024 C 
ATOM     24  C   UNL     1       1.682   8.846   0.573  0.00  0.00    +0.024 C 
ENDBRANCH  20  22
ENDBRANCH   8  18
TORSDOF 3
