REMARK  Name = ZINC28822246
REMARK  4 active torsions:
REMARK  status: ('A' for Active; 'I' for Inactive)
REMARK    1  A    between atoms: C_1  and  C_2
REMARK    2  A    between atoms: C_2  and  C_3
REMARK    3  A    between atoms: C_8  and  N_9
REMARK    4  A    between atoms: C_18  and  C_20
REMARK                            x       y       z     vdW  Elec       q    Type
REMARK                         _______ _______ _______ _____ _____    ______ ____
ROOT
ATOM      1  N   UNL     1       3.601   6.196   0.214  0.00  0.00    -0.297 N 
ATOM      2  C   UNL     1       2.429   5.600  -0.202  0.00  0.00    +0.155 A 
ATOM      3  C   UNL     1       1.142   6.284  -0.068  0.00  0.00    +0.148 A 
ATOM      4  C   UNL     1      -0.019   5.607  -0.518  0.00  0.00    +0.184 A 
ATOM      5  N   UNL     1      -1.210   6.203  -0.411  0.00  0.00    -0.233 NA
ATOM      6  C   UNL     1      -1.287   7.409   0.111  0.00  0.00    +0.133 A 
ATOM      7  C   UNL     1      -0.142   8.071   0.552  0.00  0.00    +0.131 A 
ATOM      8  N   UNL     1       1.041   7.502   0.456  0.00  0.00    -0.247 NA
ATOM      9  N   UNL     1       0.115   4.384  -1.045  0.00  0.00    -0.206 NA
ATOM     10  C   UNL     1       1.299   3.810  -1.139  0.00  0.00    +0.167 A 
ATOM     11  N   UNL     1       2.429   4.387  -0.737  0.00  0.00    -0.210 NA
ATOM     12  H   UNL     1       3.595   7.240   0.559  0.00  0.00    +0.154 HD
ENDROOT
BRANCH  10  13
ATOM     13  C   UNL     1       1.375   2.452  -1.728  0.00  0.00    +0.056 A 
ATOM     14  C   UNL     1       2.615   1.855  -1.951  0.00  0.00    +0.034 A 
ATOM     15  C   UNL     1       2.680   0.590  -2.501  0.00  0.00    +0.042 A 
ATOM     16  C   UNL     1       1.518  -0.086  -2.832  0.00  0.00    +0.023 A 
ATOM     17  C   UNL     1       0.285   0.500  -2.614  0.00  0.00    +0.040 A 
ATOM     18  C   UNL     1       0.206   1.767  -2.064  0.00  0.00    +0.134 A 
ATOM     19  F   UNL     1      -0.999   2.341  -1.856  0.00  0.00    -0.205 F 
ATOM     20 CL   UNL     1       4.224  -0.155  -2.779  0.00  0.00    -0.084 Cl
ENDBRANCH  10  13
BRANCH   1  26
ATOM     21  C   UNL     1       6.017   6.111   0.400  0.00  0.00    -0.011 A 
ATOM     22  C   UNL     1       7.175   5.362   0.377  0.00  0.00    +0.088 A 
ATOM     23  N   UNL     1       7.133   4.059   0.167  0.00  0.00    -0.367 N 
ATOM     24  C   UNL     1       5.995   3.420  -0.029  0.00  0.00    +0.084 A 
ATOM     25  C   UNL     1       4.793   4.096  -0.015  0.00  0.00    +0.041 A 
ATOM     26  C   UNL     1       4.793   5.475   0.198  0.00  0.00    +0.038 A 
ATOM     27  H   UNL     1       8.065   3.475   0.151  0.00  0.00    +0.165 HD
BRANCH  21  29
ATOM     28  C   UNL     1       5.852   7.882   2.128  0.00  0.00    +0.009 C 
ATOM     29  C   UNL     1       6.074   7.598   0.641  0.00  0.00    +0.035 C 
ENDBRANCH  21  29
ENDBRANCH   1  26
TORSDOF 3
