REMARK  Name = ZINC33937354
REMARK  12 active torsions:
REMARK  status: ('A' for Active; 'I' for Inactive)
REMARK    1  A    between atoms: C_1  and  C_2
REMARK    2  A    between atoms: C_2  and  C_3
REMARK    3  A    between atoms: C_3  and  C_4
REMARK    4  A    between atoms: C_4  and  C_6
REMARK    5  A    between atoms: C_4  and  N_18
REMARK    6  A    between atoms: N_10  and  C_11
REMARK    7  A    between atoms: C_11  and  C_12
REMARK    8  A    between atoms: N_18  and  C_19
REMARK    9  A    between atoms: N_18  and  C_26
REMARK   10  A    between atoms: C_19  and  C_20
REMARK   11  A    between atoms: C_26  and  C_27
REMARK   12  A    between atoms: C_31  and  C_39
REMARK                            x       y       z     vdW  Elec       q    Type
REMARK                         _______ _______ _______ _____ _____    ______ ____
ROOT
ATOM      1  N   UNL     1       1.728  -2.043   0.573  0.00  0.00    +0.392 N 
ATOM      2  H   UNL     1       2.697  -2.017   0.852  0.00  0.00    -0.080 HD
ENDROOT
BRANCH   1   3
ATOM      3  C   UNL     1       1.601  -1.537  -0.800  0.00  0.00    +0.003 C 
BRANCH   3   4
ATOM      4  C   UNL     1       0.229  -1.865  -1.331  0.00  0.00    +0.138 A 
ATOM      5  N   UNL     1      -0.231  -3.055  -1.627  0.00  0.00    -0.115 NA
ATOM      6  N   UNL     1      -1.441  -2.921  -2.049  0.00  0.00    -0.023 NA
ATOM      7  N   UNL     1      -1.764  -1.675  -2.030  0.00  0.00    -0.044 NA
ATOM      8  N   UNL     1      -0.763  -0.992  -1.588  0.00  0.00    -0.228 N 
BRANCH   8   9
ATOM      9  C   UNL     1      -0.714   0.461  -1.404  0.00  0.00    +0.178 C 
BRANCH   9  10
ATOM     10  C   UNL     1      -0.211   1.121  -2.689  0.00  0.00    +0.140 C 
ATOM     11  C   UNL     1      -0.237   2.663  -2.547  0.00  0.00    +0.035 C 
ATOM     12  C   UNL     1       0.845   3.073  -3.583  0.00  0.00    +0.031 C 
ATOM     13  C   UNL     1       1.857   1.912  -3.476  0.00  0.00    +0.160 C 
ATOM     14  O   UNL     1       1.167   0.786  -2.916  0.00  0.00    -0.375 OA
ENDBRANCH   9  10
ENDBRANCH   8   9
ENDBRANCH   3   4
BRANCH   3  15
ATOM     15  C   UNL     1       2.661  -2.193  -1.687  0.00  0.00    -0.008 C 
BRANCH  15  17
ATOM     16  C   UNL     1       5.115  -2.390  -2.117  0.00  0.00    +0.004 C 
ATOM     17  C   UNL     1       4.054  -1.844  -1.159  0.00  0.00    -0.005 C 
ENDBRANCH  15  17
ENDBRANCH   3  15
ENDBRANCH   1   3
BRANCH   1  18
ATOM     18  C   UNL     1       1.240  -3.428   0.631  0.00  0.00    -0.040 C 
BRANCH  18  19
ATOM     19  C   UNL     1       2.220  -4.336  -0.067  0.00  0.00    -0.046 A 
ATOM     20  C   UNL     1       1.840  -5.040  -1.199  0.00  0.00    +0.005 A 
ATOM     21  C   UNL     1       2.774  -5.864  -1.808  0.00  0.00    +0.020 A 
ATOM     22  C   UNL     1       4.044  -5.955  -1.269  0.00  0.00    +0.111 A 
ATOM     23  N   UNL     1       4.370  -5.271  -0.190  0.00  0.00    -0.263 NA
ATOM     24  C   UNL     1       3.509  -4.473   0.411  0.00  0.00    +0.112 A 
ENDBRANCH  18  19
ENDBRANCH   1  18
BRANCH   1  25
ATOM     25  C   UNL     1       0.934  -1.205   1.480  0.00  0.00    -0.036 C 
BRANCH  25  26
ATOM     26  C   UNL     1       1.185  -1.628   2.904  0.00  0.00    +0.001 A 
ATOM     27  C   UNL     1       2.114  -0.979   3.648  0.00  0.00    +0.017 A 
ATOM     28  C   UNL     1       2.334  -1.414   5.029  0.00  0.00    -0.001 A 
ATOM     29  C   UNL     1       3.279  -0.782   5.845  0.00  0.00    +0.013 A 
ATOM     30  C   UNL     1       3.460  -1.212   7.128  0.00  0.00    -0.050 A 
ATOM     31  C   UNL     1       2.715  -2.270   7.631  0.00  0.00    +0.005 A 
ATOM     32  C   UNL     1       1.779  -2.907   6.845  0.00  0.00    +0.026 A 
ATOM     33  C   UNL     1       1.577  -2.486   5.535  0.00  0.00    +0.049 A 
ATOM     34  N   UNL     1       0.646  -3.105   4.726  0.00  0.00    -0.322 N 
ATOM     35  H   UNL     1       0.125  -3.844   5.077  0.00  0.00    +0.169 HD
ATOM     36  C   UNL     1       0.448  -2.695   3.461  0.00  0.00    +0.251 A 
ATOM     37  O   UNL     1      -0.386  -3.262   2.777  0.00  0.00    -0.268 OA
ATOM     38  C   UNL     1       4.477  -0.531   8.007  0.00  0.00    +0.044 C 
ENDBRANCH  25  26
ENDBRANCH   1  25
TORSDOF 10
