REMARK  Name = ZINC06033029
REMARK  5 active torsions:
REMARK  status: ('A' for Active; 'I' for Inactive)
REMARK    1  A    between atoms: C_1  and  C_2
REMARK    2  A    between atoms: C_5  and  C_9
REMARK    3  A    between atoms: N_11  and  N_12
REMARK    4  A    between atoms: C_13  and  C_14
REMARK    5  A    between atoms: C_18  and  N_20
REMARK                            x       y       z     vdW  Elec       q    Type
REMARK                         _______ _______ _______ _____ _____    ______ ____
ROOT
ATOM      1  C   UNL     1      -2.522   3.869   0.048  0.00  0.00    +0.263 C 
ATOM      2  O   UNL     1      -2.535   5.085   0.055  0.00  0.00    -0.268 OA
ATOM      3  N   UNL     1      -3.683   3.184   0.055  0.00  0.00    -0.203 N 
ATOM      4  H   UNL     1      -3.673   2.214   0.050  0.00  0.00    +0.178 HD
ENDROOT
BRANCH   1   9
ATOM      5  C   UNL     1       2.489   1.042  -0.017  0.00  0.00    +0.045 C 
ATOM      6  C   UNL     1       1.177   1.782   0.000  0.00  0.00    -0.036 A 
ATOM      7  C   UNL     1      -0.013   1.076   0.008  0.00  0.00    +0.005 A 
ATOM      8  C   UNL     1      -1.217   1.748   0.017  0.00  0.00    +0.013 A 
ATOM      9  C   UNL     1      -1.235   3.144   0.031  0.00  0.00    +0.039 A 
ATOM     10  C   UNL     1      -0.032   3.851   0.024  0.00  0.00    +0.028 A 
ATOM     11  C   UNL     1       1.167   3.167   0.008  0.00  0.00    +0.021 A 
ATOM     12 BR   UNL     1       2.799   4.122  -0.003  0.00  0.00    -0.050 Br
ENDBRANCH   1   9
BRANCH   3  13
ATOM     13  N   UNL     1      -4.903   3.872   0.071  0.00  0.00    -0.187 NA
ATOM     14  C   UNL     1      -6.020   3.211   0.078  0.00  0.00    +0.138 C 
BRANCH  14  15
ATOM     15  C   UNL     1      -7.304   3.935   0.095  0.00  0.00    -0.003 A 
ATOM     16  C   UNL     1      -7.322   5.332   0.109  0.00  0.00    +0.011 A 
ATOM     17  C   UNL     1      -8.527   6.003   0.120  0.00  0.00    +0.023 A 
ATOM     18  C   UNL     1      -9.717   5.295   0.127  0.00  0.00    +0.071 A 
ATOM     19  C   UNL     1      -9.707   3.911   0.119  0.00  0.00    +0.145 A 
ATOM     20  C   UNL     1      -8.509   3.228   0.103  0.00  0.00    +0.043 A 
ATOM     21 CL   UNL     1     -11.229   6.148   0.148  0.00  0.00    -0.081 Cl
BRANCH  19  22
ATOM     22  N   UNL     1     -10.984   3.163   0.126  0.00  0.00    +0.058 N 
ATOM     23  O   UNL     1     -10.976   1.945   0.118  0.00  0.00    -0.126 OA
ATOM     24  O   UNL     1     -12.042   3.765   0.141  0.00  0.00    -0.126 OA
ENDBRANCH  19  22
ENDBRANCH  14  15
ENDBRANCH   3  13
TORSDOF 4
