REMARK  Name = ZINC20705844
REMARK  6 active torsions:
REMARK  status: ('A' for Active; 'I' for Inactive)
REMARK    1  A    between atoms: C_1  and  O_2
REMARK    2  A    between atoms: O_2  and  C_3
REMARK    3  A    between atoms: C_6  and  O_29
REMARK    4  A    between atoms: C_16  and  C_19
REMARK    5  A    between atoms: C_21  and  N_26
REMARK    6  A    between atoms: O_29  and  C_30
REMARK                            x       y       z     vdW  Elec       q    Type
REMARK                         _______ _______ _______ _____ _____    ______ ____
ROOT
ATOM      1  C   UNL     1       2.107   0.495   0.033  0.00  0.00    +0.126 A 
ATOM      2  C   UNL     1       1.913   1.864   0.091  0.00  0.00    +0.049 A 
ATOM      3  C   UNL     1       0.631   2.379   0.140  0.00  0.00    +0.051 A 
ATOM      4  C   UNL     1      -0.454   1.523   0.129  0.00  0.00    +0.141 A 
ATOM      5  C   UNL     1      -0.262   0.139   0.069  0.00  0.00    +0.077 A 
ATOM      6  C   UNL     1       1.019  -0.377   0.023  0.00  0.00    +0.026 A 
ATOM      7  C   UNL     1       1.298  -1.849  -0.037  0.00  0.00    +0.052 C 
ATOM      8  C   UNL     1       1.847  -2.342   1.282  0.00  0.00    -0.022 C 
ATOM      9  C   UNL     1       1.352  -3.520   1.573  0.00  0.00    -0.030 C 
ATOM     10  C   UNL     1       0.407  -3.984   0.482  0.00  0.00    +0.033 C 
ATOM     11  C   UNL     1       0.002  -2.664  -0.234  0.00  0.00    +0.029 C 
ATOM     12  C   UNL     1      -1.119  -2.016   0.583  0.00  0.00    +0.106 C 
ATOM     13  N   UNL     1      -1.395  -0.679   0.055  0.00  0.00    -0.334 N 
ATOM     14  H   UNL     1      -2.406  -0.424  -0.295  0.00  0.00    +0.147 HD
ENDROOT
BRANCH  12  15
ATOM     15  C   UNL     1      -0.694  -1.909   2.024  0.00  0.00    -0.007 A 
ATOM     16  C   UNL     1       0.013  -0.802   2.456  0.00  0.00    +0.039 A 
ATOM     17  C   UNL     1       0.402  -0.703   3.779  0.00  0.00    +0.127 A 
ATOM     18  C   UNL     1       0.086  -1.712   4.670  0.00  0.00    +0.034 A 
ATOM     19  C   UNL     1      -0.620  -2.819   4.239  0.00  0.00    +0.022 A 
ATOM     20  C   UNL     1      -1.015  -2.916   2.917  0.00  0.00    +0.046 A 
ATOM     21 CL   UNL     1      -1.908  -4.303   2.376  0.00  0.00    -0.083 Cl
BRANCH  17  22
ATOM     22  N   UNL     1       1.159   0.482   4.241  0.00  0.00    +0.056 N 
ATOM     23  O   UNL     1       1.438   1.371   3.456  0.00  0.00    -0.126 OA
ATOM     24  O   UNL     1       1.502   0.569   5.406  0.00  0.00    -0.126 OA
ENDBRANCH  17  22
ENDBRANCH  12  15
BRANCH   1  26
ATOM     25  C   UNL     1       4.443   0.940  -0.001  0.00  0.00    +0.277 C 
ATOM     26  O   UNL     1       3.371  -0.005  -0.014  0.00  0.00    -0.495 OA
ENDBRANCH   1  26
BRANCH   4  27
ATOM     27  O   UNL     1      -1.716   2.030   0.171  0.00  0.00    -0.493 OA
ATOM     28  C   UNL     1      -1.843   3.452   0.231  0.00  0.00    +0.277 C 
ENDBRANCH   4  27
TORSDOF 4
