REMARK  Name = ZINC62426631
REMARK  5 active torsions:
REMARK  status: ('A' for Active; 'I' for Inactive)
REMARK    1  A    between atoms: C_1  and  C_2
REMARK    2  A    between atoms: C_2  and  C_3
REMARK    3  A    between atoms: C_4  and  C_14
REMARK    4  A    between atoms: C_11  and  C_13
REMARK    5  A    between atoms: C_14  and  N_15
REMARK                            x       y       z     vdW  Elec       q    Type
REMARK                         _______ _______ _______ _____ _____    ______ ____
ROOT
ATOM      1  C   UNL     1       0.731  -0.503   1.223  0.00  0.00    +0.068 A 
ATOM      2  C   UNL     1       2.054  -0.749   1.326  0.00  0.00    +0.069 A 
ATOM      3  N   UNL     1       2.321  -1.178   2.560  0.00  0.00    -0.136 NA
ATOM      4  N   UNL     1       1.238  -1.220   3.255  0.00  0.00    -0.059 NA
ATOM      5  N   UNL     1       0.182  -0.788   2.438  0.00  0.00    -0.191 N 
ATOM      6  C   UNL     1      -1.162  -0.675   2.797  0.00  0.00    +0.218 A 
ATOM      7  N   UNL     1      -2.186  -0.283   2.065  0.00  0.00    -0.121 NA
ATOM      8  N   UNL     1      -3.337  -0.253   2.592  0.00  0.00    -0.145 NA
ATOM      9  C   UNL     1      -3.474  -0.611   3.847  0.00  0.00    +0.101 A 
ATOM     10  S   UNL     1      -1.896  -1.010   4.273  0.00  0.00    -0.031 S 
ATOM     11  C   UNL     1      -4.724  -0.660   4.687  0.00  0.00    +0.075 C 
ENDROOT
BRANCH   1  13
ATOM     12  C   UNL     1      -0.019   1.526   0.010  0.00  0.00    +0.010 C 
ATOM     13  C   UNL     1       0.002  -0.004   0.002  0.00  0.00    +0.054 C 
ENDBRANCH   1  13
BRANCH   2  14
ATOM     14  C   UNL     1       3.066  -0.569   0.224  0.00  0.00    -0.026 C 
BRANCH  14  15
ATOM     15  N   UNL     1       3.606   0.796   0.274  0.00  0.00    +0.382 N 
ATOM     16  H   UNL     1       4.284   0.917  -0.464  0.00  0.00    -0.090 HD
ATOM     17  H   UNL     1       2.855   1.460   0.152  0.00  0.00    -0.090 HD
ATOM     18  H   UNL     1       4.050   0.950   1.166  0.00  0.00    -0.090 HD
ENDBRANCH  14  15
ENDBRANCH   2  14
TORSDOF 3
