REMARK  Name = ZINC39848505
REMARK  4 active torsions:
REMARK  status: ('A' for Active; 'I' for Inactive)
REMARK    1  A    between atoms: C_1  and  C_2
REMARK    2  A    between atoms: C_8  and  C_26
REMARK    3  A    between atoms: C_10  and  C_15
REMARK    4  A    between atoms: C_15  and  C_17
REMARK                            x       y       z     vdW  Elec       q    Type
REMARK                         _______ _______ _______ _____ _____    ______ ____
ROOT
ATOM      1  C   UNL     1       0.335   1.527  -0.023  0.00  0.00    +0.066 C 
ATOM      2  C   UNL     1       0.269   0.021  -0.028  0.00  0.00    +0.047 A 
ATOM      3  C   UNL     1       0.247  -0.683  -1.186  0.00  0.00    +0.071 A 
ATOM      4  S   UNL     1       0.168  -2.353  -0.559  0.00  0.00    -0.060 S 
ATOM      5  C   UNL     1       0.171  -1.985   1.083  0.00  0.00    +0.168 A 
ATOM      6  N   UNL     1       0.234  -0.670   1.096  0.00  0.00    -0.230 NA
ATOM      7  N   UNL     1       0.123  -2.856   2.163  0.00  0.00    -0.232 N 
ATOM      8  C   UNL     1       0.066  -4.321   2.088  0.00  0.00    +0.154 C 
ATOM      9  C   UNL     1       0.029  -4.813   3.516  0.00  0.00    +0.080 C 
ATOM     10  C   UNL     1       0.064  -3.715   4.308  0.00  0.00    +0.250 C 
ATOM     11  C   UNL     1       0.128  -2.508   3.462  0.00  0.00    +0.293 C 
ATOM     12  O   UNL     1       0.175  -1.367   3.878  0.00  0.00    -0.266 OA
ATOM     13  O   UNL     1       0.047  -3.724   5.662  0.00  0.00    -0.282 OA
ENDROOT
BRANCH   8  14
ATOM     14  C   UNL     1      -1.179  -4.754   1.357  0.00  0.00    +0.013 A 
ATOM     15  C   UNL     1      -2.299  -3.943   1.357  0.00  0.00    +0.008 A 
ATOM     16  C   UNL     1      -3.440  -4.340   0.687  0.00  0.00    +0.001 A 
ATOM     17  C   UNL     1      -3.464  -5.549   0.016  0.00  0.00    +0.003 A 
ATOM     18  C   UNL     1      -2.346  -6.361   0.014  0.00  0.00    +0.039 A 
ATOM     19  C   UNL     1      -1.200  -5.962   0.681  0.00  0.00    +0.129 A 
ATOM     20  F   UNL     1      -0.105  -6.753   0.676  0.00  0.00    -0.205 F 
ENDBRANCH   8  14
BRANCH   9  21
ATOM     21  C   UNL     1      -0.032  -6.209   3.959  0.00  0.00    +0.230 C 
ATOM     22  O   UNL     1      -1.016  -6.619   4.548  0.00  0.00    -0.283 OA
BRANCH  21  23
ATOM     23  C   UNL     1       1.095  -7.114   3.693  0.00  0.00    +0.176 A 
ATOM     24  C   UNL     1       1.109  -8.448   3.965  0.00  0.00    +0.061 A 
ATOM     25  C   UNL     1       2.420  -8.933   3.537  0.00  0.00    +0.021 A 
ATOM     26  C   UNL     1       3.046 -10.182   3.545  0.00  0.00    +0.011 A 
ATOM     27  C   UNL     1       4.317 -10.306   3.059  0.00  0.00    +0.001 A 
ATOM     28  C   UNL     1       4.989  -9.199   2.557  0.00  0.00    +0.004 A 
ATOM     29  C   UNL     1       4.389  -7.958   2.540  0.00  0.00    +0.047 A 
ATOM     30  C   UNL     1       3.097  -7.808   3.029  0.00  0.00    +0.136 A 
ATOM     31  O   UNL     1       2.268  -6.750   3.137  0.00  0.00    -0.452 OA
ENDBRANCH  21  23
ENDBRANCH   9  21
TORSDOF 3
