REMARK  Name = ZINC37316546
REMARK  7 active torsions:
REMARK  status: ('A' for Active; 'I' for Inactive)
REMARK    1  A    between atoms: C_1  and  C_2
REMARK    2  A    between atoms: C_5  and  N_10
REMARK    3  A    between atoms: C_6  and  C_9
REMARK    4  A    between atoms: C_7  and  O_8
REMARK    5  A    between atoms: N_10  and  C_11
REMARK    6  A    between atoms: C_17  and  O_19
REMARK    7  A    between atoms: O_19  and  C_20
REMARK                            x       y       z     vdW  Elec       q    Type
REMARK                         _______ _______ _______ _____ _____    ______ ____
ROOT
ATOM      1  C   UNL     1      -0.018   1.503   0.010  0.00  0.00    +0.047 C 
ATOM      2  C   UNL     1       0.002  -0.004   0.002  0.00  0.00    -0.009 A 
ATOM      3  C   UNL     1       0.006  -0.688  -1.199  0.00  0.00    +0.009 A 
ATOM      4  C   UNL     1       0.025  -2.069  -1.211  0.00  0.00    +0.024 A 
ATOM      5  C   UNL     1       0.041  -2.774  -0.014  0.00  0.00    +0.034 A 
ATOM      6  C   UNL     1       0.037  -2.089   1.193  0.00  0.00    +0.012 A 
ATOM      7  C   UNL     1       0.023  -0.703   1.200  0.00  0.00    +0.124 A 
ATOM      8  C   UNL     1       0.054  -2.851   2.493  0.00  0.00    +0.049 C 
ENDROOT
BRANCH   7   9
ATOM      9  O   UNL     1       0.025  -0.030   2.381  0.00  0.00    -0.506 OA
ATOM     10  H   UNL     1      -0.858   0.153   2.731  0.00  0.00    +0.292 HD
ENDBRANCH   7   9
BRANCH   5  11
ATOM     11  N   UNL     1       0.059  -4.171  -0.026  0.00  0.00    -0.338 N 
ATOM     12  H   UNL     1       0.070  -4.663   0.810  0.00  0.00    +0.146 HD
BRANCH  11  13
ATOM     13  C   UNL     1       0.063  -4.893  -1.300  0.00  0.00    +0.099 C 
ATOM     14  C   UNL     1      -1.375  -5.054  -1.799  0.00  0.00    +0.025 C 
ATOM     15  C   UNL     1      -1.371  -5.808  -3.130  0.00  0.00    +0.002 C 
ATOM     16  C   UNL     1      -0.742  -7.189  -2.933  0.00  0.00    +0.003 C 
ATOM     17  C   UNL     1       0.696  -7.027  -2.434  0.00  0.00    +0.033 C 
ATOM     18  C   UNL     1       0.692  -6.273  -1.103  0.00  0.00    +0.138 C 
BRANCH  18  19
ATOM     19  O   UNL     1       2.035  -6.122  -0.638  0.00  0.00    -0.378 OA
ATOM     20  C   UNL     1       2.486  -7.194   0.193  0.00  0.00    +0.194 C 
ENDBRANCH  18  19
ENDBRANCH  11  13
ENDBRANCH   5  11
TORSDOF 4
