REMARK  Name = ZINC10244508
REMARK  11 active torsions:
REMARK  status: ('A' for Active; 'I' for Inactive)
REMARK    1  A    between atoms: C_1  and  C_2
REMARK    2  A    between atoms: C_2  and  N_3
REMARK    3  A    between atoms: N_3  and  C_4
REMARK    4  A    between atoms: C_5  and  N_20
REMARK    5  A    between atoms: N_6  and  C_13
REMARK    6  A    between atoms: C_13  and  C_14
REMARK    7  A    between atoms: C_21  and  C_23
REMARK    8  A    between atoms: C_23  and  S_24
REMARK    9  A    between atoms: S_24  and  C_25
REMARK   10  A    between atoms: N_29  and  C_30
REMARK   11  A    between atoms: C_35  and  C_36
REMARK                            x       y       z     vdW  Elec       q    Type
REMARK                         _______ _______ _______ _____ _____    ______ ____
ROOT
ATOM      1  N   UNL     1       5.839   4.271  -0.086  0.00  0.00    -0.264 N 
ATOM      2  C   UNL     1       5.529   2.973  -0.283  0.00  0.00    +0.230 C 
ATOM      3  O   UNL     1       6.409   2.165  -0.497  0.00  0.00    -0.274 OA
ENDROOT
BRANCH   1   4
ATOM      4  C   UNL     1       7.190   4.674  -0.031  0.00  0.00    +0.140 A 
ATOM      5  C   UNL     1       8.021   4.208   0.967  0.00  0.00    +0.128 A 
ATOM      6  N   UNL     1       9.335   4.615   0.991  0.00  0.00    -0.276 N 
ATOM      7  C   UNL     1       9.802   5.465   0.058  0.00  0.00    +0.331 A 
ATOM      8  O   UNL     1      10.965   5.816   0.099  0.00  0.00    -0.246 OA
ATOM      9  N   UNL     1       9.005   5.933  -0.919  0.00  0.00    -0.273 N 
ATOM     10  H   UNL     1       9.377   6.564  -1.600  0.00  0.00    +0.173 HD
ATOM     11  C   UNL     1       7.712   5.562  -0.991  0.00  0.00    +0.277 A 
ATOM     12  O   UNL     1       6.998   5.992  -1.881  0.00  0.00    -0.266 OA
BRANCH   5  13
ATOM     13  N   UNL     1       7.544   3.344   1.923  0.00  0.00    -0.343 N 
ATOM     14  H   UNL     1       6.596   3.142   1.964  0.00  0.00    +0.144 HD
ATOM     15  H   UNL     1       8.154   2.936   2.556  0.00  0.00    +0.144 HD
ENDBRANCH   5  13
BRANCH   6  16
ATOM     16  C   UNL     1      10.230   4.124   2.042  0.00  0.00    +0.163 C 
BRANCH  16  17
ATOM     17  C   UNL     1      10.176   5.057   3.224  0.00  0.00    -0.028 A 
ATOM     18  C   UNL     1      11.052   6.123   3.304  0.00  0.00    +0.005 A 
ATOM     19  C   UNL     1      10.999   6.982   4.386  0.00  0.00    +0.000 A 
ATOM     20  C   UNL     1      10.076   6.768   5.393  0.00  0.00    +0.000 A 
ATOM     21  C   UNL     1       9.203   5.699   5.316  0.00  0.00    +0.000 A 
ATOM     22  C   UNL     1       9.253   4.844   4.231  0.00  0.00    +0.005 A 
ENDBRANCH  16  17
ENDBRANCH   6  16
ENDBRANCH   1   4
BRANCH   1  24
ATOM     23  C   UNL     1       4.438   5.420   1.557  0.00  0.00    +0.025 C 
ATOM     24  C   UNL     1       4.772   5.263   0.072  0.00  0.00    +0.110 C 
ENDBRANCH   1  24
BRANCH   2  25
ATOM     25  C   UNL     1       4.090   2.527  -0.238  0.00  0.00    +0.173 C 
BRANCH  25  26
ATOM     26  S   UNL     1       4.002   0.744  -0.538  0.00  0.00    -0.076 S 
BRANCH  26  27
ATOM     27  C   UNL     1       2.260   0.501  -0.432  0.00  0.00    +0.196 A 
ATOM     28  N   UNL     1       1.356   1.424  -0.197  0.00  0.00    -0.122 NA
ATOM     29  N   UNL     1       0.184   0.897  -0.188  0.00  0.00    -0.137 NA
ATOM     30  C   UNL     1       0.267  -0.384  -0.416  0.00  0.00    +0.230 A 
ATOM     31  N   UNL     1       1.593  -0.684  -0.580  0.00  0.00    -0.277 N 
BRANCH  31  32
ATOM     32  C   UNL     1       2.151  -1.943  -0.845  0.00  0.00    +0.053 A 
ATOM     33  C   UNL     1       1.868  -2.592  -2.040  0.00  0.00    +0.026 A 
ATOM     34  C   UNL     1       2.422  -3.830  -2.300  0.00  0.00    +0.002 A 
ATOM     35  C   UNL     1       3.250  -4.428  -1.367  0.00  0.00    +0.000 A 
ATOM     36  C   UNL     1       3.530  -3.786  -0.175  0.00  0.00    +0.005 A 
ATOM     37  C   UNL     1       2.982  -2.546   0.089  0.00  0.00    -0.027 A 
ATOM     38  C   UNL     1       3.288  -1.847   1.389  0.00  0.00    +0.046 C 
ENDBRANCH  31  32
ENDBRANCH  26  27
ENDBRANCH  25  26
ENDBRANCH   2  25
TORSDOF 9
