REMARK  Name = ZINC67175132
REMARK  8 active torsions:
REMARK  status: ('A' for Active; 'I' for Inactive)
REMARK    1  A    between atoms: C_1  and  C_2
REMARK    2  A    between atoms: C_5  and  N_9
REMARK    3  A    between atoms: C_10  and  C_12
REMARK    4  A    between atoms: C_12  and  C_13
REMARK    5  A    between atoms: C_13  and  N_14
REMARK    6  A    between atoms: C_15  and  C_17
REMARK    7  A    between atoms: C_20  and  N_24
REMARK    8  A    between atoms: C_21  and  O_23
REMARK                            x       y       z     vdW  Elec       q    Type
REMARK                         _______ _______ _______ _____ _____    ______ ____
ROOT
ATOM      1  N   UNL     1      -0.330  -8.309  -2.633  0.00  0.00    -0.311 N 
ATOM      2  C   UNL     1      -0.429  -8.977  -3.799  0.00  0.00    +0.244 C 
ATOM      3  O   UNL     1      -0.442  -8.366  -4.850  0.00  0.00    -0.270 OA
ATOM      4  H   UNL     1      -0.319  -8.796  -1.794  0.00  0.00    +0.149 HD
ENDROOT
BRANCH   2   5
ATOM      5  C   UNL     1      -0.521 -10.453  -3.800  0.00  0.00    +0.040 A 
ATOM      6  C   UNL     1      -0.512 -11.156  -2.595  0.00  0.00    +0.015 A 
ATOM      7  C   UNL     1      -0.599 -12.533  -2.599  0.00  0.00    +0.037 A 
ATOM      8  C   UNL     1      -0.694 -13.220  -3.796  0.00  0.00    +0.167 A 
ATOM      9  C   UNL     1      -0.705 -12.529  -5.000  0.00  0.00    +0.148 A 
ATOM     10  C   UNL     1      -0.624 -11.147  -5.006  0.00  0.00    +0.060 A 
BRANCH   8  11
ATOM     11  N   UNL     1      -0.786 -14.697  -3.792  0.00  0.00    +0.060 N 
ATOM     12  O   UNL     1      -0.777 -15.301  -2.745  0.00  0.00    -0.126 OA
ATOM     13  O   UNL     1      -0.870 -15.300  -4.837  0.00  0.00    -0.126 OA
ENDBRANCH   8  11
BRANCH   9  14
ATOM     14  O   UNL     1      -0.799 -13.210  -6.172  0.00  0.00    -0.504 OA
ATOM     15  H   UNL     1      -1.707 -13.351  -6.473  0.00  0.00    +0.292 HD
ENDBRANCH   9  14
ENDBRANCH   2   5
BRANCH   1  16
ATOM     16  C   UNL     1      -0.238  -6.847  -2.632  0.00  0.00    +0.113 C 
BRANCH  16  17
ATOM     17  C   UNL     1      -0.136  -6.343  -1.191  0.00  0.00    +0.115 C 
BRANCH  17  19
ATOM     18  N   UNL     1       0.057  -4.171  -0.023  0.00  0.00    -0.284 N 
ATOM     19  C   UNL     1      -0.042  -4.839  -1.190  0.00  0.00    +0.219 C 
ATOM     20  O   UNL     1      -0.055  -4.230  -2.238  0.00  0.00    -0.275 OA
ATOM     21  H   UNL     1       0.149  -4.660   0.809  0.00  0.00    +0.155 HD
BRANCH  18  26
ATOM     22  C   UNL     1      -0.064   1.502   0.016  0.00  0.00    +0.044 C 
ATOM     23  C   UNL     1      -0.031  -0.005   0.006  0.00  0.00    -0.049 A 
ATOM     24  C   UNL     1      -0.622  -0.701  -1.033  0.00  0.00    +0.005 A 
ATOM     25  C   UNL     1      -0.594  -2.082  -1.045  0.00  0.00    +0.025 A 
ATOM     26  C   UNL     1       0.028  -2.772  -0.014  0.00  0.00    +0.052 A 
ATOM     27  C   UNL     1       0.621  -2.070   1.029  0.00  0.00    +0.062 A 
ATOM     28  C   UNL     1       0.595  -0.688   1.032  0.00  0.00    +0.025 A 
ATOM     29 CL   UNL     1       1.401  -2.928   2.321  0.00  0.00    -0.082 Cl
ENDBRANCH  18  26
ENDBRANCH  17  19
ENDBRANCH  16  17
ENDBRANCH   1  16
TORSDOF 7
