REMARK  Name = ZINC45599172
REMARK  4 active torsions:
REMARK  status: ('A' for Active; 'I' for Inactive)
REMARK    1  A    between atoms: C_6  and  C_7
REMARK    2  A    between atoms: C_7  and  N_12
REMARK    3  A    between atoms: C_13  and  C_15
REMARK    4  A    between atoms: C_15  and  N_16
REMARK                            x       y       z     vdW  Elec       q    Type
REMARK                         _______ _______ _______ _____ _____    ______ ____
ROOT
ATOM      1  N   UNL     1      -1.076  -2.117   0.551  0.00  0.00    -0.304 N 
ATOM      2  C   UNL     1      -0.129  -2.914   0.017  0.00  0.00    +0.232 C 
ATOM      3  O   UNL     1       0.604  -2.488  -0.851  0.00  0.00    -0.274 OA
ATOM      4  H   UNL     1      -1.612  -2.433   1.295  0.00  0.00    +0.150 HD
ENDROOT
BRANCH   1   5
ATOM      5  C   UNL     1      -1.295  -0.775   0.007  0.00  0.00    +0.060 C 
ATOM      6  C   UNL     1      -1.619  -0.860  -1.499  0.00  0.00    +0.030 C 
ATOM      7  C   UNL     1      -3.166  -0.841  -1.557  0.00  0.00    +0.002 C 
ATOM      8  C   UNL     1      -3.538   0.161  -0.436  0.00  0.00    +0.002 C 
ATOM      9  C   UNL     1      -2.515  -0.125   0.683  0.00  0.00    +0.030 C 
BRANCH   5  15
ATOM     10  C   UNL     1       0.097   1.242  -0.499  0.00  0.00    +0.009 A 
ATOM     11  C   UNL     1       1.219   2.025  -0.303  0.00  0.00    +0.050 A 
ATOM     12  C   UNL     1       2.180   1.642   0.621  0.00  0.00    +0.162 A 
ATOM     13  C   UNL     1       2.010   0.471   1.350  0.00  0.00    +0.162 A 
ATOM     14  C   UNL     1       0.883  -0.310   1.148  0.00  0.00    +0.055 A 
ATOM     15  C   UNL     1      -0.071   0.076   0.225  0.00  0.00    -0.020 A 
ATOM     16  O   UNL     1       2.938   0.082   2.267  0.00  0.00    -0.485 OA
ATOM     17  C   UNL     1       4.230   0.692   2.175  0.00  0.00    +0.270 C 
ATOM     18  C   UNL     1       4.036   2.204   1.997  0.00  0.00    +0.270 C 
ATOM     19  O   UNL     1       3.282   2.421   0.799  0.00  0.00    -0.485 OA
ENDBRANCH   5  15
ENDBRANCH   1   5
BRANCH   2  20
ATOM     20  C   UNL     1       0.020  -4.334   0.499  0.00  0.00    +0.213 C 
BRANCH  20  21
ATOM     21  N   UNL     1       1.106  -4.984  -0.229  0.00  0.00    -0.215 N 
ATOM     22  C   UNL     1       0.980  -5.634  -1.407  0.00  0.00    +0.247 C 
ATOM     23  O   UNL     1       0.100  -5.537  -2.226  0.00  0.00    -0.273 OA
ATOM     24  C   UNL     1       2.184  -6.559  -1.452  0.00  0.00    +0.113 C 
ATOM     25  C   UNL     1       1.855  -7.820  -0.655  0.00  0.00    +0.035 C 
ATOM     26  C   UNL     1       2.827  -8.957  -0.970  0.00  0.00    +0.003 C 
ATOM     27  C   UNL     1       4.137  -8.857  -0.168  0.00  0.00    +0.000 C 
ATOM     28  C   UNL     1       5.015  -7.765  -0.805  0.00  0.00    +0.000 C 
ATOM     29  C   UNL     1       4.960  -7.885  -2.330  0.00  0.00    +0.000 C 
ATOM     30  C   UNL     1       4.194  -6.723  -2.952  0.00  0.00    +0.003 C 
ATOM     31  C   UNL     1       2.676  -6.868  -2.847  0.00  0.00    +0.035 C 
ATOM     32  N   UNL     1       3.142  -5.697  -0.728  0.00  0.00    -0.285 N 
ATOM     33  C   UNL     1       2.390  -4.992   0.151  0.00  0.00    +0.310 C 
ATOM     34  O   UNL     1       2.824  -4.447   1.139  0.00  0.00    -0.252 OA
ATOM     35  H   UNL     1       4.072  -5.542  -0.888  0.00  0.00    +0.151 HD
ENDBRANCH  20  21
ENDBRANCH   2  20
TORSDOF 4
