REMARK  Name = ZINC39533644
REMARK  9 active torsions:
REMARK  status: ('A' for Active; 'I' for Inactive)
REMARK    1  A    between atoms: C_1  and  O_2
REMARK    2  A    between atoms: O_2  and  N_3
REMARK    3  A    between atoms: N_3  and  C_4
REMARK    4  A    between atoms: C_4  and  C_5
REMARK    5  A    between atoms: C_5  and  C_7
REMARK    6  A    between atoms: C_5  and  N_19
REMARK    7  A    between atoms: C_10  and  C_13
REMARK    8  A    between atoms: C_23  and  C_26
REMARK    9  A    between atoms: C_31  and  O_32
REMARK                            x       y       z     vdW  Elec       q    Type
REMARK                         _______ _______ _______ _____ _____    ______ ____
ROOT
ATOM      1  C   UNL     1       1.352  -2.620  -2.340  0.00  0.00    +0.103 C 
ENDROOT
BRANCH   1   2
ATOM      2  N   UNL     1       0.224  -2.168  -3.165  0.00  0.00    -0.297 NA
ATOM      3  C   UNL     1       0.604  -1.011  -3.989  0.00  0.00    +0.066 C 
ATOM      4  C   UNL     1      -0.577  -0.609  -4.874  0.00  0.00    -0.066 C 
ATOM      5  N   UNL     1      -1.731  -0.273  -4.029  0.00  0.00    +0.385 N 
ATOM      6  C   UNL     1      -2.114  -1.445  -3.231  0.00  0.00    -0.023 C 
ATOM      7  C   UNL     1      -0.945  -1.854  -2.332  0.00  0.00    +0.074 C 
ATOM      8  H   UNL     1      -1.486   0.488  -3.413  0.00  0.00    -0.085 HD
ATOM      9  H   UNL     1      -2.506   0.004  -4.613  0.00  0.00    -0.085 HD
BRANCH   6  10
ATOM     10  C   UNL     1      -3.308  -1.103  -2.378  0.00  0.00    -0.019 A 
ATOM     11  C   UNL     1      -3.614   0.218  -2.114  0.00  0.00    +0.005 A 
ATOM     12  C   UNL     1      -4.710   0.532  -1.331  0.00  0.00    +0.000 A 
ATOM     13  C   UNL     1      -5.502  -0.475  -0.811  0.00  0.00    +0.004 A 
ATOM     14  C   UNL     1      -5.200  -1.797  -1.073  0.00  0.00    +0.045 A 
ATOM     15  C   UNL     1      -4.105  -2.115  -1.862  0.00  0.00    +0.118 A 
BRANCH  15  16
ATOM     16  O   UNL     1      -3.809  -3.415  -2.126  0.00  0.00    -0.507 OA
ATOM     17  H   UNL     1      -3.216  -3.822  -1.479  0.00  0.00    +0.292 HD
ENDBRANCH  15  16
ENDBRANCH   6  10
ENDBRANCH   1   2
BRANCH   1  18
ATOM     18  C   UNL     1       1.147  -4.062  -1.956  0.00  0.00    -0.029 A 
ATOM     19  C   UNL     1      -0.077  -4.667  -2.177  0.00  0.00    +0.006 A 
ATOM     20  C   UNL     1      -0.271  -5.988  -1.827  0.00  0.00    +0.009 A 
ATOM     21  C   UNL     1       0.769  -6.712  -1.249  0.00  0.00    -0.018 A 
ATOM     22  C   UNL     1       2.000  -6.099  -1.028  0.00  0.00    +0.009 A 
ATOM     23  C   UNL     1       2.185  -4.779  -1.388  0.00  0.00    +0.006 A 
BRANCH  21  24
ATOM     24  C   UNL     1       0.567  -8.133  -0.870  0.00  0.00    -0.018 A 
ATOM     25  C   UNL     1      -0.663  -8.748  -1.095  0.00  0.00    +0.008 A 
ATOM     26  C   UNL     1      -0.846 -10.069  -0.741  0.00  0.00    +0.001 A 
ATOM     27  C   UNL     1       0.189 -10.783  -0.163  0.00  0.00    +0.000 A 
ATOM     28  C   UNL     1       1.411 -10.177   0.064  0.00  0.00    +0.001 A 
ATOM     29  C   UNL     1       1.607  -8.857  -0.292  0.00  0.00    +0.008 A 
ENDBRANCH  21  24
ENDBRANCH   1  18
BRANCH   1  30
ATOM     30  C   UNL     1       1.436  -1.762  -1.076  0.00  0.00    +0.134 C 
BRANCH  30  31
ATOM     31  N   UNL     1       1.586  -0.350  -1.452  0.00  0.00    -0.200 NA
ATOM     32  H   UNL     1       2.388  -0.218  -2.049  0.00  0.00    +0.154 HD
BRANCH  31  34
ATOM     33  C   UNL     1       1.817   1.893  -0.558  0.00  0.00    +0.221 C 
ATOM     34  O   UNL     1       1.670   0.502  -0.266  0.00  0.00    -0.303 OA
ENDBRANCH  31  34
ENDBRANCH  30  31
ENDBRANCH   1  30
TORSDOF 8
