REMARK  Name = ZINC39469764
REMARK  6 active torsions:
REMARK  status: ('A' for Active; 'I' for Inactive)
REMARK    1  A    between atoms: C_1  and  C_2
REMARK    2  A    between atoms: C_2  and  O_3
REMARK    3  A    between atoms: O_3  and  C_4
REMARK    4  A    between atoms: P_13  and  S_23
REMARK    5  A    between atoms: S_23  and  O_26
REMARK    6  A    between atoms: O_26  and  C_27
REMARK                            x       y       z     vdW  Elec       q    Type
REMARK                         _______ _______ _______ _____ _____    ______ ____
ROOT
ATOM      1  C   UNL     1       0.802  -1.824   1.306  0.00  0.00    +0.152 C 
ATOM      2  C   UNL     1       0.281  -2.642   0.389  0.00  0.00    +0.026 C 
ATOM      3  C   UNL     1       0.419  -4.137   0.560  0.00  0.00    +0.025 C 
ATOM      4  C   UNL     1      -0.656  -4.620   1.533  0.00  0.00    +0.031 C 
ATOM      5  C   UNL     1      -0.483  -6.114   1.829  0.00  0.00    +0.100 C 
ATOM      6  C   UNL     1      -1.584  -6.508   2.822  0.00  0.00    +0.191 C 
ATOM      7  O   UNL     1      -1.492  -7.913   3.115  0.00  0.00    -0.297 OA
ATOM      8  P   UNL     1      -0.042  -8.500   3.565  0.00  0.00    +0.458 P 
ATOM      9  O   UNL     1       0.019  -9.958   3.320  0.00  0.00    -0.243 OA
ATOM     10  N   UNL     1       1.056  -7.714   2.616  0.00  0.00    -0.159 NA
ATOM     11  N   UNL     1       0.850  -6.369   2.383  0.00  0.00    -0.228 NA
ATOM     12  C   UNL     1       1.913  -5.923   1.466  0.00  0.00    +0.111 C 
ATOM     13  C   UNL     1       1.802  -4.438   1.146  0.00  0.00    +0.037 C 
ATOM     14  C   UNL     1       2.003  -3.631   2.400  0.00  0.00    +0.020 C 
ATOM     15  C   UNL     1       1.503  -2.389   2.477  0.00  0.00    +0.161 C 
ATOM     16  F   UNL     1       1.655  -1.654   3.600  0.00  0.00    -0.202 F 
ATOM     17  H   UNL     1       1.819  -8.181   2.240  0.00  0.00    +0.152 HD
ENDROOT
BRANCH   8  18
ATOM     18  S   UNL     1       0.317  -8.084   5.612  0.00  0.00    +0.211 S 
ATOM     19  O   UNL     1       1.524  -8.750   5.956  0.00  0.00    -0.126 OA
ATOM     20  O   UNL     1       0.145  -6.683   5.778  0.00  0.00    -0.126 OA
BRANCH  18  21
ATOM     21  O   UNL     1      -0.792  -8.756   6.409  0.00  0.00    -0.339 OA
BRANCH  21  22
ATOM     22  C   UNL     1      -0.661 -10.104   6.511  0.00  0.00    +0.157 A 
ATOM     23  C   UNL     1      -1.228 -10.933   5.554  0.00  0.00    +0.048 A 
ATOM     24  C   UNL     1      -1.092 -12.303   5.660  0.00  0.00    +0.004 A 
ATOM     25  C   UNL     1      -0.392 -12.850   6.719  0.00  0.00    +0.000 A 
ATOM     26  C   UNL     1       0.174 -12.027   7.675  0.00  0.00    +0.004 A 
ATOM     27  C   UNL     1       0.046 -10.655   7.571  0.00  0.00    +0.048 A 
ENDBRANCH  21  22
ENDBRANCH  18  21
ENDBRANCH   8  18
BRANCH   1  28
ATOM     28  O   UNL     1       0.693  -0.477   1.160  0.00  0.00    -0.490 OA
BRANCH  28  30
ATOM     29  C   UNL     1      -0.019   1.526   0.010  0.00  0.00    +0.048 C 
ATOM     30  C   UNL     1       0.002  -0.004   0.002  0.00  0.00    +0.226 C 
ENDBRANCH  28  30
ENDBRANCH   1  28
TORSDOF 5
