REMARK  Name = ZINC13266583
REMARK  8 active torsions:
REMARK  status: ('A' for Active; 'I' for Inactive)
REMARK    1  A    between atoms: C_1  and  C_2
REMARK    2  A    between atoms: C_2  and  C_4
REMARK    3  A    between atoms: C_2  and  N_9
REMARK    4  A    between atoms: C_10  and  C_12
REMARK    5  A    between atoms: C_12  and  S_13
REMARK    6  A    between atoms: S_13  and  C_14
REMARK    7  A    between atoms: C_18  and  C_31
REMARK    8  A    between atoms: N_24  and  C_25
REMARK                            x       y       z     vdW  Elec       q    Type
REMARK                         _______ _______ _______ _____ _____    ______ ____
ROOT
ATOM      1  C   UNL     1      -4.171   1.861   0.531  0.00  0.00    +0.177 A 
ATOM      2  N   UNL     1      -3.948   3.151   0.573  0.00  0.00    -0.223 NA
ATOM      3  C   UNL     1      -4.856   4.044   0.112  0.00  0.00    +0.080 A 
ATOM      4  C   UNL     1      -4.612   5.419   0.153  0.00  0.00    +0.043 A 
ATOM      5  C   UNL     1      -5.575   6.298  -0.329  0.00  0.00    +0.065 A 
ATOM      6  C   UNL     1      -6.781   5.813  -0.853  0.00  0.00    +0.016 A 
ATOM      7  C   UNL     1      -7.030   4.471  -0.897  0.00  0.00    +0.016 A 
ATOM      8  C   UNL     1      -6.077   3.571  -0.420  0.00  0.00    +0.065 A 
ATOM      9  C   UNL     1      -6.304   2.118  -0.450  0.00  0.00    +0.267 A 
ATOM     10  O   UNL     1      -7.336   1.651  -0.896  0.00  0.00    -0.267 OA
ATOM     11  N   UNL     1      -5.325   1.321   0.035  0.00  0.00    -0.255 N 
ENDROOT
BRANCH  11  12
ATOM     12  C   UNL     1      -5.494  -0.070   0.027  0.00  0.00    +0.052 A 
ATOM     13  C   UNL     1      -5.084  -0.815  -1.071  0.00  0.00    +0.026 A 
ATOM     14  C   UNL     1      -5.247  -2.186  -1.072  0.00  0.00    +0.002 A 
ATOM     15  C   UNL     1      -5.827  -2.816   0.013  0.00  0.00    +0.000 A 
ATOM     16  C   UNL     1      -6.242  -2.077   1.105  0.00  0.00    +0.002 A 
ATOM     17  C   UNL     1      -6.077  -0.706   1.116  0.00  0.00    +0.026 A 
ENDBRANCH  11  12
BRANCH   5  18
ATOM     18  C   UNL     1      -5.325   7.755  -0.288  0.00  0.00    +0.387 C 
ATOM     19  O   UNL     1      -4.281   8.180   0.164  0.00  0.00    -0.241 OA
ATOM     20  O   UNL     1      -6.255   8.611  -0.754  0.00  0.00    -0.241 OA
ENDBRANCH   5  18
BRANCH   1  21
ATOM     21  S   UNL     1      -2.931   0.773   1.149  0.00  0.00    -0.078 S 
BRANCH  21  22
ATOM     22  C   UNL     1      -1.679   1.978   1.656  0.00  0.00    +0.173 C 
BRANCH  22  24
ATOM     23  N   UNL     1       0.575   1.954   2.674  0.00  0.00    -0.308 N 
ATOM     24  C   UNL     1      -0.489   1.255   2.232  0.00  0.00    +0.224 C 
ATOM     25  O   UNL     1      -0.488   0.043   2.294  0.00  0.00    -0.275 OA
ATOM     26  H   UNL     1       0.574   2.922   2.625  0.00  0.00    +0.149 HD
BRANCH  23  28
ATOM     27  C   UNL     1       1.493   0.961   4.712  0.00  0.00    +0.033 C 
ATOM     28  C   UNL     1       1.734   1.250   3.229  0.00  0.00    +0.107 C 
BRANCH  28  29
ATOM     29  C   UNL     1       2.963   2.109   3.077  0.00  0.00    +0.010 A 
ATOM     30  C   UNL     1       4.224   1.744   2.739  0.00  0.00    +0.013 A 
ATOM     31  C   UNL     1       5.204   2.714   2.659  0.00  0.00    +0.008 A 
ATOM     32  C   UNL     1       4.876   4.003   2.922  0.00  0.00    +0.045 A 
ATOM     33  S   UNL     1       3.134   3.873   3.289  0.00  0.00    -0.100 S 
ENDBRANCH  28  29
ENDBRANCH  23  28
ENDBRANCH  22  24
ENDBRANCH  21  22
ENDBRANCH   1  21
TORSDOF 7
