REMARK  Name = ZINC61642601
REMARK  7 active torsions:
REMARK  status: ('A' for Active; 'I' for Inactive)
REMARK    1  A    between atoms: C_1  and  N_2
REMARK    2  A    between atoms: N_2  and  C_3
REMARK    3  A    between atoms: N_2  and  C_4
REMARK    4  A    between atoms: C_4  and  C_5
REMARK    5  A    between atoms: N_10  and  S_11
REMARK    6  A    between atoms: S_11  and  C_14
REMARK    7  A    between atoms: C_17  and  N_21
REMARK                            x       y       z     vdW  Elec       q    Type
REMARK                         _______ _______ _______ _____ _____    ______ ____
ROOT
ATOM      1  S   UNL     1      -1.296   2.096   1.028  0.00  0.00    +0.064 S 
ATOM      2  O   UNL     1      -0.988   3.481   0.967  0.00  0.00    -0.153 OA
ATOM      3  O   UNL     1      -1.211   1.245  -0.108  0.00  0.00    -0.153 OA
ENDROOT
BRANCH   1   4
ATOM      4  C   UNL     1      -2.949   1.974   1.626  0.00  0.00    +0.142 A 
ATOM      5  C   UNL     1      -3.703   0.847   1.347  0.00  0.00    +0.070 A 
ATOM      6  C   UNL     1      -5.000   0.749   1.815  0.00  0.00    +0.044 A 
ATOM      7  C   UNL     1      -5.547   1.782   2.565  0.00  0.00    +0.027 A 
ATOM      8  C   UNL     1      -4.788   2.912   2.843  0.00  0.00    +0.044 A 
ATOM      9  C   UNL     1      -3.490   3.003   2.377  0.00  0.00    +0.070 A 
ATOM     10 CL   UNL     1      -2.538   4.411   2.729  0.00  0.00    -0.081 Cl
ATOM     11 CL   UNL     1      -3.019  -0.444   0.410  0.00  0.00    -0.081 Cl
BRANCH   7  12
ATOM     12  N   UNL     1      -6.857   1.686   3.039  0.00  0.00    -0.358 N 
ATOM     13  H   UNL     1      -7.386   0.897   2.844  0.00  0.00    +0.142 HD
ATOM     14  H   UNL     1      -7.238   2.408   3.562  0.00  0.00    +0.142 HD
ENDBRANCH   7  12
ENDBRANCH   1   4
BRANCH   1  19
ATOM     15  C   UNL     1       0.196   0.060   2.199  0.00  0.00    +0.063 C 
ATOM     16  C   UNL     1       1.051  -0.106   3.473  0.00  0.00    +0.020 C 
ATOM     17  C   UNL     1       0.522   1.024   4.396  0.00  0.00    +0.019 C 
ATOM     18  C   UNL     1       0.218   2.146   3.372  0.00  0.00    +0.110 C 
ATOM     19  N   UNL     1      -0.308   1.441   2.184  0.00  0.00    -0.175 NA
BRANCH  15  20
ATOM     20  C   UNL     1       1.055  -0.194   0.959  0.00  0.00    -0.059 C 
BRANCH  20  22
ATOM     21  C   UNL     1       0.289  -2.457   0.744  0.00  0.00    -0.097 C 
ATOM     22  N   UNL     1       1.470  -1.603   0.931  0.00  0.00    +0.377 N 
ATOM     23  C   UNL     1       2.408  -1.815  -0.179  0.00  0.00    -0.097 C 
ATOM     24  H   UNL     1       1.920  -1.839   1.802  0.00  0.00    -0.083 HD
ENDBRANCH  20  22
ENDBRANCH  15  20
ENDBRANCH   1  19
TORSDOF 5
