REMARK  Name = ZINC40170459
REMARK  10 active torsions:
REMARK  status: ('A' for Active; 'I' for Inactive)
REMARK    1  A    between atoms: C_1  and  C_2
REMARK    2  A    between atoms: C_11  and  C_12
REMARK    3  A    between atoms: C_15  and  S_16
REMARK    4  A    between atoms: S_16  and  C_17
REMARK    5  A    between atoms: C_17  and  C_19
REMARK    6  A    between atoms: C_17  and  C_20
REMARK    7  A    between atoms: N_22  and  C_23
REMARK    8  A    between atoms: C_24  and  C_30
REMARK    9  A    between atoms: C_25  and  C_29
REMARK   10  A    between atoms: C_26  and  C_28
REMARK                            x       y       z     vdW  Elec       q    Type
REMARK                         _______ _______ _______ _____ _____    ______ ____
ROOT
ATOM      1  C   UNL     1      -2.217   3.121   3.570  0.00  0.00    +0.137 C 
ATOM      2  C   UNL     1      -0.967   3.966   3.824  0.00  0.00    +0.029 C 
ENDROOT
BRANCH   1   3
ATOM      3  C   UNL     1      -3.347   4.016   3.130  0.00  0.00    +0.231 C 
ATOM      4  O   UNL     1      -3.627   4.105   1.953  0.00  0.00    -0.274 OA
ATOM      5  N   UNL     1      -4.047   4.716   4.044  0.00  0.00    -0.278 N 
ATOM      6  H   UNL     1      -3.824   4.644   4.985  0.00  0.00    +0.155 HD
BRANCH   5   7
ATOM      7  C   UNL     1      -5.087   5.539   3.639  0.00  0.00    +0.084 A 
ATOM      8  C   UNL     1      -5.906   6.331   4.431  0.00  0.00    +0.068 A 
ATOM      9  C   UNL     1      -6.922   7.097   3.746  0.00  0.00    -0.027 A 
ATOM     10  C   UNL     1      -6.961   6.956   2.408  0.00  0.00    -0.008 A 
ATOM     11  S   UNL     1      -5.640   5.811   2.078  0.00  0.00    -0.078 S 
ATOM     12  C   UNL     1      -7.894   7.615   1.425  0.00  0.00    +0.052 C 
ATOM     13  C   UNL     1      -7.878   7.998   4.484  0.00  0.00    +0.045 C 
BRANCH   8  14
ATOM     14  C   UNL     1      -5.749   6.387   5.887  0.00  0.00    +0.244 C 
ATOM     15  O   UNL     1      -5.008   7.213   6.388  0.00  0.00    -0.270 OA
ATOM     16  N   UNL     1      -6.424   5.525   6.672  0.00  0.00    -0.325 N 
ATOM     17  H   UNL     1      -7.015   4.866   6.273  0.00  0.00    +0.145 HD
ATOM     18  H   UNL     1      -6.320   5.562   7.636  0.00  0.00    +0.145 HD
ENDBRANCH   8  14
ENDBRANCH   5   7
ENDBRANCH   1   3
BRANCH   1  19
ATOM     19  S   UNL     1      -1.869   1.903   2.272  0.00  0.00    -0.073 S 
BRANCH  19  34
ATOM     20  C   UNL     1      -0.018   1.501   0.010  0.00  0.00    +0.046 C 
ATOM     21  C   UNL     1       0.002  -0.004   0.002  0.00  0.00    -0.026 A 
ATOM     22  C   UNL     1      -0.160  -0.641  -1.218  0.00  0.00    +0.005 A 
ATOM     23  C   UNL     1      -0.101  -2.019  -1.313  0.00  0.00    +0.001 A 
ATOM     24  C   UNL     1       0.180  -2.773  -0.194  0.00  0.00    +0.010 A 
ATOM     25  C   UNL     1       0.358  -2.143   1.038  0.00  0.00    +0.002 A 
ATOM     26  C   UNL     1       0.125  -0.752   1.159  0.00  0.00    +0.061 A 
ATOM     27  N   UNL     1      -0.037  -0.226   2.430  0.00  0.00    -0.270 N 
ATOM     28  C   UNL     1       0.502  -0.903   3.511  0.00  0.00    +0.162 A 
ATOM     29  C   UNL     1       0.915  -2.248   3.397  0.00  0.00    +0.052 A 
ATOM     30  C   UNL     1       0.808  -2.892   2.213  0.00  0.00    -0.038 A 
ATOM     31  C   UNL     1       1.152  -4.357   2.123  0.00  0.00    +0.044 C 
ATOM     32  N   UNL     1       0.474  -0.076   4.540  0.00  0.00    -0.129 NA
ATOM     33  N   UNL     1      -0.201   0.966   4.225  0.00  0.00    -0.122 NA
ATOM     34  C   UNL     1      -0.645   0.855   2.987  0.00  0.00    +0.197 A 
ENDBRANCH  19  34
ENDBRANCH   1  19
TORSDOF 5
