REMARK  Name = ZINC01736562
REMARK  3 active torsions:
REMARK  status: ('A' for Active; 'I' for Inactive)
REMARK    1  A    between atoms: C_1  and  C_2
REMARK    2  A    between atoms: C_2  and  C_11
REMARK    3  A    between atoms: C_11  and  C_20
REMARK                            x       y       z     vdW  Elec       q    Type
REMARK                         _______ _______ _______ _____ _____    ______ ____
ROOT
ATOM      1  C   UNL     1      -0.013   1.086   0.008  0.00  0.00    +0.084 C 
ATOM      2  C   UNL     1      -0.729   1.579   1.267  0.00  0.00    +0.230 C 
ATOM      3  N   UNL     1      -2.122   1.112   1.273  0.00  0.00    -0.300 N 
ATOM      4  C   UNL     1      -2.921   2.266   1.278  0.00  0.00    +0.072 A 
ATOM      5  C   UNL     1      -4.301   2.418   1.284  0.00  0.00    +0.027 A 
ATOM      6  C   UNL     1      -4.857   3.683   1.289  0.00  0.00    +0.002 A 
ATOM      7  C   UNL     1      -4.040   4.798   1.288  0.00  0.00    +0.004 A 
ATOM      8  C   UNL     1      -2.666   4.654   1.282  0.00  0.00    +0.047 A 
ATOM      9  C   UNL     1      -2.097   3.386   1.277  0.00  0.00    +0.144 A 
ATOM     10  O   UNL     1      -0.791   3.008   1.270  0.00  0.00    -0.461 OA
ATOM     11  H   UNL     1      -2.427   0.191   1.272  0.00  0.00    +0.150 HD
ENDROOT
BRANCH   2  12
ATOM     12  C   UNL     1      -0.001   1.080   2.517  0.00  0.00    +0.230 C 
ATOM     13  N   UNL     1       0.055  -0.388   2.518  0.00  0.00    -0.300 N 
ATOM     14  C   UNL     1       1.415  -0.729   2.508  0.00  0.00    +0.072 A 
ATOM     15  C   UNL     1       2.043  -1.967   2.505  0.00  0.00    +0.027 A 
ATOM     16  C   UNL     1       3.423  -2.042   2.495  0.00  0.00    +0.002 A 
ATOM     17  C   UNL     1       4.179  -0.884   2.487  0.00  0.00    +0.004 A 
ATOM     18  C   UNL     1       3.559   0.350   2.490  0.00  0.00    +0.047 A 
ATOM     19  C   UNL     1       2.173   0.437   2.500  0.00  0.00    +0.144 A 
ATOM     20  O   UNL     1       1.358   1.526   2.505  0.00  0.00    -0.461 OA
ATOM     21  C   UNL     1      -0.710   1.584   3.775  0.00  0.00    +0.084 C 
ATOM     22  H   UNL     1      -0.699  -0.998   2.525  0.00  0.00    +0.150 HD
ENDBRANCH   2  12
TORSDOF 1
