REMARK  Name = ZINC30855964
REMARK  11 active torsions:
REMARK  status: ('A' for Active; 'I' for Inactive)
REMARK    1  A    between atoms: C_1  and  C_2
REMARK    2  A    between atoms: C_2  and  C_3
REMARK    3  A    between atoms: C_2  and  C_4
REMARK    4  A    between atoms: C_2  and  C_5
REMARK    5  A    between atoms: C_8  and  C_11
REMARK    6  A    between atoms: N_12  and  N_13
REMARK    7  A    between atoms: C_14  and  C_16
REMARK    8  A    between atoms: C_23  and  C_27
REMARK    9  A    between atoms: C_27  and  C_28
REMARK   10  A    between atoms: C_27  and  C_29
REMARK   11  A    between atoms: C_27  and  C_30
REMARK                            x       y       z     vdW  Elec       q    Type
REMARK                         _______ _______ _______ _____ _____    ______ ____
ROOT
ATOM      1  N   UNL     1       0.070   1.032   0.703  0.00  0.00    -0.204 N 
ATOM      2  C   UNL     1      -1.133   1.641   0.683  0.00  0.00    +0.276 C 
ATOM      3  O   UNL     1      -1.242   2.754   0.211  0.00  0.00    -0.270 OA
ATOM      4  H   UNL     1       0.169   0.025   1.134  0.00  0.00    +0.177 HD
ENDROOT
BRANCH   2   5
ATOM      5  C   UNL     1      -2.342   0.940   1.247  0.00  0.00    +0.297 C 
ATOM      6  C   UNL     1      -2.665  -0.297   0.399  0.00  0.00    +0.283 C 
ATOM      7  O   UNL     1      -3.824  -0.930   0.952  0.00  0.00    -0.484 OA
ATOM      8  C   UNL     1      -4.871  -0.120   1.268  0.00  0.00    +0.162 A 
ATOM      9  C   UNL     1      -6.127  -0.675   1.464  0.00  0.00    +0.050 A 
ATOM     10  C   UNL     1      -7.199   0.134   1.789  0.00  0.00    +0.008 A 
ATOM     11  C   UNL     1      -7.022   1.499   1.921  0.00  0.00    -0.038 A 
ATOM     12  C   UNL     1      -5.774   2.059   1.727  0.00  0.00    +0.053 A 
ATOM     13  C   UNL     1      -4.694   1.253   1.399  0.00  0.00    +0.163 A 
ATOM     14  O   UNL     1      -3.471   1.819   1.208  0.00  0.00    -0.472 OA
BRANCH  11  15
ATOM     15  C   UNL     1      -8.194   2.377   2.278  0.00  0.00    -0.013 C 
ATOM     16  C   UNL     1      -9.448   1.516   2.436  0.00  0.00    +0.015 C 
ATOM     17  C   UNL     1      -7.905   3.104   3.593  0.00  0.00    +0.015 C 
ATOM     18  C   UNL     1      -8.418   3.405   1.166  0.00  0.00    +0.015 C 
ENDBRANCH  11  15
ENDBRANCH   2   5
BRANCH   1  20
ATOM     19  C   UNL     1       2.324   1.052   0.084  0.00  0.00    +0.138 C 
ATOM     20  N   UNL     1       1.192   1.682   0.173  0.00  0.00    -0.188 NA
BRANCH  19  24
ATOM     21  C   UNL     1       2.395  -3.191   0.061  0.00  0.00    -0.042 A 
ATOM     22  C   UNL     1       3.567  -2.484   0.262  0.00  0.00    +0.005 A 
ATOM     23  C   UNL     1       3.552  -1.105   0.270  0.00  0.00    +0.010 A 
ATOM     24  C   UNL     1       2.349  -0.422   0.075  0.00  0.00    -0.005 A 
ATOM     25  C   UNL     1       1.168  -1.143  -0.121  0.00  0.00    +0.010 A 
ATOM     26  C   UNL     1       1.200  -2.522  -0.132  0.00  0.00    +0.005 A 
BRANCH  21  28
ATOM     27  C   UNL     1       2.935  -5.206   1.402  0.00  0.00    +0.015 C 
ATOM     28  C   UNL     1       2.420  -4.698   0.053  0.00  0.00    -0.013 C 
ATOM     29  C   UNL     1       1.006  -5.231  -0.186  0.00  0.00    +0.015 C 
ATOM     30  C   UNL     1       3.346  -5.187  -1.063  0.00  0.00    +0.015 C 
ENDBRANCH  21  28
ENDBRANCH  19  24
ENDBRANCH   1  20
TORSDOF 5
