REMARK  Name = ZINC08986365
REMARK  8 active torsions:
REMARK  status: ('A' for Active; 'I' for Inactive)
REMARK    1  A    between atoms: C_1  and  C_2
REMARK    2  A    between atoms: C_5  and  C_8
REMARK    3  A    between atoms: N_10  and  C_11
REMARK    4  A    between atoms: C_11  and  C_13
REMARK    5  A    between atoms: C_11  and  C_23
REMARK    6  A    between atoms: C_15  and  C_18
REMARK    7  A    between atoms: C_23  and  C_24
REMARK    8  A    between atoms: C_23  and  C_25
REMARK                            x       y       z     vdW  Elec       q    Type
REMARK                         _______ _______ _______ _____ _____    ______ ____
ROOT
ATOM      1  C   UNL     1      -2.164   1.050   1.278  0.00  0.00    +0.164 C 
ENDROOT
BRANCH   1   2
ATOM      2  C   UNL     1      -2.144  -0.457   1.269  0.00  0.00    +0.248 A 
ATOM      3  N   UNL     1      -2.396  -1.244   2.285  0.00  0.00    -0.190 NA
ATOM      4  C   UNL     1      -2.259  -2.504   1.812  0.00  0.00    +0.203 A 
ATOM      5  N   UNL     1      -1.935  -2.408   0.548  0.00  0.00    -0.056 NA
ATOM      6  O   UNL     1      -1.870  -1.242   0.222  0.00  0.00    -0.336 OA
BRANCH   4   7
ATOM      7  C   UNL     1      -2.443  -3.758   2.581  0.00  0.00    +0.029 A 
ATOM      8  C   UNL     1      -2.277  -5.000   1.972  0.00  0.00    +0.019 A 
ATOM      9  C   UNL     1      -2.455  -6.102   2.734  0.00  0.00    +0.046 A 
ATOM     10  S   UNL     1      -2.874  -5.404   4.321  0.00  0.00    -0.104 S 
ATOM     11  C   UNL     1      -2.785  -3.724   3.902  0.00  0.00    +0.057 A 
ENDBRANCH   4   7
ENDBRANCH   1   2
BRANCH   1  14
ATOM     12  C   UNL     1      -3.458   2.749   0.105  0.00  0.00    +0.245 C 
ATOM     13  O   UNL     1      -3.398   3.441   1.102  0.00  0.00    -0.270 OA
ATOM     14  N   UNL     1      -2.873   1.535   0.091  0.00  0.00    -0.300 N 
ATOM     15  H   UNL     1      -2.921   0.983  -0.705  0.00  0.00    +0.150 HD
BRANCH  12  20
ATOM     16  C   UNL     1      -6.239   4.656  -4.558  0.00  0.00    +0.044 C 
ATOM     17  C   UNL     1      -5.511   4.157  -3.337  0.00  0.00    -0.050 A 
ATOM     18  C   UNL     1      -5.445   4.947  -2.203  0.00  0.00    +0.004 A 
ATOM     19  C   UNL     1      -4.780   4.496  -1.082  0.00  0.00    +0.013 A 
ATOM     20  C   UNL     1      -4.173   3.239  -1.093  0.00  0.00    +0.037 A 
ATOM     21  C   UNL     1      -4.239   2.449  -2.242  0.00  0.00    +0.013 A 
ATOM     22  C   UNL     1      -4.912   2.910  -3.355  0.00  0.00    +0.004 A 
ENDBRANCH  12  20
ENDBRANCH   1  14
BRANCH   1  23
ATOM     23  C   UNL     1      -0.729   1.579   1.267  0.00  0.00    +0.012 C 
ATOM     24  C   UNL     1      -0.013   1.086   0.008  0.00  0.00    +0.009 C 
ATOM     25  C   UNL     1       0.011   1.072   2.506  0.00  0.00    +0.009 C 
ENDBRANCH   1  23
TORSDOF 5
