REMARK  Name = ZINC67241112
REMARK  5 active torsions:
REMARK  status: ('A' for Active; 'I' for Inactive)
REMARK    1  A    between atoms: C_3  and  N_12
REMARK    2  A    between atoms: C_6  and  C_7
REMARK    3  A    between atoms: C_7  and  N_8
REMARK    4  A    between atoms: C_13  and  C_15
REMARK    5  A    between atoms: C_16  and  C_17
REMARK                            x       y       z     vdW  Elec       q    Type
REMARK                         _______ _______ _______ _____ _____    ______ ____
ROOT
ATOM      1  N   UNL     1       3.583   2.123  -0.021  0.00  0.00    -0.282 N 
ATOM      2  C   UNL     1       4.757   1.467   0.066  0.00  0.00    +0.241 C 
ATOM      3  O   UNL     1       4.776   0.249   0.060  0.00  0.00    -0.270 OA
ATOM      4  H   UNL     1       3.572   3.090  -0.093  0.00  0.00    +0.155 HD
ENDROOT
BRANCH   1   7
ATOM      5  C   UNL     1       1.083  -0.460   0.750  0.00  0.00    +0.007 A 
ATOM      6  C   UNL     1       2.272   0.243   0.739  0.00  0.00    +0.023 A 
ATOM      7  C   UNL     1       2.381   1.409  -0.007  0.00  0.00    +0.034 A 
ATOM      8  C   UNL     1       1.292   1.866  -0.739  0.00  0.00    +0.023 A 
ATOM      9  C   UNL     1       0.106   1.159  -0.723  0.00  0.00    +0.007 A 
ATOM     10  C   UNL     1       0.001  -0.002   0.021  0.00  0.00    -0.030 A 
BRANCH  10  11
ATOM     11  C   UNL     1      -1.295  -0.771   0.036  0.00  0.00    +0.141 C 
BRANCH  11  12
ATOM     12  N   UNL     1      -2.139  -0.285   1.130  0.00  0.00    -0.295 N 
ATOM     13  C   UNL     1      -3.353  -0.830   1.338  0.00  0.00    +0.297 C 
ATOM     14  O   UNL     1      -3.749  -1.726   0.617  0.00  0.00    -0.253 OA
ATOM     15  N   UNL     1      -4.130  -0.383   2.345  0.00  0.00    -0.313 N 
ATOM     16  H   UNL     1      -1.823   0.429   1.706  0.00  0.00    +0.151 HD
ATOM     17  H   UNL     1      -3.814   0.331   2.920  0.00  0.00    +0.146 HD
ATOM     18  H   UNL     1      -5.004  -0.775   2.494  0.00  0.00    +0.146 HD
ENDBRANCH  11  12
ENDBRANCH  10  11
ENDBRANCH   1   7
BRANCH   2  19
ATOM     19  C   UNL     1       6.008   2.217   0.168  0.00  0.00    +0.068 C 
ATOM     20  C   UNL     1       7.184   1.560   0.255  0.00  0.00    +0.013 C 
BRANCH  20  21
ATOM     21  C   UNL     1       8.442   2.314   0.357  0.00  0.00    -0.024 A 
ATOM     22  C   UNL     1       8.427   3.713   0.370  0.00  0.00    +0.011 A 
ATOM     23  C   UNL     1       9.604   4.416   0.471  0.00  0.00    +0.046 A 
ATOM     24  C   UNL     1      10.824   3.744   0.559  0.00  0.00    +0.124 A 
ATOM     25  C   UNL     1      10.834   2.352   0.537  0.00  0.00    -0.002 A 
ATOM     26  C   UNL     1       9.665   1.638   0.448  0.00  0.00    +0.015 A 
ATOM     27  C   UNL     1      12.285   1.918   0.623  0.00  0.00    +0.080 C 
ATOM     28  C   UNL     1      13.032   3.232   0.292  0.00  0.00    +0.234 C 
ATOM     29  O   UNL     1      12.084   4.242   0.676  0.00  0.00    -0.491 OA
ENDBRANCH  20  21
ENDBRANCH   2  19
TORSDOF 5
