REMARK  Name = ZINC07048199
REMARK  7 active torsions:
REMARK  status: ('A' for Active; 'I' for Inactive)
REMARK    1  A    between atoms: C_1  and  C_2
REMARK    2  A    between atoms: C_4  and  N_22
REMARK    3  A    between atoms: C_6  and  S_8
REMARK    4  A    between atoms: S_8  and  C_9
REMARK    5  A    between atoms: C_9  and  C_10
REMARK    6  A    between atoms: C_14  and  C_21
REMARK    7  A    between atoms: C_17  and  C_20
REMARK                            x       y       z     vdW  Elec       q    Type
REMARK                         _______ _______ _______ _____ _____    ______ ____
ROOT
ATOM      1  S   UNL     1      -4.400   2.465   2.253  0.00  0.00    -0.077 S 
ENDROOT
BRANCH   1   7
ATOM      2  C   UNL     1      -0.013   1.086   0.008  0.00  0.00    +0.066 C 
ATOM      3  C   UNL     1      -0.718   1.572   1.248  0.00  0.00    +0.044 A 
ATOM      4  C   UNL     1      -0.007   1.808   2.409  0.00  0.00    +0.066 A 
ATOM      5  C   UNL     1      -0.699   2.258   3.535  0.00  0.00    +0.121 A 
ATOM      6  N   UNL     1      -2.013   2.443   3.453  0.00  0.00    -0.207 NA
ATOM      7  C   UNL     1      -2.659   2.205   2.320  0.00  0.00    +0.191 A 
ATOM      8  N   UNL     1      -2.026   1.782   1.235  0.00  0.00    -0.227 NA
BRANCH   5   9
ATOM      9  N   UNL     1      -0.027   2.508   4.720  0.00  0.00    -0.343 N 
ATOM     10  H   UNL     1       0.932   2.371   4.772  0.00  0.00    +0.144 HD
ATOM     11  H   UNL     1      -0.515   2.821   5.498  0.00  0.00    +0.144 HD
ENDBRANCH   5   9
ENDBRANCH   1   7
BRANCH   1  12
ATOM     12  C   UNL     1      -4.700   3.024   3.948  0.00  0.00    +0.173 C 
BRANCH  12  13
ATOM     13  C   UNL     1      -6.168   3.314   4.130  0.00  0.00    +0.226 C 
ATOM     14  O   UNL     1      -6.935   3.158   3.204  0.00  0.00    -0.275 OA
ATOM     15  N   UNL     1      -6.627   3.747   5.320  0.00  0.00    -0.296 N 
ATOM     16  C   UNL     1      -5.716   3.938   6.460  0.00  0.00    +0.139 C 
ATOM     17  C   UNL     1      -5.957   5.343   7.036  0.00  0.00    +0.133 C 
ATOM     18  O   UNL     1      -7.351   5.506   7.304  0.00  0.00    -0.371 OA
ATOM     19  C   UNL     1      -8.184   5.431   6.144  0.00  0.00    +0.133 C 
ATOM     20  C   UNL     1      -8.056   4.037   5.521  0.00  0.00    +0.139 C 
ATOM     21  C   UNL     1      -7.742   6.487   5.129  0.00  0.00    +0.039 C 
ATOM     22  C   UNL     1      -5.164   5.505   8.334  0.00  0.00    +0.039 C 
ENDBRANCH  12  13
ENDBRANCH   1  12
TORSDOF 4
