REMARK  Name = ZINC13022158
REMARK  13 active torsions:
REMARK  status: ('A' for Active; 'I' for Inactive)
REMARK    1  A    between atoms: C_1  and  C_2
REMARK    2  A    between atoms: C_2  and  C_3
REMARK    3  A    between atoms: C_9  and  S_18
REMARK    4  A    between atoms: N_10  and  C_13
REMARK    5  A    between atoms: C_13  and  C_14
REMARK    6  A    between atoms: C_14  and  C_15
REMARK    7  A    between atoms: C_15  and  O_16
REMARK    8  A    between atoms: O_16  and  C_17
REMARK    9  A    between atoms: S_18  and  C_19
REMARK   10  A    between atoms: C_19  and  C_20
REMARK   11  A    between atoms: N_22  and  C_23
REMARK   12  A    between atoms: C_26  and  C_32
REMARK   13  A    between atoms: C_33  and  C_35
REMARK                            x       y       z     vdW  Elec       q    Type
REMARK                         _______ _______ _______ _____ _____    ______ ____
ROOT
ATOM      1  S   UNL     1      -7.572  -2.801   0.590  0.00  0.00    -0.078 S 
ENDROOT
BRANCH   1   8
ATOM      2  C   UNL     1      -1.412  -0.526   0.013  0.00  0.00    -0.008 A 
ATOM      3  C   UNL     1      -2.199  -0.813  -1.034  0.00  0.00    +0.026 A 
ATOM      4  C   UNL     1      -3.544  -1.310  -0.795  0.00  0.00    +0.072 A 
ATOM      5  C   UNL     1      -3.895  -1.444   0.561  0.00  0.00    +0.116 A 
ATOM      6  S   UNL     1      -2.434  -0.916   1.420  0.00  0.00    -0.073 S 
ATOM      7  N   UNL     1      -5.088  -1.885   0.939  0.00  0.00    -0.216 NA
ATOM      8  C   UNL     1      -6.000  -2.218   0.048  0.00  0.00    +0.173 A 
ATOM      9  N   UNL     1      -5.742  -2.119  -1.288  0.00  0.00    -0.287 N 
ATOM     10  C   UNL     1      -4.553  -1.679  -1.739  0.00  0.00    +0.263 A 
ATOM     11  O   UNL     1      -4.339  -1.596  -2.937  0.00  0.00    -0.267 OA
BRANCH   2  13
ATOM     12  C   UNL     1      -0.019   1.526   0.010  0.00  0.00    +0.009 C 
ATOM     13  C   UNL     1       0.002  -0.004   0.002  0.00  0.00    +0.039 C 
ENDBRANCH   2  13
BRANCH   9  14
ATOM     14  C   UNL     1      -6.780  -2.498  -2.250  0.00  0.00    +0.129 C 
BRANCH  14  15
ATOM     15  C   UNL     1      -7.641  -1.277  -2.581  0.00  0.00    +0.050 C 
BRANCH  15  16
ATOM     16  C   UNL     1      -8.724  -1.674  -3.585  0.00  0.00    +0.161 C 
BRANCH  16  17
ATOM     17  O   UNL     1      -9.528  -0.533  -3.894  0.00  0.00    -0.383 OA
ATOM     18  C   UNL     1     -10.576  -0.796  -4.829  0.00  0.00    +0.193 C 
ENDBRANCH  16  17
ENDBRANCH  15  16
ENDBRANCH  14  15
ENDBRANCH   9  14
ENDBRANCH   1   8
BRANCH   1  19
ATOM     19  C   UNL     1      -7.455  -2.764   2.399  0.00  0.00    +0.173 C 
BRANCH  19  20
ATOM     20  C   UNL     1      -8.752  -3.245   2.997  0.00  0.00    +0.230 C 
ATOM     21  O   UNL     1      -9.665  -3.580   2.273  0.00  0.00    -0.274 OA
ATOM     22  N   UNL     1      -8.896  -3.304   4.336  0.00  0.00    -0.255 N 
ATOM     23  H   UNL     1      -8.165  -3.036   4.915  0.00  0.00    +0.158 HD
BRANCH  22  24
ATOM     24  C   UNL     1     -10.088  -3.745   4.885  0.00  0.00    +0.206 A 
ATOM     25  C   UNL     1     -10.368  -3.848   6.226  0.00  0.00    +0.110 A 
ATOM     26  C   UNL     1     -11.757  -4.364   6.304  0.00  0.00    +0.053 A 
ATOM     27  C   UNL     1     -12.332  -4.576   7.636  0.00  0.00    +0.070 A 
ATOM     28  N   UNL     1     -11.624  -4.312   8.691  0.00  0.00    -0.175 NA
ATOM     29  N   UNL     1     -10.319  -3.827   8.642  0.00  0.00    -0.242 N 
ATOM     30  H   UNL     1      -9.856  -3.654   9.477  0.00  0.00    +0.192 HD
ATOM     31  C   UNL     1      -9.672  -3.588   7.482  0.00  0.00    +0.277 A 
ATOM     32  O   UNL     1      -8.530  -3.164   7.483  0.00  0.00    -0.266 OA
ATOM     33  C   UNL     1     -13.738  -5.098   7.779  0.00  0.00    +0.068 C 
ATOM     34  C   UNL     1     -12.164  -4.517   5.026  0.00  0.00    +0.114 A 
ATOM     35  O   UNL     1     -11.171  -4.142   4.199  0.00  0.00    -0.445 OA
ATOM     36  C   UNL     1     -13.518  -5.020   4.595  0.00  0.00    +0.087 C 
ENDBRANCH  22  24
ENDBRANCH  19  20
ENDBRANCH   1  19
TORSDOF 9
