REMARK  Name = ZINC65477393
REMARK  9 active torsions:
REMARK  status: ('A' for Active; 'I' for Inactive)
REMARK    1  A    between atoms: C_1  and  C_2
REMARK    2  A    between atoms: N_5  and  C_8
REMARK    3  A    between atoms: C_8  and  C_9
REMARK    4  A    between atoms: C_8  and  C_10
REMARK    5  A    between atoms: C_10  and  N_11
REMARK    6  A    between atoms: N_14  and  C_15
REMARK    7  A    between atoms: C_15  and  C_16
REMARK    8  A    between atoms: C_21  and  C_22
REMARK    9  A    between atoms: C_22  and  N_23
REMARK                            x       y       z     vdW  Elec       q    Type
REMARK                         _______ _______ _______ _____ _____    ______ ____
ROOT
ATOM      1  N   UNL     1       2.670  -3.264   2.922  0.00  0.00    -0.301 N 
ATOM      2  C   UNL     1       3.080  -3.576   4.167  0.00  0.00    +0.300 C 
ATOM      3  O   UNL     1       4.182  -4.060   4.341  0.00  0.00    -0.253 OA
ATOM      4  N   UNL     1       2.268  -3.353   5.220  0.00  0.00    -0.295 N 
ATOM      5  H   UNL     1       1.790  -2.878   2.783  0.00  0.00    +0.150 HD
ATOM      6  H   UNL     1       1.389  -2.967   5.081  0.00  0.00    +0.151 HD
ENDROOT
BRANCH   1   7
ATOM      7  C   UNL     1       3.551  -3.507   1.778  0.00  0.00    +0.090 C 
BRANCH   7   8
ATOM      8  C   UNL     1       2.910  -2.938   0.510  0.00  0.00    -0.054 C 
ATOM      9  C   UNL     1       3.891  -3.063  -0.658  0.00  0.00    -0.012 C 
BRANCH   8  14
ATOM     10  C   UNL     1       2.237   2.722   0.347  0.00  0.00    +0.007 C 
ATOM     11  C   UNL     1       2.649   1.286   0.017  0.00  0.00    -0.018 C 
ATOM     12  C   UNL     1       3.476   0.712   1.171  0.00  0.00    -0.016 C 
ATOM     13  C   UNL     1       3.817  -0.749   0.871  0.00  0.00    -0.078 C 
ATOM     14  N   UNL     1       2.579  -1.523   0.721  0.00  0.00    +0.382 N 
ATOM     15  C   UNL     1       1.815  -1.024  -0.429  0.00  0.00    -0.078 C 
ATOM     16  C   UNL     1       1.397   0.426  -0.178  0.00  0.00    -0.016 C 
ATOM     17  H   UNL     1       2.023  -1.431   1.558  0.00  0.00    -0.081 HD
ENDBRANCH   8  14
ENDBRANCH   7   8
ENDBRANCH   1   7
BRANCH   4  18
ATOM     18  C   UNL     1       2.714  -3.693   6.573  0.00  0.00    +0.141 C 
BRANCH  18  19
ATOM     19  C   UNL     1       1.629  -3.347   7.561  0.00  0.00    -0.025 A 
ATOM     20  C   UNL     1       1.725  -2.193   8.317  0.00  0.00    +0.005 A 
ATOM     21  C   UNL     1       0.730  -1.876   9.223  0.00  0.00    +0.000 A 
ATOM     22  C   UNL     1      -0.360  -2.713   9.373  0.00  0.00    +0.000 A 
ATOM     23  C   UNL     1      -0.456  -3.865   8.616  0.00  0.00    +0.006 A 
ATOM     24  C   UNL     1       0.537  -4.181   7.707  0.00  0.00    -0.023 A 
BRANCH  24  25
ATOM     25  C   UNL     1       0.430  -5.435   6.879  0.00  0.00    +0.158 C 
BRANCH  25  26
ATOM     26  N   UNL     1       1.116  -6.533   7.564  0.00  0.00    -0.332 N 
ATOM     27  C   UNL     1       2.398  -6.956   7.338  0.00  0.00    +0.107 A 
ATOM     28  C   UNL     1       2.623  -7.983   8.181  0.00  0.00    +0.130 A 
ATOM     29  N   UNL     1       1.510  -8.180   8.901  0.00  0.00    -0.244 NA
ATOM     30  C   UNL     1       0.604  -7.312   8.541  0.00  0.00    +0.199 A 
ENDBRANCH  25  26
ENDBRANCH  24  25
ENDBRANCH  18  19
ENDBRANCH   4  18
TORSDOF 7
