REMARK  Name = ZINC63600858
REMARK  7 active torsions:
REMARK  status: ('A' for Active; 'I' for Inactive)
REMARK    1  A    between atoms: C_1  and  C_2
REMARK    2  A    between atoms: C_5  and  S_8
REMARK    3  A    between atoms: S_8  and  N_11
REMARK    4  A    between atoms: N_11  and  C_12
REMARK    5  A    between atoms: C_15  and  C_34
REMARK    6  A    between atoms: C_17  and  N_21
REMARK    7  A    between atoms: C_22  and  C_24
REMARK                            x       y       z     vdW  Elec       q    Type
REMARK                         _______ _______ _______ _____ _____    ______ ____
ROOT
ATOM      1  C   UNL     1       1.956  -6.346  -0.073  0.00  0.00    +0.202 A 
ATOM      2  N   UNL     1       3.145  -6.903  -0.071  0.00  0.00    -0.222 NA
ATOM      3  C   UNL     1       3.318  -8.245  -0.073  0.00  0.00    +0.083 A 
ATOM      4  C   UNL     1       4.533  -8.967  -0.072  0.00  0.00    -0.022 A 
ATOM      5  C   UNL     1       4.539 -10.327  -0.076  0.00  0.00    +0.028 A 
ATOM      6  C   UNL     1       3.355 -11.061  -0.080  0.00  0.00    +0.035 A 
ATOM      7  C   UNL     1       2.140 -10.386  -0.081  0.00  0.00    +0.040 A 
ATOM      8  C   UNL     1       2.132  -9.014  -0.077  0.00  0.00    +0.043 A 
ATOM      9  S   UNL     1       0.870  -7.764  -0.071  0.00  0.00    -0.049 S 
ATOM     10  C   UNL     1       5.842  -8.219  -0.068  0.00  0.00    +0.046 C 
ENDROOT
BRANCH   6  11
ATOM     11  N   UNL     1       3.388 -12.461  -0.084  0.00  0.00    -0.283 N 
ATOM     12  C   UNL     1       2.447 -13.160   0.582  0.00  0.00    +0.248 C 
ATOM     13  O   UNL     1       1.524 -12.580   1.113  0.00  0.00    -0.273 OA
ATOM     14  H   UNL     1       4.088 -12.928  -0.566  0.00  0.00    +0.155 HD
BRANCH  12  15
ATOM     15  C   UNL     1       2.542 -14.661   0.665  0.00  0.00    +0.241 C 
ATOM     16  C   UNL     1       1.981 -15.303  -0.578  0.00  0.00    -0.012 C 
ATOM     17  C   UNL     1       0.951 -16.040  -0.149  0.00  0.00    +0.065 C 
ATOM     18  C   UNL     1       0.087 -16.866  -1.077  0.00  0.00    +0.057 C 
ATOM     19  C   UNL     1       0.306 -16.375  -2.513  0.00  0.00    +0.006 C 
ATOM     20  C   UNL     1       1.807 -16.315  -2.814  0.00  0.00    +0.005 C 
ATOM     21  C   UNL     1       2.439 -15.177  -2.001  0.00  0.00    +0.035 C 
ATOM     22  N   UNL     1       0.824 -15.923   1.191  0.00  0.00    -0.158 NA
ATOM     23  N   UNL     1       1.661 -15.183   1.728  0.00  0.00    -0.170 NA
ENDBRANCH  12  15
ENDBRANCH   6  11
BRANCH   1  24
ATOM     24  N   UNL     1       1.629  -5.004  -0.070  0.00  0.00    -0.070 NA
BRANCH  24  25
ATOM     25  S   UNL     1       0.040  -4.540  -0.065  0.00  0.00    +0.093 S 
ATOM     26  O   UNL     1      -0.501  -4.956   1.181  0.00  0.00    -0.148 OA
ATOM     27  O   UNL     1      -0.508  -4.953  -1.310  0.00  0.00    -0.148 OA
BRANCH  25  32
ATOM     28  C   UNL     1      -0.059   1.493  -0.057  0.00  0.00    +0.044 C 
ATOM     29  C   UNL     1      -0.034  -0.014  -0.059  0.00  0.00    -0.050 A 
ATOM     30  C   UNL     1      -0.025  -0.703  -1.257  0.00  0.00    +0.005 A 
ATOM     31  C   UNL     1      -0.002  -2.085  -1.259  0.00  0.00    +0.029 A 
ATOM     32  C   UNL     1       0.012  -2.778  -0.063  0.00  0.00    +0.110 A 
ATOM     33  C   UNL     1       0.004  -2.088   1.135  0.00  0.00    +0.029 A 
ATOM     34  C   UNL     1      -0.015  -0.706   1.137  0.00  0.00    +0.005 A 
ENDBRANCH  25  32
ENDBRANCH  24  25
ENDBRANCH   1  24
TORSDOF 5
