REMARK  Name = ZINC37193731
REMARK  9 active torsions:
REMARK  status: ('A' for Active; 'I' for Inactive)
REMARK    1  A    between atoms: C_1  and  C_2
REMARK    2  A    between atoms: C_4  and  N_20
REMARK    3  A    between atoms: C_7  and  S_8
REMARK    4  A    between atoms: S_8  and  C_9
REMARK    5  A    between atoms: C_9  and  C_10
REMARK    6  A    between atoms: N_15  and  C_16
REMARK    7  A    between atoms: C_16  and  C_17
REMARK    8  A    between atoms: C_16  and  C_18
REMARK    9  A    between atoms: C_16  and  C_19
REMARK                            x       y       z     vdW  Elec       q    Type
REMARK                         _______ _______ _______ _____ _____    ______ ____
ROOT
ATOM      1  C   UNL     1       0.056  -1.144   3.985  0.00  0.00    +0.170 C 
ENDROOT
BRANCH   1   2
ATOM      2  C   UNL     1       0.061  -0.526   5.359  0.00  0.00    +0.231 C 
ATOM      3  O   UNL     1       0.046   0.680   5.481  0.00  0.00    -0.274 OA
ATOM      4  N   UNL     1       0.082  -1.314   6.452  0.00  0.00    -0.239 N 
ATOM      5  C   UNL     1       0.087  -0.762   7.681  0.00  0.00    +0.306 C 
ATOM      6  O   UNL     1       0.072   0.448   7.804  0.00  0.00    -0.252 OA
ATOM      7  N   UNL     1       0.108  -1.550   8.774  0.00  0.00    -0.294 N 
ATOM      8  H   UNL     1       0.094  -2.279   6.354  0.00  0.00    +0.159 HD
ATOM      9  H   UNL     1       0.119  -2.515   8.677  0.00  0.00    +0.151 HD
BRANCH   7  10
ATOM     10  C   UNL     1       0.113  -0.949  10.111  0.00  0.00    +0.028 C 
ATOM     11  C   UNL     1      -1.146  -0.099  10.292  0.00  0.00    +0.031 C 
ATOM     12  C   UNL     1       0.138  -2.055  11.167  0.00  0.00    +0.031 C 
ATOM     13  C   UNL     1       1.352  -0.065  10.268  0.00  0.00    +0.031 C 
ENDBRANCH   7  10
ENDBRANCH   1   2
BRANCH   1  14
ATOM     14  S   UNL     1       0.026   0.168   2.732  0.00  0.00    -0.116 S 
BRANCH  14  21
ATOM     15  C   UNL     1      -0.018   1.503   0.010  0.00  0.00    +0.045 C 
ATOM     16  C   UNL     1       0.002  -0.004   0.002  0.00  0.00    -0.035 A 
ATOM     17  C   UNL     1       0.006  -0.688  -1.198  0.00  0.00    +0.027 A 
ATOM     18  C   UNL     1       0.024  -2.076  -1.205  0.00  0.00    +0.025 A 
ATOM     19  C   UNL     1       0.039  -2.778  -0.006  0.00  0.00    +0.024 A 
ATOM     20  C   UNL     1       0.035  -2.094   1.193  0.00  0.00    +0.017 A 
ATOM     21  C   UNL     1       0.023  -0.705   1.201  0.00  0.00    +0.011 A 
BRANCH  18  22
ATOM     22  N   UNL     1       0.027  -2.770  -2.422  0.00  0.00    -0.358 N 
ATOM     23  H   UNL     1       0.017  -2.280  -3.259  0.00  0.00    +0.142 HD
ATOM     24  H   UNL     1       0.040  -3.740  -2.427  0.00  0.00    +0.142 HD
ENDBRANCH  18  22
ENDBRANCH  14  21
ENDBRANCH   1  14
TORSDOF 5
