REMARK  Name = ZINC33935982
REMARK  9 active torsions:
REMARK  status: ('A' for Active; 'I' for Inactive)
REMARK    1  A    between atoms: C_1  and  C_2
REMARK    2  A    between atoms: C_2  and  O_3
REMARK    3  A    between atoms: O_3  and  C_4
REMARK    4  A    between atoms: C_4  and  C_6
REMARK    5  A    between atoms: C_8  and  C_20
REMARK    6  A    between atoms: C_14  and  C_15
REMARK    7  A    between atoms: C_14  and  O_19
REMARK    8  A    between atoms: C_22  and  N_27
REMARK    9  A    between atoms: C_25  and  O_26
REMARK                            x       y       z     vdW  Elec       q    Type
REMARK                         _______ _______ _______ _____ _____    ______ ____
ROOT
ATOM      1  C   UNL     1      -2.881  -2.427   0.017  0.00  0.00    +0.181 C 
ATOM      2  C   UNL     1      -2.784  -3.956   0.017  0.00  0.00    +0.127 C 
ATOM      3  N   UNL     1      -2.145  -4.396   1.258  0.00  0.00    -0.291 N 
ATOM      4  C   UNL     1      -2.254  -3.685   2.390  0.00  0.00    +0.302 C 
ATOM      5  O   UNL     1      -1.713  -4.101   3.396  0.00  0.00    -0.253 OA
ATOM      6  N   UNL     1      -2.938  -2.532   2.455  0.00  0.00    -0.264 N 
ATOM      7  C   UNL     1      -3.623  -1.981   1.281  0.00  0.00    +0.246 C 
ATOM      8  H   UNL     1      -1.633  -5.220   1.262  0.00  0.00    +0.151 HD
ATOM      9  H   UNL     1      -2.979  -2.052   3.297  0.00  0.00    +0.153 HD
ENDROOT
BRANCH   2  10
ATOM     10  C   UNL     1      -1.962  -4.409  -1.163  0.00  0.00    +0.017 A 
ATOM     11  C   UNL     1      -0.637  -4.758  -0.988  0.00  0.00    +0.041 A 
ATOM     12  C   UNL     1       0.118  -5.173  -2.070  0.00  0.00    +0.127 A 
ATOM     13  C   UNL     1      -0.452  -5.240  -3.328  0.00  0.00    +0.036 A 
ATOM     14  C   UNL     1      -1.776  -4.892  -3.507  0.00  0.00    +0.048 A 
ATOM     15  C   UNL     1      -2.537  -4.481  -2.423  0.00  0.00    +0.122 A 
BRANCH  12  16
ATOM     16  N   UNL     1       1.538  -5.546  -1.880  0.00  0.00    +0.056 N 
ATOM     17  O   UNL     1       2.037  -5.487  -0.781  0.00  0.00    -0.126 OA
ATOM     18  O   UNL     1       2.199  -5.909  -2.825  0.00  0.00    -0.126 OA
ENDBRANCH  12  16
BRANCH  15  19
ATOM     19  O   UNL     1      -3.842  -4.143  -2.596  0.00  0.00    -0.506 OA
ATOM     20  H   UNL     1      -3.982  -3.209  -2.802  0.00  0.00    +0.292 HD
ENDBRANCH  15  19
ENDBRANCH   2  10
BRANCH   7  21
ATOM     21  C   UNL     1      -5.062  -2.500   1.239  0.00  0.00    +0.436 C 
ATOM     22  F   UNL     1      -5.051  -3.898   1.173  0.00  0.00    -0.166 F 
ATOM     23  F   UNL     1      -5.739  -2.093   2.394  0.00  0.00    -0.166 F 
ATOM     24  F   UNL     1      -5.711  -1.986   0.112  0.00  0.00    -0.166 F 
ENDBRANCH   7  21
BRANCH   1  25
ATOM     25  C   UNL     1      -1.496  -1.832   0.006  0.00  0.00    +0.317 C 
ATOM     26  O   UNL     1      -0.528  -2.555  -0.007  0.00  0.00    -0.250 OA
BRANCH  25  27
ATOM     27  O   UNL     1      -1.339  -0.499   0.012  0.00  0.00    -0.465 OA
BRANCH  27  29
ATOM     28  C   UNL     1      -0.019   1.526   0.010  0.00  0.00    +0.048 C 
ATOM     29  C   UNL     1       0.002  -0.004   0.002  0.00  0.00    +0.229 C 
ENDBRANCH  27  29
ENDBRANCH  25  27
ENDBRANCH   1  25
BRANCH   7  30
ATOM     30  O   UNL     1      -3.632  -0.554   1.351  0.00  0.00    -0.364 OA
ATOM     31  H   UNL     1      -4.086  -0.201   2.129  0.00  0.00    +0.212 HD
ENDBRANCH   7  30
TORSDOF 8
