REMARK  Name = ZINC08323937
REMARK  5 active torsions:
REMARK  status: ('A' for Active; 'I' for Inactive)
REMARK    1  A    between atoms: C_1  and  C_2
REMARK    2  A    between atoms: C_2  and  O_3
REMARK    3  A    between atoms: O_3  and  C_4
REMARK    4  A    between atoms: C_7  and  C_10
REMARK    5  A    between atoms: N_11  and  N_12
REMARK                            x       y       z     vdW  Elec       q    Type
REMARK                         _______ _______ _______ _____ _____    ______ ____
ROOT
ATOM      1  C   UNL     1      -2.500   1.008   0.019  0.00  0.00    +0.138 C 
ATOM      2  N   UNL     1      -3.631   1.645   0.028  0.00  0.00    -0.186 NA
ENDROOT
BRANCH   2   3
ATOM      3  N   UNL     1      -4.837   0.931   0.029  0.00  0.00    -0.190 N 
ATOM      4  C   UNL     1      -6.037   1.606   0.038  0.00  0.00    +0.309 A 
ATOM      5  N   UNL     1      -6.164   2.909   0.052  0.00  0.00    -0.194 NA
ATOM      6  C   UNL     1      -7.489   3.218   0.056  0.00  0.00    +0.111 A 
ATOM      7  C   UNL     1      -8.199   4.420   0.067  0.00  0.00    +0.031 A 
ATOM      8  C   UNL     1      -9.576   4.400   0.074  0.00  0.00    +0.002 A 
ATOM      9  C   UNL     1     -10.261   3.194   0.070  0.00  0.00    +0.004 A 
ATOM     10  C   UNL     1      -9.571   1.998   0.058  0.00  0.00    +0.048 A 
ATOM     11  C   UNL     1      -8.186   2.000   0.051  0.00  0.00    +0.157 A 
ATOM     12  O   UNL     1      -7.249   1.024   0.041  0.00  0.00    -0.423 OA
ATOM     13  H   UNL     1      -4.826  -0.039   0.023  0.00  0.00    +0.179 HD
ENDBRANCH   2   3
BRANCH   1  17
ATOM     14  C   UNL     1       1.153   3.171   0.008  0.00  0.00    +0.121 A 
ATOM     15  C   UNL     1       1.171   1.782   0.001  0.00  0.00    +0.046 A 
ATOM     16  C   UNL     1      -0.013   1.076   0.008  0.00  0.00    +0.013 A 
ATOM     17  C   UNL     1      -1.232   1.759   0.017  0.00  0.00    -0.005 A 
ATOM     18  C   UNL     1      -1.244   3.156   0.030  0.00  0.00    +0.013 A 
ATOM     19  C   UNL     1      -0.056   3.854   0.023  0.00  0.00    +0.046 A 
BRANCH  14  20
ATOM     20  O   UNL     1       2.322   3.863   0.001  0.00  0.00    -0.492 OA
BRANCH  20  22
ATOM     21  C   UNL     1       3.639   5.889  -0.001  0.00  0.00    +0.048 C 
ATOM     22  C   UNL     1       2.232   5.289   0.009  0.00  0.00    +0.225 C 
ENDBRANCH  20  22
ENDBRANCH  14  20
ENDBRANCH   1  17
TORSDOF 4
