REMARK  Name = ZINC16842182
REMARK  9 active torsions:
REMARK  status: ('A' for Active; 'I' for Inactive)
REMARK    1  A    between atoms: C_1  and  C_2
REMARK    2  A    between atoms: C_5  and  N_9
REMARK    3  A    between atoms: C_7  and  C_8
REMARK    4  A    between atoms: C_10  and  C_12
REMARK    5  A    between atoms: C_12  and  S_13
REMARK    6  A    between atoms: S_13  and  C_14
REMARK    7  A    between atoms: C_17  and  S_21
REMARK    8  A    between atoms: C_18  and  N_20
REMARK    9  A    between atoms: S_21  and  C_24
REMARK                            x       y       z     vdW  Elec       q    Type
REMARK                         _______ _______ _______ _____ _____    ______ ____
ROOT
ATOM      1  C   UNL     1      -3.200   4.966   4.433  0.00  0.00    +0.190 A 
ATOM      2  N   UNL     1      -2.921   5.970   3.612  0.00  0.00    -0.228 NA
ATOM      3  C   UNL     1      -2.662   5.750   2.332  0.00  0.00    +0.144 A 
ATOM      4  C   UNL     1      -2.694   4.457   1.848  0.00  0.00    +0.152 A 
ATOM      5  C   UNL     1      -2.990   3.420   2.735  0.00  0.00    +0.146 A 
ATOM      6  N   UNL     1      -3.235   3.711   4.009  0.00  0.00    -0.205 NA
ENDROOT
BRANCH   5   7
ATOM      7  N   UNL     1      -3.027   2.107   2.295  0.00  0.00    -0.342 N 
ATOM      8  H   UNL     1      -2.847   1.902   1.364  0.00  0.00    +0.144 HD
ATOM      9  H   UNL     1      -3.234   1.393   2.918  0.00  0.00    +0.144 HD
ENDBRANCH   5   7
BRANCH   4  10
ATOM     10  S   UNL     1      -2.361   4.122   0.150  0.00  0.00    +0.036 S 
ATOM     11  O   UNL     1      -2.075   5.372  -0.462  0.00  0.00    -0.164 OA
ATOM     12  O   UNL     1      -3.402   3.270  -0.307  0.00  0.00    -0.164 OA
BRANCH  10  13
ATOM     13  C   UNL     1      -0.874   3.178   0.087  0.00  0.00    +0.131 A 
ATOM     14  C   UNL     1      -0.716   1.833   0.115  0.00  0.00    +0.035 A 
ATOM     15  C   UNL     1       0.561   1.307   0.057  0.00  0.00    +0.009 A 
ATOM     16  C   UNL     1       1.617   2.152  -0.039  0.00  0.00    +0.047 A 
ATOM     17  S   UNL     1       0.813   3.747  -0.040  0.00  0.00    -0.078 S 
ENDBRANCH  10  13
ENDBRANCH   4  10
BRANCH   1  18
ATOM     18  S   UNL     1      -3.530   5.310   6.129  0.00  0.00    -0.077 S 
BRANCH  18  19
ATOM     19  C   UNL     1      -3.348   7.111   6.126  0.00  0.00    +0.173 C 
BRANCH  19  21
ATOM     20  N   UNL     1      -3.511   8.966   7.754  0.00  0.00    -0.285 N 
ATOM     21  C   UNL     1      -3.593   7.642   7.515  0.00  0.00    +0.227 C 
ATOM     22  O   UNL     1      -3.865   6.879   8.417  0.00  0.00    -0.275 OA
ATOM     23  H   UNL     1      -3.219   9.569   7.052  0.00  0.00    +0.155 HD
BRANCH  20  28
ATOM     24  C   UNL     1      -4.869  11.015  12.867  0.00  0.00    +0.044 C 
ATOM     25  C   UNL     1      -4.508  10.471  11.508  0.00  0.00    -0.047 A 
ATOM     26  C   UNL     1      -5.174   9.367  11.008  0.00  0.00    +0.005 A 
ATOM     27  C   UNL     1      -4.850   8.869   9.762  0.00  0.00    +0.023 A 
ATOM     28  C   UNL     1      -3.846   9.472   9.015  0.00  0.00    +0.034 A 
ATOM     29  C   UNL     1      -3.179  10.580   9.520  0.00  0.00    +0.027 A 
ATOM     30  C   UNL     1      -3.513  11.077  10.765  0.00  0.00    -0.046 A 
ATOM     31  C   UNL     1      -2.789  12.280  11.313  0.00  0.00    +0.044 C 
ENDBRANCH  20  28
ENDBRANCH  19  21
ENDBRANCH  18  19
ENDBRANCH   1  18
TORSDOF 7
