REMARK  Name = ZINC39867003
REMARK  10 active torsions:
REMARK  status: ('A' for Active; 'I' for Inactive)
REMARK    1  A    between atoms: C_1  and  C_2
REMARK    2  A    between atoms: C_2  and  C_32
REMARK    3  A    between atoms: C_4  and  N_10
REMARK    4  A    between atoms: C_6  and  C_8
REMARK    5  A    between atoms: C_6  and  C_9
REMARK    6  A    between atoms: C_11  and  C_13
REMARK    7  A    between atoms: C_13  and  C_14
REMARK    8  A    between atoms: C_14  and  C_15
REMARK    9  A    between atoms: C_15  and  C_16
REMARK   10  A    between atoms: C_24  and  C_26
REMARK                            x       y       z     vdW  Elec       q    Type
REMARK                         _______ _______ _______ _____ _____    ______ ____
ROOT
ATOM      1  C   UNL     1       5.623  -0.153  -4.762  0.00  0.00    +0.014 C 
ENDROOT
BRANCH   1   2
ATOM      2  C   UNL     1       4.312  -0.866  -4.426  0.00  0.00    +0.096 C 
BRANCH   2   4
ATOM      3  N   UNL     1       2.615  -0.819  -2.626  0.00  0.00    -0.313 N 
ATOM      4  C   UNL     1       3.770  -0.334  -3.123  0.00  0.00    +0.213 C 
ATOM      5  O   UNL     1       4.374   0.530  -2.523  0.00  0.00    -0.276 OA
ATOM      6  H   UNL     1       2.133  -1.510  -3.106  0.00  0.00    +0.149 HD
BRANCH   3  10
ATOM      7  C   UNL     1      -0.019   1.528   0.010  0.00  0.00    -0.010 C 
ATOM      8  C   UNL     1       0.002  -0.004   0.002  0.00  0.00    -0.072 C 
ATOM      9  C   UNL     1       0.573  -0.505  -1.321  0.00  0.00    +0.009 C 
ATOM     10  C   UNL     1       2.088  -0.301  -1.357  0.00  0.00    +0.070 C 
ATOM     11  C   UNL     1       2.703  -1.086  -0.198  0.00  0.00    +0.009 C 
ATOM     12  C   UNL     1       2.147  -0.590   1.133  0.00  0.00    -0.072 C 
ATOM     13  N   UNL     1       0.697  -0.529   1.164  0.00  0.00    +0.386 N 
ATOM     14  C   UNL     1       2.769   0.766   1.481  0.00  0.00    -0.010 C 
ATOM     15  C   UNL     1       2.600  -1.589   2.223  0.00  0.00    -0.010 C 
ATOM     16  C   UNL     1      -1.468  -0.478   0.079  0.00  0.00    -0.010 C 
ATOM     17  H   UNL     1       0.416   0.021   1.982  0.00  0.00    -0.084 HD
ATOM     18  H   UNL     1       0.341  -1.472   1.351  0.00  0.00    -0.084 HD
ENDBRANCH   3  10
ENDBRANCH   2   4
ENDBRANCH   1   2
BRANCH   1  19
ATOM     19  C   UNL     1       6.173  -0.692  -6.084  0.00  0.00    +0.038 C 
BRANCH  19  20
ATOM     20  C   UNL     1       7.464   0.010  -6.415  0.00  0.00    -0.013 A 
ATOM     21  C   UNL     1       8.808  -0.409  -6.021  0.00  0.00    +0.003 A 
ATOM     22  C   UNL     1       9.309  -1.485  -5.283  0.00  0.00    +0.010 A 
ATOM     23  C   UNL     1      10.655  -1.602  -5.083  0.00  0.00    +0.001 A 
ATOM     24  C   UNL     1      11.531  -0.660  -5.606  0.00  0.00    +0.002 A 
ATOM     25  C   UNL     1      11.059   0.409  -6.336  0.00  0.00    +0.026 A 
ATOM     26  C   UNL     1       9.693   0.549  -6.554  0.00  0.00    +0.047 A 
ATOM     27  N   UNL     1       8.934   1.482  -7.224  0.00  0.00    -0.353 N 
ATOM     28  C   UNL     1       7.602   1.148  -7.140  0.00  0.00    +0.069 A 
ATOM     29  H   UNL     1       9.287   2.257  -7.689  0.00  0.00    +0.166 HD
BRANCH  28  30
ATOM     30  C   UNL     1       6.491   1.913  -7.744  0.00  0.00    +0.087 A 
ATOM     31  C   UNL     1       6.650   3.275  -8.006  0.00  0.00    +0.030 A 
ATOM     32  C   UNL     1       5.601   3.977  -8.573  0.00  0.00    +0.004 A 
ATOM     33  C   UNL     1       4.426   3.296  -8.860  0.00  0.00    +0.020 A 
ATOM     34  C   UNL     1       4.336   1.946  -8.574  0.00  0.00    +0.111 A 
ATOM     35  N   UNL     1       5.351   1.299  -8.039  0.00  0.00    -0.254 NA
ENDBRANCH  28  30
ENDBRANCH  19  20
ENDBRANCH   1  19
TORSDOF 6
