REMARK  Name = ZINC03415934
REMARK  8 active torsions:
REMARK  status: ('A' for Active; 'I' for Inactive)
REMARK    1  A    between atoms: C_1  and  C_2
REMARK    2  A    between atoms: C_5  and  S_9
REMARK    3  A    between atoms: C_6  and  C_8
REMARK    4  A    between atoms: S_9  and  C_10
REMARK    5  A    between atoms: C_13  and  N_16
REMARK    6  A    between atoms: C_17  and  C_19
REMARK    7  A    between atoms: C_19  and  N_20
REMARK    8  A    between atoms: C_29  and  C_31
REMARK                            x       y       z     vdW  Elec       q    Type
REMARK                         _______ _______ _______ _____ _____    ______ ____
ROOT
ATOM      1  N   UNL     1      -3.856  -3.966  -1.653  0.00  0.00    -0.284 N 
ATOM      2  C   UNL     1      -4.131  -4.860  -0.683  0.00  0.00    +0.239 C 
ATOM      3  O   UNL     1      -4.721  -5.885  -0.952  0.00  0.00    -0.273 OA
ATOM      4  H   UNL     1      -3.444  -3.117  -1.428  0.00  0.00    +0.155 HD
ENDROOT
BRANCH   1   8
ATOM      5  C   UNL     1      -4.776  -4.848  -5.624  0.00  0.00    +0.013 A 
ATOM      6  C   UNL     1      -5.606  -5.294  -4.603  0.00  0.00    +0.017 A 
ATOM      7  C   UNL     1      -5.301  -5.002  -3.289  0.00  0.00    +0.024 A 
ATOM      8  C   UNL     1      -4.165  -4.263  -2.987  0.00  0.00    +0.034 A 
ATOM      9  C   UNL     1      -3.338  -3.812  -4.008  0.00  0.00    +0.024 A 
ATOM     10  C   UNL     1      -3.639  -4.108  -5.322  0.00  0.00    +0.017 A 
BRANCH   5  11
ATOM     11  S   UNL     1      -5.164  -5.222  -7.302  0.00  0.00    -0.089 S 
BRANCH  11  16
ATOM     12  C   UNL     1      -8.177  -0.356  -9.221  0.00  0.00    +0.044 C 
ATOM     13  C   UNL     1      -7.425  -1.571  -8.742  0.00  0.00    -0.050 A 
ATOM     14  C   UNL     1      -7.049  -1.671  -7.414  0.00  0.00    +0.004 A 
ATOM     15  C   UNL     1      -6.360  -2.782  -6.972  0.00  0.00    +0.015 A 
ATOM     16  C   UNL     1      -6.044  -3.802  -7.862  0.00  0.00    +0.016 A 
ATOM     17  C   UNL     1      -6.419  -3.696  -9.196  0.00  0.00    -0.036 A 
ATOM     18  C   UNL     1      -7.112  -2.583  -9.630  0.00  0.00    +0.007 A 
ATOM     19  C   UNL     1      -6.073  -4.796 -10.166  0.00  0.00    +0.045 C 
ENDBRANCH  11  16
ENDBRANCH   5  11
ENDBRANCH   1   8
BRANCH   2  20
ATOM     20  C   UNL     1      -3.705  -4.587   0.737  0.00  0.00    +0.243 C 
BRANCH  20  21
ATOM     21  N   UNL     1      -4.118  -5.701   1.594  0.00  0.00    -0.219 N 
ATOM     22  C   UNL     1      -3.261  -6.729   1.760  0.00  0.00    +0.275 A 
ATOM     23  O   UNL     1      -2.173  -6.729   1.213  0.00  0.00    -0.266 OA
ATOM     24  C   UNL     1      -3.670  -7.849   2.619  0.00  0.00    +0.050 A 
ATOM     25  C   UNL     1      -2.860  -8.956   2.855  0.00  0.00    +0.014 A 
ATOM     26  C   UNL     1      -3.318  -9.966   3.673  0.00  0.00    +0.001 A 
ATOM     27  C   UNL     1      -4.573  -9.889   4.261  0.00  0.00    +0.001 A 
ATOM     28  C   UNL     1      -5.391  -8.801   4.040  0.00  0.00    +0.011 A 
ATOM     29  C   UNL     1      -4.948  -7.771   3.218  0.00  0.00    +0.022 A 
ATOM     30  C   UNL     1      -5.759  -6.576   2.930  0.00  0.00    +0.180 A 
ATOM     31  N   UNL     1      -5.271  -5.647   2.143  0.00  0.00    -0.160 NA
BRANCH  30  32
ATOM     32  C   UNL     1      -7.102  -6.426   3.519  0.00  0.00    +0.407 C 
ATOM     33  O   UNL     1      -7.547  -7.292   4.247  0.00  0.00    -0.239 OA
ATOM     34  O   UNL     1      -7.837  -5.329   3.251  0.00  0.00    -0.239 OA
ENDBRANCH  30  32
ENDBRANCH  20  21
ENDBRANCH   2  20
TORSDOF 6
