REMARK  Name = ZINC21789191
REMARK  2 active torsions:
REMARK  status: ('A' for Active; 'I' for Inactive)
REMARK    1  A    between atoms: C_9  and  C_12
REMARK    2  A    between atoms: N_14  and  C_15
REMARK                            x       y       z     vdW  Elec       q    Type
REMARK                         _______ _______ _______ _____ _____    ______ ____
ROOT
ATOM      1  C   UNL     1       2.410  -2.735  -0.138  0.00  0.00    +0.260 C 
ATOM      2  O   UNL     1       3.453  -2.115  -0.144  0.00  0.00    -0.271 OA
ATOM      3  N   UNL     1       1.238  -2.081  -0.021  0.00  0.00    -0.281 N 
ATOM      4  H   UNL     1       0.300  -2.646   0.076  0.00  0.00    +0.155 HD
ENDROOT
BRANCH   1  13
ATOM      5  C   UNL     1       4.527  -8.741  -0.204  0.00  0.00    +0.002 A 
ATOM      6  C   UNL     1       5.402  -7.910  -0.878  0.00  0.00    +0.004 A 
ATOM      7  C   UNL     1       5.146  -6.554  -0.968  0.00  0.00    +0.047 A 
ATOM      8  C   UNL     1       4.008  -6.022  -0.381  0.00  0.00    +0.142 A 
ATOM      9  C   UNL     1       3.127  -6.862   0.295  0.00  0.00    +0.070 A 
ATOM     10  C   UNL     1       3.389  -8.220   0.383  0.00  0.00    +0.026 A 
ATOM     11  N   UNL     1       1.971  -6.328   0.887  0.00  0.00    -0.337 N 
ATOM     12  C   UNL     1       1.892  -4.864   1.035  0.00  0.00    +0.155 C 
ATOM     13  C   UNL     1       2.426  -4.237  -0.260  0.00  0.00    +0.276 C 
ATOM     14  O   UNL     1       3.767  -4.687  -0.471  0.00  0.00    -0.476 OA
ATOM     15  H   UNL     1       1.143  -6.962   1.235  0.00  0.00    +0.146 HD
ENDBRANCH   1  13
BRANCH   3  16
ATOM     16  C   UNL     1       1.214  -0.681  -0.024  0.00  0.00    +0.052 A 
ATOM     17  C   UNL     1       2.237   0.031  -0.638  0.00  0.00    +0.026 A 
ATOM     18  C   UNL     1       2.211   1.412  -0.640  0.00  0.00    +0.022 A 
ATOM     19  C   UNL     1       1.168   2.087  -0.031  0.00  0.00    +0.042 A 
ATOM     20  C   UNL     1       0.147   1.381   0.582  0.00  0.00    +0.041 A 
ATOM     21  C   UNL     1       0.168  -0.001   0.586  0.00  0.00    +0.064 A 
ATOM     22 CL   UNL     1      -1.113  -0.886   1.354  0.00  0.00    -0.082 Cl
ATOM     23 CL   UNL     1       1.139   3.823  -0.036  0.00  0.00    -0.083 Cl
ENDBRANCH   3  16
TORSDOF 2
