REMARK  Name = ZINC28240576
REMARK  5 active torsions:
REMARK  status: ('A' for Active; 'I' for Inactive)
REMARK    1  A    between atoms: C_1  and  N_2
REMARK    2  A    between atoms: C_4  and  S_10
REMARK    3  A    between atoms: C_6  and  C_7
REMARK    4  A    between atoms: S_10  and  N_13
REMARK    5  A    between atoms: N_13  and  C_14
REMARK                            x       y       z     vdW  Elec       q    Type
REMARK                         _______ _______ _______ _____ _____    ______ ____
ROOT
ATOM      1  S   UNL     1       3.729   3.187  -0.732  0.00  0.00    +0.093 S 
ATOM      2  O   UNL     1       4.805   4.083  -0.491  0.00  0.00    -0.148 OA
ATOM      3  O   UNL     1       3.773   1.821  -0.344  0.00  0.00    -0.148 OA
ENDROOT
BRANCH   1   7
ATOM      4  C   UNL     1       3.551   4.678  -5.778  0.00  0.00    +0.149 C 
ATOM      5  N   UNL     1       3.378   3.861  -4.574  0.00  0.00    -0.344 N 
ATOM      6  C   UNL     1       3.759   4.211  -3.321  0.00  0.00    +0.115 A 
ATOM      7  C   UNL     1       3.437   3.207  -2.470  0.00  0.00    +0.128 A 
ATOM      8  C   UNL     1       2.838   2.188  -3.216  0.00  0.00    +0.061 A 
ATOM      9  C   UNL     1       2.802   2.612  -4.527  0.00  0.00    +0.106 A 
BRANCH   9  10
ATOM     10  C   UNL     1       2.257   1.866  -5.665  0.00  0.00    +0.258 C 
ATOM     11  O   UNL     1       2.201   2.386  -6.764  0.00  0.00    -0.269 OA
ATOM     12  N   UNL     1       1.817   0.603  -5.495  0.00  0.00    -0.324 N 
ATOM     13  H   UNL     1       1.408   0.043  -6.349  0.00  0.00    +0.145 HD
ATOM     14  H   UNL     1       1.867   0.132  -4.502  0.00  0.00    +0.145 HD
ENDBRANCH   9  10
ENDBRANCH   1   7
BRANCH   1  15
ATOM     15  N   UNL     1       2.394   3.844  -0.004  0.00  0.00    -0.096 NA
BRANCH  15  16
ATOM     16  C   UNL     1       1.144   3.251  -0.176  0.00  0.00    +0.098 A 
ATOM     17  C   UNL     1       1.032   1.881  -0.264  0.00  0.00    +0.029 A 
ATOM     18  C   UNL     1      -0.210   1.276  -0.435  0.00  0.00    +0.003 A 
ATOM     19  C   UNL     1      -1.346   2.023  -0.526  0.00  0.00    +0.010 A 
ATOM     20  C   UNL     1      -1.274   3.422  -0.436  0.00  0.00    +0.000 A 
ATOM     21  C   UNL     1      -0.017   4.051  -0.261  0.00  0.00    +0.071 A 
ATOM     22  N   UNL     1       0.056   5.382  -0.179  0.00  0.00    -0.359 N 
ATOM     23  C   UNL     1      -1.018   6.130  -0.258  0.00  0.00    +0.083 A 
ATOM     24  C   UNL     1      -2.285   5.576  -0.430  0.00  0.00    +0.018 A 
ATOM     25  C   UNL     1      -2.430   4.221  -0.521  0.00  0.00    +0.011 A 
ATOM     26  H   UNL     1       1.031   5.872  -0.042  0.00  0.00    +0.165 HD
ENDBRANCH  15  16
ENDBRANCH   1  15
TORSDOF 4
