REMARK  Name = ZINC63783146
REMARK  2 active torsions:
REMARK  status: ('A' for Active; 'I' for Inactive)
REMARK    1  A    between atoms: C_4  and  C_8
REMARK    2  A    between atoms: C_14  and  C_17
REMARK                            x       y       z     vdW  Elec       q    Type
REMARK                         _______ _______ _______ _____ _____    ______ ____
ROOT
ATOM      1  C   UNL     1       3.697  -0.686  -0.037  0.00  0.00    +0.185 A 
ATOM      2  N   UNL     1       4.886  -0.137  -0.040  0.00  0.00    -0.127 NA
ATOM      3  N   UNL     1       5.792  -1.050  -0.068  0.00  0.00    -0.120 NA
ATOM      4  C   UNL     1       5.231  -2.221  -0.101  0.00  0.00    +0.211 A 
ATOM      5  N   UNL     1       3.868  -2.067  -0.046  0.00  0.00    -0.220 N 
ATOM      6  N   UNL     1       3.075  -3.175   0.001  0.00  0.00    -0.265 N 
ATOM      7  C   UNL     1       3.708  -4.423  -0.503  0.00  0.00    +0.184 C 
ATOM      8  S   UNL     1       5.471  -3.983  -0.186  0.00  0.00    -0.058 S 
ATOM      9  H   UNL     1       2.697  -3.309   0.927  0.00  0.00    +0.168 HD
ENDROOT
BRANCH   1  13
ATOM     10  C   UNL     1      -0.017   1.381   0.010  0.00  0.00    +0.041 A 
ATOM     11  C   UNL     1       1.168   2.095   0.002  0.00  0.00    +0.042 A 
ATOM     12  C   UNL     1       2.379   1.430  -0.013  0.00  0.00    +0.134 A 
ATOM     13  C   UNL     1       2.405   0.032  -0.021  0.00  0.00    +0.059 A 
ATOM     14  C   UNL     1       1.206  -0.682  -0.013  0.00  0.00    +0.052 A 
ATOM     15  C   UNL     1       0.002  -0.004   0.002  0.00  0.00    +0.124 A 
ATOM     16  F   UNL     1      -1.159  -0.694   0.010  0.00  0.00    -0.205 F 
ATOM     17  F   UNL     1       3.535   2.129  -0.021  0.00  0.00    -0.205 F 
ENDBRANCH   1  13
BRANCH   7  18
ATOM     18  C   UNL     1       3.446  -4.624  -1.996  0.00  0.00    +0.198 C 
ATOM     19  C   UNL     1       4.047  -5.934  -2.476  0.00  0.00    +0.044 C 
ATOM     20  C   UNL     1       4.946  -5.558  -3.392  0.00  0.00    +0.147 C 
ATOM     21  N   UNL     1       4.963  -4.215  -3.523  0.00  0.00    -0.161 NA
ATOM     22  N   UNL     1       4.164  -3.615  -2.793  0.00  0.00    -0.176 NA
ATOM     23 BR   UNL     1       3.624  -7.687  -1.908  0.00  0.00    -0.051 Br
ENDBRANCH   7  18
TORSDOF 2
