REMARK  Name = ZINC33260786
REMARK  8 active torsions:
REMARK  status: ('A' for Active; 'I' for Inactive)
REMARK    1  A    between atoms: C_1  and  C_2
REMARK    2  A    between atoms: C_2  and  C_3
REMARK    3  A    between atoms: C_3  and  N_4
REMARK    4  A    between atoms: C_5  and  C_7
REMARK    5  A    between atoms: C_7  and  N_8
REMARK    6  A    between atoms: C_16  and  C_28
REMARK    7  A    between atoms: C_19  and  N_24
REMARK    8  A    between atoms: C_25  and  C_27
REMARK                            x       y       z     vdW  Elec       q    Type
REMARK                         _______ _______ _______ _____ _____    ______ ____
ROOT
ATOM      1  N   UNL     1       2.261  -5.080   3.104  0.00  0.00    -0.291 NA
ATOM      2  C   UNL     1       1.353  -4.710   4.198  0.00  0.00    +0.104 C 
ATOM      3  C   UNL     1       2.072  -4.894   5.539  0.00  0.00    +0.122 C 
ATOM      4  N   UNL     1       2.595  -6.267   5.603  0.00  0.00    -0.314 N 
ATOM      5  C   UNL     1       3.402  -6.758   4.475  0.00  0.00    +0.122 C 
ATOM      6  C   UNL     1       2.631  -6.500   3.176  0.00  0.00    +0.104 C 
ATOM      7  C   UNL     1       2.336  -7.078   6.699  0.00  0.00    +0.100 A 
ATOM      8  C   UNL     1       1.672  -6.528   7.805  0.00  0.00    +0.057 A 
ATOM      9  C   UNL     1       1.406  -7.329   8.908  0.00  0.00    +0.075 A 
ATOM     10  C   UNL     1       1.844  -8.725   8.845  0.00  0.00    +0.014 A 
ATOM     11  C   UNL     1       1.620  -9.607   9.906  0.00  0.00    +0.034 A 
ATOM     12  C   UNL     1       2.050 -10.914   9.803  0.00  0.00    +0.034 A 
ATOM     13  C   UNL     1       2.704 -11.358   8.648  0.00  0.00    +0.025 A 
ATOM     14  C   UNL     1       2.932 -10.516   7.605  0.00  0.00    +0.028 A 
ATOM     15  C   UNL     1       2.507  -9.177   7.677  0.00  0.00    +0.049 A 
ATOM     16  N   UNL     1       2.715  -8.335   6.661  0.00  0.00    -0.343 N 
ATOM     17  H   UNL     1       3.167  -8.663   5.868  0.00  0.00    +0.167 HD
ENDROOT
BRANCH  12  18
ATOM     18  N   UNL     1       1.830 -11.802  10.860  0.00  0.00    -0.286 N 
ATOM     19  C   UNL     1       1.596 -13.105  10.609  0.00  0.00    +0.214 C 
ATOM     20  O   UNL     1       1.483 -13.491   9.464  0.00  0.00    -0.276 OA
ATOM     21  C   UNL     1       1.476 -14.083  11.749  0.00  0.00    +0.109 C 
ATOM     22  H   UNL     1       1.845 -11.480  11.775  0.00  0.00    +0.155 HD
ENDBRANCH  12  18
BRANCH   9  23
ATOM     23  C   UNL     1       0.711  -6.794  10.095  0.00  0.00    +0.387 C 
ATOM     24  O   UNL     1       0.257  -5.659  10.078  0.00  0.00    -0.241 OA
ATOM     25  O   UNL     1       0.589  -7.487  11.095  0.00  0.00    -0.241 OA
ENDBRANCH   9  23
BRANCH   1  26
ATOM     26  C   UNL     1       1.672  -4.756   1.798  0.00  0.00    +0.180 C 
BRANCH  26  28
ATOM     27  N   UNL     1       1.012  -2.728   0.544  0.00  0.00    -0.314 N 
ATOM     28  C   UNL     1       1.532  -3.261   1.667  0.00  0.00    +0.227 C 
ATOM     29  O   UNL     1       1.889  -2.537   2.573  0.00  0.00    -0.274 OA
ATOM     30  H   UNL     1       0.727  -3.307  -0.180  0.00  0.00    +0.149 HD
BRANCH  27  31
ATOM     31  C   UNL     1       0.876  -1.275   0.417  0.00  0.00    +0.104 C 
BRANCH  31  33
ATOM     32  C   UNL     1       0.121   0.581  -1.075  0.00  0.00    +0.005 C 
ATOM     33  C   UNL     1       0.262  -0.937  -0.943  0.00  0.00    +0.015 C 
ENDBRANCH  31  33
ENDBRANCH  27  31
ENDBRANCH  26  28
ENDBRANCH   1  26
TORSDOF 6
