REMARK  Name = ZINC13154503
REMARK  8 active torsions:
REMARK  status: ('A' for Active; 'I' for Inactive)
REMARK    1  A    between atoms: C_1  and  C_2
REMARK    2  A    between atoms: C_5  and  C_7
REMARK    3  A    between atoms: N_17  and  N_18
REMARK    4  A    between atoms: N_18  and  C_19
REMARK    5  A    between atoms: C_19  and  N_21
REMARK    6  A    between atoms: N_22  and  O_26
REMARK    7  A    between atoms: C_23  and  C_24
REMARK    8  A    between atoms: C_23  and  C_25
REMARK                            x       y       z     vdW  Elec       q    Type
REMARK                         _______ _______ _______ _____ _____    ______ ____
ROOT
ATOM      1  C   UNL     1      -0.723  -3.115  -1.458  0.00  0.00    +0.124 C 
ATOM      2  N   UNL     1       0.180  -2.416  -0.843  0.00  0.00    -0.135 N 
ATOM      3  O   UNL     1       1.106  -2.935   0.093  0.00  0.00    -0.166 OA
ATOM      4  C   UNL     1       0.104  -1.013  -1.253  0.00  0.00    +0.197 C 
ATOM      5  C   UNL     1       1.211  -0.703  -2.276  0.00  0.00    +0.056 C 
ATOM      6  C   UNL     1       2.504  -0.423  -1.546  0.00  0.00    +0.004 C 
ATOM      7  C   UNL     1       2.633   1.077  -1.322  0.00  0.00    +0.000 C 
ATOM      8  C   UNL     1       2.009   1.578  -0.087  0.00  0.00    +0.006 C 
ATOM      9  C   UNL     1       0.476   1.347  -0.136  0.00  0.00    +0.056 C 
ATOM     10  C   UNL     1       0.188  -0.112  -0.037  0.00  0.00    +0.082 C 
ATOM     11  N   UNL     1       0.004  -0.625   1.121  0.00  0.00    -0.186 NA
ATOM     12  N   UNL     1      -1.215  -0.838  -1.897  0.00  0.00    -0.145 NA
ATOM     13  C   UNL     1      -1.519  -2.211  -2.373  0.00  0.00    +0.091 C 
ATOM     14  C   UNL     1      -1.065  -2.385  -3.824  0.00  0.00    +0.037 C 
ATOM     15  C   UNL     1      -3.015  -2.504  -2.244  0.00  0.00    +0.037 C 
ENDROOT
BRANCH   1  20
ATOM     16  C   UNL     1      -2.639  -7.711  -2.004  0.00  0.00    +0.086 C 
ATOM     17  C   UNL     1      -1.773  -6.574  -1.528  0.00  0.00    +0.103 A 
ATOM     18  C   UNL     1      -0.770  -6.672  -0.630  0.00  0.00    +0.045 A 
ATOM     19  C   UNL     1      -0.228  -5.384  -0.473  0.00  0.00    +0.051 A 
ATOM     20  C   UNL     1      -0.938  -4.557  -1.294  0.00  0.00    +0.152 A 
ATOM     21  O   UNL     1      -1.875  -5.295  -1.922  0.00  0.00    -0.459 OA
ENDBRANCH   1  20
BRANCH  11  22
ATOM     22  N   UNL     1      -0.676  -1.843   1.248  0.00  0.00    -0.219 N 
ATOM     23  H   UNL     1      -1.087  -2.252   0.471  0.00  0.00    +0.176 HD
BRANCH  22  24
ATOM     24  C   UNL     1      -0.759  -2.447   2.450  0.00  0.00    +0.147 C 
ATOM     25  S   UNL     1      -1.590  -3.935   2.605  0.00  0.00    -0.017 S 
BRANCH  24  26
ATOM     26  N   UNL     1      -0.188  -1.878   3.531  0.00  0.00    -0.339 N 
ATOM     27  H   UNL     1       0.283  -1.035   3.443  0.00  0.00    +0.144 HD
ATOM     28  H   UNL     1      -0.248  -2.312   4.396  0.00  0.00    +0.144 HD
ENDBRANCH  24  26
ENDBRANCH  22  24
ENDBRANCH  11  22
BRANCH  12  29
ATOM     29  O   UNL     1      -1.132   0.099  -3.017  0.00  0.00    -0.309 OA
ATOM     30  H   UNL     1      -1.974   0.246  -3.471  0.00  0.00    +0.237 HD
ENDBRANCH  12  29
TORSDOF 5
