REMARK  Name = ZINC10000226
REMARK  15 active torsions:
REMARK  status: ('A' for Active; 'I' for Inactive)
REMARK    1  A    between atoms: C_1  and  C_2
REMARK    2  A    between atoms: C_2  and  O_3
REMARK    3  A    between atoms: O_3  and  C_4
REMARK    4  A    between atoms: C_6  and  C_15
REMARK    5  A    between atoms: C_9  and  O_10
REMARK    6  A    between atoms: O_10  and  C_11
REMARK    7  A    between atoms: C_11  and  C_12
REMARK    8  A    between atoms: N_16  and  N_17
REMARK    9  A    between atoms: C_18  and  C_20
REMARK   10  A    between atoms: C_20  and  C_22
REMARK   11  A    between atoms: C_20  and  N_25
REMARK   12  A    between atoms: C_22  and  C_23
REMARK   13  A    between atoms: C_22  and  C_24
REMARK   14  A    between atoms: C_26  and  C_28
REMARK   15  A    between atoms: C_31  and  C_34
REMARK                            x       y       z     vdW  Elec       q    Type
REMARK                         _______ _______ _______ _____ _____    ______ ____
ROOT
ATOM      1  N   UNL     1      -2.718  -0.356  -2.244  0.00  0.00    -0.205 N 
ATOM      2  C   UNL     1      -2.412   0.837  -2.792  0.00  0.00    +0.253 C 
ATOM      3  O   UNL     1      -2.841   1.859  -2.299  0.00  0.00    -0.272 OA
ATOM      4  H   UNL     1      -2.359  -1.172  -2.627  0.00  0.00    +0.177 HD
ENDROOT
BRANCH   1   6
ATOM      5  C   UNL     1      -3.741  -1.549  -0.514  0.00  0.00    +0.138 C 
ATOM      6  N   UNL     1      -3.554  -0.418  -1.122  0.00  0.00    -0.188 NA
BRANCH   5   9
ATOM      7  C   UNL     1      -1.909  -4.818  -0.278  0.00  0.00    +0.163 A 
ATOM      8  C   UNL     1      -2.938  -3.898  -0.349  0.00  0.00    +0.059 A 
ATOM      9  C   UNL     1      -2.647  -2.535  -0.437  0.00  0.00    -0.002 A 
ATOM     10  C   UNL     1      -1.317  -2.108  -0.458  0.00  0.00    +0.013 A 
ATOM     11  C   UNL     1      -0.296  -3.031  -0.381  0.00  0.00    +0.050 A 
ATOM     12  C   UNL     1      -0.585  -4.385  -0.293  0.00  0.00    +0.163 A 
BRANCH   7  13
ATOM     13  O   UNL     1      -2.189  -6.146  -0.192  0.00  0.00    -0.489 OA
BRANCH  13  15
ATOM     14  C   UNL     1      -3.684  -8.042  -0.080  0.00  0.00    +0.048 C 
ATOM     15  C   UNL     1      -3.568  -6.519  -0.181  0.00  0.00    +0.226 C 
ENDBRANCH  13  15
ENDBRANCH   7  13
BRANCH  12  16
ATOM     16  O   UNL     1       0.426  -5.291  -0.222  0.00  0.00    -0.479 OA
BRANCH  16  17
ATOM     17  C   UNL     1       1.760  -4.778  -0.242  0.00  0.00    +0.324 C 
BRANCH  17  18
ATOM     18  C   UNL     1       2.738  -5.920  -0.156  0.00  0.00    +0.248 C 
ATOM     19  O   UNL     1       2.334  -7.061  -0.084  0.00  0.00    -0.272 OA
ATOM     20  N   UNL     1       4.064  -5.674  -0.159  0.00  0.00    -0.327 N 
ATOM     21  H   UNL     1       4.387  -4.761  -0.216  0.00  0.00    +0.145 HD
ATOM     22  H   UNL     1       4.694  -6.410  -0.103  0.00  0.00    +0.145 HD
ENDBRANCH  17  18
ENDBRANCH  16  17
ENDBRANCH  12  16
ENDBRANCH   5   9
ENDBRANCH   1   6
BRANCH   2  23
ATOM     23  C   UNL     1      -1.537   0.901  -4.017  0.00  0.00    +0.163 C 
BRANCH  23  24
ATOM     24  N   UNL     1      -1.689   2.210  -4.658  0.00  0.00    -0.300 N 
ATOM     25  C   UNL     1      -1.439   2.349  -5.975  0.00  0.00    +0.245 C 
ATOM     26  O   UNL     1      -1.087   1.388  -6.631  0.00  0.00    -0.270 OA
ATOM     27  H   UNL     1      -1.970   2.977  -4.134  0.00  0.00    +0.150 HD
BRANCH  25  28
ATOM     28  C   UNL     1      -1.592   3.670  -6.621  0.00  0.00    +0.037 A 
ATOM     29  C   UNL     1      -2.002   4.774  -5.871  0.00  0.00    +0.013 A 
ATOM     30  C   UNL     1      -2.139   6.004  -6.480  0.00  0.00    +0.004 A 
ATOM     31  C   UNL     1      -1.881   6.143  -7.832  0.00  0.00    -0.050 A 
ATOM     32  C   UNL     1      -1.480   5.052  -8.582  0.00  0.00    +0.004 A 
ATOM     33  C   UNL     1      -1.334   3.817  -7.985  0.00  0.00    +0.013 A 
ATOM     34  C   UNL     1      -2.038   7.490  -8.491  0.00  0.00    +0.044 C 
ENDBRANCH  25  28
ENDBRANCH  23  24
BRANCH  23  35
ATOM     35  C   UNL     1      -0.075   0.699  -3.611  0.00  0.00    +0.012 C 
ATOM     36  C   UNL     1       0.124  -0.738  -3.125  0.00  0.00    +0.009 C 
ATOM     37  C   UNL     1       0.830   0.960  -4.817  0.00  0.00    +0.009 C 
ENDBRANCH  23  35
ENDBRANCH   2  23
TORSDOF 11
