REMARK  Name = ZINC19727890
REMARK  5 active torsions:
REMARK  status: ('A' for Active; 'I' for Inactive)
REMARK    1  A    between atoms: C_4  and  C_7
REMARK    2  A    between atoms: C_7  and  C_8
REMARK    3  A    between atoms: C_7  and  N_14
REMARK    4  A    between atoms: C_25  and  C_28
REMARK    5  A    between atoms: N_30  and  C_31
REMARK                            x       y       z     vdW  Elec       q    Type
REMARK                         _______ _______ _______ _____ _____    ______ ____
ROOT
ATOM      1  N   UNL     1       3.938  -1.810  -0.631  0.00  0.00    -0.289 NA
ATOM      2  C   UNL     1       3.017  -2.854  -0.161  0.00  0.00    +0.104 C 
ATOM      3  C   UNL     1       3.165  -4.097  -1.046  0.00  0.00    +0.123 C 
ATOM      4  N   UNL     1       4.584  -4.484  -1.073  0.00  0.00    -0.303 N 
ATOM      5  C   UNL     1       5.580  -3.454  -1.403  0.00  0.00    +0.123 C 
ATOM      6  C   UNL     1       5.338  -2.237  -0.504  0.00  0.00    +0.104 C 
ATOM      7  C   UNL     1       4.965  -5.764  -0.802  0.00  0.00    +0.175 C 
ATOM      8  N   UNL     1       4.051  -6.677  -0.514  0.00  0.00    -0.151 NA
ATOM      9  C   UNL     1       4.367  -7.931  -0.223  0.00  0.00    +0.241 C 
ATOM     10  O   UNL     1       3.481  -8.730   0.009  0.00  0.00    -0.274 OA
ATOM     11  C   UNL     1       5.803  -8.387  -0.173  0.00  0.00    +0.129 C 
ATOM     12  C   UNL     1       6.636  -7.504  -1.112  0.00  0.00    +0.168 C 
ATOM     13  N   UNL     1       6.288  -6.102  -0.833  0.00  0.00    -0.307 N 
ATOM     14  H   UNL     1       6.978  -5.439  -0.674  0.00  0.00    +0.149 HD
ENDROOT
BRANCH  12  15
ATOM     15  C   UNL     1       6.310  -7.832  -2.546  0.00  0.00    +0.238 C 
ATOM     16  O   UNL     1       5.550  -7.125  -3.173  0.00  0.00    -0.273 OA
ATOM     17  N   UNL     1       6.864  -8.912  -3.133  0.00  0.00    -0.284 N 
ATOM     18  H   UNL     1       7.527  -9.436  -2.657  0.00  0.00    +0.155 HD
BRANCH  17  19
ATOM     19  C   UNL     1       6.483  -9.277  -4.429  0.00  0.00    +0.034 A 
ATOM     20  C   UNL     1       6.401 -10.618  -4.779  0.00  0.00    +0.025 A 
ATOM     21  C   UNL     1       6.024 -10.976  -6.058  0.00  0.00    +0.022 A 
ATOM     22  C   UNL     1       5.729  -9.998  -6.992  0.00  0.00    +0.041 A 
ATOM     23  C   UNL     1       5.810  -8.661  -6.647  0.00  0.00    +0.022 A 
ATOM     24  C   UNL     1       6.181  -8.298  -5.367  0.00  0.00    +0.025 A 
ATOM     25 CL   UNL     1       5.257 -10.451  -8.601  0.00  0.00    -0.084 Cl
ENDBRANCH  17  19
ENDBRANCH  12  15
BRANCH   1  26
ATOM     26  C   UNL     1       3.706  -0.546   0.080  0.00  0.00    +0.117 C 
BRANCH  26  30
ATOM     27  C   UNL     1       6.183   2.503  -1.598  0.00  0.00    +0.000 A 
ATOM     28  C   UNL     1       6.058   2.392  -0.226  0.00  0.00    +0.000 A 
ATOM     29  C   UNL     1       5.256   1.405   0.317  0.00  0.00    +0.005 A 
ATOM     30  C   UNL     1       4.579   0.530  -0.512  0.00  0.00    -0.026 A 
ATOM     31  C   UNL     1       4.703   0.643  -1.884  0.00  0.00    +0.005 A 
ATOM     32  C   UNL     1       5.506   1.629  -2.427  0.00  0.00    +0.000 A 
ENDBRANCH  26  30
BRANCH  26  33
ATOM     33  C   UNL     1       2.259  -0.150  -0.057  0.00  0.00    -0.026 A 
ATOM     34  C   UNL     1       1.624  -0.263  -1.280  0.00  0.00    +0.005 A 
ATOM     35  C   UNL     1       0.296   0.100  -1.405  0.00  0.00    +0.000 A 
ATOM     36  C   UNL     1      -0.398   0.575  -0.308  0.00  0.00    +0.000 A 
ATOM     37  C   UNL     1       0.237   0.687   0.915  0.00  0.00    +0.000 A 
ATOM     38  C   UNL     1       1.563   0.320   1.042  0.00  0.00    +0.005 A 
ENDBRANCH  26  33
ENDBRANCH   1  26
TORSDOF 5
