REMARK  Name = ZINC52006524
REMARK  4 active torsions:
REMARK  status: ('A' for Active; 'I' for Inactive)
REMARK    1  A    between atoms: C_5  and  N_17
REMARK    2  A    between atoms: C_6  and  N_7
REMARK    3  A    between atoms: N_7  and  C_8
REMARK    4  A    between atoms: C_14  and  O_16
REMARK                            x       y       z     vdW  Elec       q    Type
REMARK                         _______ _______ _______ _____ _____    ______ ____
ROOT
ATOM      1  C   UNL     1      -0.017   1.389   0.010  0.00  0.00    +0.026 A 
ATOM      2  C   UNL     1       1.177   2.086   0.002  0.00  0.00    +0.019 A 
ATOM      3  C   UNL     1       2.364   1.395  -0.013  0.00  0.00    +0.041 A 
ATOM      4  C   UNL     1       2.421  -0.017  -0.021  0.00  0.00    +0.110 A 
ATOM      5  C   UNL     1       1.189  -0.703  -0.013  0.00  0.00    +0.173 A 
ATOM      6  C   UNL     1       0.002  -0.004   0.002  0.00  0.00    +0.060 A 
ATOM      7  N   UNL     1       3.680  -0.502  -0.036  0.00  0.00    -0.245 NA
ATOM      8  C   UNL     1       4.723   0.276  -0.042  0.00  0.00    +0.157 A 
ATOM      9  S   UNL     1       4.083   1.833  -0.027  0.00  0.00    -0.075 S 
ENDROOT
BRANCH   5  10
ATOM     10  N   UNL     1       1.171  -2.183  -0.021  0.00  0.00    +0.060 N 
ATOM     11  O   UNL     1       1.174  -2.793   1.023  0.00  0.00    -0.126 OA
ATOM     12  O   UNL     1       1.154  -2.782  -1.071  0.00  0.00    -0.126 OA
ENDBRANCH   5  10
BRANCH   6  13
ATOM     13  N   UNL     1      -1.208  -0.707   0.010  0.00  0.00    -0.337 N 
ATOM     14  H   UNL     1      -1.206  -1.677   0.005  0.00  0.00    +0.147 HD
BRANCH  13  15
ATOM     15  C   UNL     1      -2.478   0.023   0.026  0.00  0.00    +0.099 C 
ATOM     16  C   UNL     1      -2.844   0.378   1.468  0.00  0.00    +0.025 C 
ATOM     17  C   UNL     1      -2.982  -0.905   2.290  0.00  0.00    +0.002 C 
ATOM     18  C   UNL     1      -4.081  -1.782   1.686  0.00  0.00    +0.003 C 
ATOM     19  C   UNL     1      -3.716  -2.137   0.244  0.00  0.00    +0.033 C 
ATOM     20  C   UNL     1      -3.577  -0.854  -0.578  0.00  0.00    +0.135 C 
BRANCH  20  21
ATOM     21  O   UNL     1      -3.236  -1.186  -1.925  0.00  0.00    -0.390 OA
ATOM     22  H   UNL     1      -3.889  -1.742  -2.372  0.00  0.00    +0.210 HD
ENDBRANCH  20  21
ENDBRANCH  13  15
ENDBRANCH   6  13
TORSDOF 4
