REMARK  Name = ZINC20436840
REMARK  4 active torsions:
REMARK  status: ('A' for Active; 'I' for Inactive)
REMARK    1  A    between atoms: C_1  and  C_2
REMARK    2  A    between atoms: C_9  and  C_13
REMARK    3  A    between atoms: N_11  and  O_12
REMARK    4  A    between atoms: C_18  and  O_19
REMARK                            x       y       z     vdW  Elec       q    Type
REMARK                         _______ _______ _______ _____ _____    ______ ____
ROOT
ATOM      1  C   UNL     1      -0.019   1.526   0.010  0.00  0.00    +0.036 C 
ATOM      2  C   UNL     1       0.002  -0.004   0.002  0.00  0.00    +0.084 C 
ATOM      3  C   UNL     1       0.760  -0.542  -1.214  0.00  0.00    +0.030 C 
ATOM      4  C   UNL     1       1.474  -1.837  -0.845  0.00  0.00    +0.003 C 
ATOM      5  C   UNL     1       2.622  -1.630   0.135  0.00  0.00    +0.006 C 
ATOM      6  C   UNL     1       2.223  -0.671   1.263  0.00  0.00    +0.052 C 
ATOM      7  C   UNL     1       0.715  -0.558   1.229  0.00  0.00    +0.038 C 
ATOM      8  N   UNL     1      -0.138  -0.928   2.087  0.00  0.00    -0.265 NA
ATOM      9  C   UNL     1      -1.504  -0.728   1.578  0.00  0.00    +0.234 C 
ATOM     10  N   UNL     1      -1.362  -0.560   0.108  0.00  0.00    -0.151 NA
ENDROOT
BRANCH   9  11
ATOM     11  C   UNL     1      -2.356  -1.931   1.887  0.00  0.00    +0.035 A 
ATOM     12  C   UNL     1      -3.307  -2.357   0.979  0.00  0.00    +0.011 A 
ATOM     13  C   UNL     1      -4.089  -3.460   1.262  0.00  0.00    +0.001 A 
ATOM     14  C   UNL     1      -3.923  -4.142   2.454  0.00  0.00    +0.004 A 
ATOM     15  C   UNL     1      -2.974  -3.721   3.365  0.00  0.00    +0.046 A 
ATOM     16  C   UNL     1      -2.184  -2.616   3.081  0.00  0.00    +0.123 A 
BRANCH  16  17
ATOM     17  O   UNL     1      -1.245  -2.204   3.973  0.00  0.00    -0.506 OA
ATOM     18  H   UNL     1      -1.572  -1.561   4.618  0.00  0.00    +0.292 HD
ENDBRANCH  16  17
ENDBRANCH   9  11
BRANCH  10  19
ATOM     19  O   UNL     1      -2.353   0.383  -0.410  0.00  0.00    -0.309 OA
ATOM     20  H   UNL     1      -3.264   0.061  -0.362  0.00  0.00    +0.237 HD
ENDBRANCH  10  19
TORSDOF 3
