REMARK  Name = ZINC49883126
REMARK  6 active torsions:
REMARK  status: ('A' for Active; 'I' for Inactive)
REMARK    1  A    between atoms: C_1  and  C_2
REMARK    2  A    between atoms: C_5  and  N_8
REMARK    3  A    between atoms: C_10  and  C_22
REMARK    4  A    between atoms: C_13  and  C_15
REMARK    5  A    between atoms: C_18  and  O_21
REMARK    6  A    between atoms: C_22  and  O_23
REMARK                            x       y       z     vdW  Elec       q    Type
REMARK                         _______ _______ _______ _____ _____    ______ ____
ROOT
ATOM      1  N   UNL     1       0.058  -4.167  -0.021  0.00  0.00    -0.298 N 
ATOM      2  C   UNL     1       0.070  -5.050  -1.208  0.00  0.00    +0.142 C 
ATOM      3  C   UNL     1       0.636  -6.377  -0.643  0.00  0.00    +0.163 C 
ATOM      4  O   UNL     1       0.060  -6.418   0.684  0.00  0.00    -0.347 OA
ATOM      5  C   UNL     1       0.076  -5.058   1.151  0.00  0.00    +0.238 C 
ENDROOT
BRANCH   1  10
ATOM      6  C   UNL     1      -0.018   1.503   0.010  0.00  0.00    +0.044 C 
ATOM      7  C   UNL     1       0.002  -0.004   0.002  0.00  0.00    -0.050 A 
ATOM      8  C   UNL     1       0.006  -0.687  -1.200  0.00  0.00    +0.005 A 
ATOM      9  C   UNL     1       0.024  -2.068  -1.212  0.00  0.00    +0.023 A 
ATOM     10  C   UNL     1       0.040  -2.771  -0.013  0.00  0.00    +0.032 A 
ATOM     11  C   UNL     1       0.036  -2.081   1.193  0.00  0.00    +0.023 A 
ATOM     12  C   UNL     1       0.023  -0.700   1.197  0.00  0.00    +0.005 A 
ENDBRANCH   1  10
BRANCH   5  13
ATOM     13  C   UNL     1      -1.141  -4.802   2.002  0.00  0.00    -0.001 A 
ATOM     14  C   UNL     1      -2.317  -4.374   1.415  0.00  0.00    +0.011 A 
ATOM     15  C   UNL     1      -3.434  -4.138   2.193  0.00  0.00    +0.046 A 
ATOM     16  C   UNL     1      -3.375  -4.332   3.565  0.00  0.00    +0.117 A 
ATOM     17  C   UNL     1      -2.194  -4.763   4.152  0.00  0.00    +0.046 A 
ATOM     18  C   UNL     1      -1.081  -5.002   3.369  0.00  0.00    +0.011 A 
BRANCH  16  19
ATOM     19  O   UNL     1      -4.472  -4.101   4.333  0.00  0.00    -0.507 OA
ATOM     20  H   UNL     1      -5.042  -4.873   4.448  0.00  0.00    +0.292 HD
ENDBRANCH  16  19
ENDBRANCH   5  13
BRANCH   3  21
ATOM     21  C   UNL     1       0.168  -7.569  -1.480  0.00  0.00    +0.189 C 
BRANCH  21  22
ATOM     22  O   UNL     1       0.797  -8.761  -1.006  0.00  0.00    -0.392 OA
ATOM     23  H   UNL     1       0.547  -9.558  -1.492  0.00  0.00    +0.210 HD
ENDBRANCH  21  22
ENDBRANCH   3  21
TORSDOF 5
