REMARK  Name = ZINC43604370
REMARK  8 active torsions:
REMARK  status: ('A' for Active; 'I' for Inactive)
REMARK    1  A    between atoms: C_1  and  C_2
REMARK    2  A    between atoms: C_18  and  C_20
REMARK    3  A    between atoms: C_20  and  N_21
REMARK    4  A    between atoms: N_21  and  C_22
REMARK    5  A    between atoms: C_22  and  C_23
REMARK    6  A    between atoms: C_23  and  C_24
REMARK    7  A    between atoms: C_31  and  O_34
REMARK    8  A    between atoms: O_34  and  C_35
REMARK                            x       y       z     vdW  Elec       q    Type
REMARK                         _______ _______ _______ _____ _____    ______ ____
ROOT
ATOM      1  C   UNL     1      -1.525  -5.000   1.357  0.00  0.00    -0.068 C 
ENDROOT
BRANCH   1  16
ATOM      2  C   UNL     1      -0.019   1.526   0.010  0.00  0.00    +0.011 C 
ATOM      3  C   UNL     1       0.002  -0.004   0.002  0.00  0.00    -0.023 C 
ATOM      4  C   UNL     1       0.725  -0.494  -1.251  0.00  0.00    +0.007 C 
ATOM      5  C   UNL     1       2.123   0.126  -1.312  0.00  0.00    +0.003 C 
ATOM      6  C   UNL     1       2.942  -0.332  -0.101  0.00  0.00    +0.037 C 
ATOM      7  C   UNL     1       2.184   0.017   1.181  0.00  0.00    +0.096 C 
ATOM      8  C   UNL     1       0.745  -0.510   1.246  0.00  0.00    +0.030 C 
ATOM      9  C   UNL     1       0.788  -2.037   1.196  0.00  0.00    +0.014 C 
ATOM     10  C   UNL     1      -0.620  -2.632   1.216  0.00  0.00    +0.042 C 
ATOM     11  C   UNL     1      -1.485  -2.019   0.096  0.00  0.00    +0.181 C 
ATOM     12  C   UNL     1      -1.428  -0.529   0.027  0.00  0.00    +0.052 C 
ATOM     13  O   UNL     1      -0.984  -2.637  -1.095  0.00  0.00    -0.461 OA
ATOM     14  C   UNL     1      -0.771  -3.942  -0.813  0.00  0.00    +0.309 C 
ATOM     15  O   UNL     1      -0.800  -4.846  -1.614  0.00  0.00    -0.251 OA
ATOM     16  C   UNL     1      -0.486  -4.095   0.693  0.00  0.00    +0.087 C 
ATOM     17  C   UNL     1       2.973   0.105   2.484  0.00  0.00    +0.196 C 
ATOM     18  O   UNL     1       2.468   1.262   1.814  0.00  0.00    -0.368 OA
ENDBRANCH   1  16
BRANCH   1  19
ATOM     19  N   UNL     1      -1.301  -6.391   0.939  0.00  0.00    +0.380 N 
ATOM     20  H   UNL     1      -1.387  -6.459  -0.064  0.00  0.00    -0.086 HD
ATOM     21  H   UNL     1      -0.375  -6.681   1.217  0.00  0.00    -0.086 HD
BRANCH  19  22
ATOM     22  C   UNL     1      -2.299  -7.261   1.576  0.00  0.00    -0.078 C 
BRANCH  22  23
ATOM     23  C   UNL     1      -2.065  -8.709   1.141  0.00  0.00    +0.018 C 
BRANCH  23  24
ATOM     24  C   UNL     1      -3.088  -9.601   1.795  0.00  0.00    -0.024 A 
ATOM     25  C   UNL     1      -2.935 -10.289   2.938  0.00  0.00    +0.087 A 
ATOM     26  N   UNL     1      -4.077 -10.987   3.219  0.00  0.00    -0.360 N 
ATOM     27  H   UNL     1      -4.205 -11.557   3.994  0.00  0.00    +0.165 HD
ATOM     28  C   UNL     1      -5.019 -10.760   2.238  0.00  0.00    +0.047 A 
ATOM     29  C   UNL     1      -4.442  -9.877   1.307  0.00  0.00    +0.006 A 
ATOM     30  C   UNL     1      -5.175  -9.460   0.194  0.00  0.00    +0.056 A 
ATOM     31  C   UNL     1      -6.465  -9.917   0.017  0.00  0.00    +0.121 A 
ATOM     32  C   UNL     1      -7.035 -10.788   0.942  0.00  0.00    +0.047 A 
ATOM     33  C   UNL     1      -6.319 -11.212   2.039  0.00  0.00    +0.030 A 
BRANCH  31  34
ATOM     34  O   UNL     1      -7.184  -9.515  -1.065  0.00  0.00    -0.495 OA
ATOM     35  C   UNL     1      -8.513 -10.025  -1.188  0.00  0.00    +0.277 C 
ENDBRANCH  31  34
ENDBRANCH  23  24
ENDBRANCH  22  23
ENDBRANCH  19  22
ENDBRANCH   1  19
TORSDOF 6
