REMARK  Name = ZINC01789048
REMARK  7 active torsions:
REMARK  status: ('A' for Active; 'I' for Inactive)
REMARK    1  A    between atoms: C_1  and  C_2
REMARK    2  A    between atoms: C_2  and  C_33
REMARK    3  A    between atoms: C_12  and  C_14
REMARK    4  A    between atoms: C_19  and  O_20
REMARK    5  A    between atoms: O_20  and  C_21
REMARK    6  A    between atoms: C_28  and  O_31
REMARK    7  A    between atoms: O_31  and  C_32
REMARK                            x       y       z     vdW  Elec       q    Type
REMARK                         _______ _______ _______ _____ _____    ______ ____
ROOT
ATOM      1  C   UNL     1      -7.302   1.932  -2.574  0.00  0.00    +0.041 C 
ATOM      2  C   UNL     1      -6.779   2.145  -1.153  0.00  0.00    +0.069 C 
ATOM      3  C   UNL     1      -5.258   2.315  -1.189  0.00  0.00    +0.101 C 
ATOM      4  C   UNL     1      -4.736   2.475   0.245  0.00  0.00    +0.185 C 
ATOM      5  C   UNL     1      -5.161   1.247   1.060  0.00  0.00    +0.094 C 
ATOM      6  C   UNL     1      -6.686   1.118   1.013  0.00  0.00    +0.166 C 
ATOM      7  O   UNL     1      -7.112   1.013  -0.347  0.00  0.00    -0.374 OA
ATOM      8  N   UNL     1      -3.302   2.612   0.249  0.00  0.00    -0.177 NA
ATOM      9  C   UNL     1      -2.903   3.917  -0.362  0.00  0.00    +0.138 C 
ATOM     10  C   UNL     1      -1.419   3.722  -0.502  0.00  0.00    +0.023 C 
ATOM     11  C   UNL     1      -1.230   2.388  -0.470  0.00  0.00    +0.050 C 
ATOM     12  N   UNL     1      -2.468   1.730  -0.328  0.00  0.00    -0.273 N 
ATOM     13  C   UNL     1      -3.326   4.923   0.667  0.00  0.00    +0.021 A 
ATOM     14  C   UNL     1      -2.562   5.995   1.047  0.00  0.00    +0.009 A 
ATOM     15  C   UNL     1      -3.032   6.863   2.019  0.00  0.00    +0.004 A 
ATOM     16  C   UNL     1      -4.268   6.644   2.600  0.00  0.00    +0.049 A 
ATOM     17  C   UNL     1      -5.044   5.565   2.212  0.00  0.00    +0.162 A 
ATOM     18  C   UNL     1      -4.583   4.691   1.233  0.00  0.00    +0.170 A 
ATOM     19  O   UNL     1      -5.336   3.642   0.825  0.00  0.00    -0.465 OA
ATOM     20  C   UNL     1      -7.418   3.401  -0.556  0.00  0.00    +0.041 C 
ATOM     21  H   UNL     1      -2.677   0.821  -0.594  0.00  0.00    +0.167 HD
ENDROOT
BRANCH  11  22
ATOM     22  C   UNL     1       0.085   1.714  -0.563  0.00  0.00    +0.039 A 
ATOM     23  C   UNL     1       0.164   0.323  -0.513  0.00  0.00    +0.013 A 
ATOM     24  C   UNL     1       1.391  -0.301  -0.606  0.00  0.00    +0.001 A 
ATOM     25  C   UNL     1       2.545   0.450  -0.749  0.00  0.00    +0.004 A 
ATOM     26  C   UNL     1       2.479   1.829  -0.799  0.00  0.00    +0.046 A 
ATOM     27  C   UNL     1       1.254   2.469  -0.708  0.00  0.00    +0.136 A 
BRANCH  27  28
ATOM     28  O   UNL     1       1.187   3.825  -0.758  0.00  0.00    -0.434 OA
BRANCH  28  29
ATOM     29  C   UNL     1       2.421   4.530  -0.907  0.00  0.00    +0.541 C 
ATOM     30  F   UNL     1       3.261   4.234   0.172  0.00  0.00    -0.166 F 
ATOM     31  F   UNL     1       3.040   4.139  -2.100  0.00  0.00    -0.166 F 
ENDBRANCH  28  29
ENDBRANCH  27  28
ENDBRANCH  11  22
BRANCH  17  32
ATOM     32  O   UNL     1      -6.258   5.359   2.790  0.00  0.00    -0.491 OA
ATOM     33  C   UNL     1      -6.669   6.295   3.789  0.00  0.00    +0.277 C 
ENDBRANCH  17  32
TORSDOF 4
