REMARK  Name = ZINC39760514
REMARK  4 active torsions:
REMARK  status: ('A' for Active; 'I' for Inactive)
REMARK    1  A    between atoms: C_8  and  C_13
REMARK    2  A    between atoms: C_13  and  C_14
REMARK    3  A    between atoms: C_14  and  C_15
REMARK    4  A    between atoms: C_23  and  C_25
REMARK                            x       y       z     vdW  Elec       q    Type
REMARK                         _______ _______ _______ _____ _____    ______ ____
ROOT
ATOM      1  C   UNL     1       1.638  -4.601  -1.216  0.00  0.00    +0.098 C 
ENDROOT
BRANCH   1   2
ATOM      2  C   UNL     1       1.699  -5.475  -2.442  0.00  0.00    +0.216 C 
ATOM      3  O   UNL     1       2.585  -5.319  -3.255  0.00  0.00    -0.276 OA
ATOM      4  N   UNL     1       0.768  -6.431  -2.636  0.00  0.00    -0.298 N 
ATOM      5  C   UNL     1      -0.315  -6.627  -1.662  0.00  0.00    +0.126 C 
ATOM      6  C   UNL     1      -1.658  -6.528  -2.397  0.00  0.00    +0.127 C 
ATOM      7  N   UNL     1      -1.608  -7.392  -3.585  0.00  0.00    -0.292 N 
ATOM      8  C   UNL     1      -0.525  -7.196  -4.558  0.00  0.00    +0.127 C 
ATOM      9  C   UNL     1       0.815  -7.291  -3.826  0.00  0.00    +0.126 C 
ATOM     10  C   UNL     1      -2.539  -8.348  -3.778  0.00  0.00    +0.282 C 
ATOM     11  O   UNL     1      -2.546  -8.991  -4.811  0.00  0.00    -0.267 OA
BRANCH  10  12
ATOM     12  C   UNL     1      -3.544  -8.612  -2.743  0.00  0.00    +0.189 A 
ATOM     13  C   UNL     1      -4.463  -9.622  -2.757  0.00  0.00    +0.054 A 
ATOM     14  C   UNL     1      -5.215  -9.499  -1.578  0.00  0.00    +0.042 A 
ATOM     15  C   UNL     1      -4.728  -8.433  -0.905  0.00  0.00    +0.196 A 
ATOM     16  O   UNL     1      -3.718  -7.905  -1.607  0.00  0.00    -0.458 OA
ENDBRANCH  10  12
ENDBRANCH   1   2
BRANCH   1  17
ATOM     17  C   UNL     1       2.801  -3.607  -1.240  0.00  0.00    +0.043 C 
BRANCH  17  25
ATOM     18  C   UNL     1       0.085   1.297   0.067  0.00  0.00    +0.002 A 
ATOM     19  C   UNL     1       1.279   2.037   0.066  0.00  0.00    +0.002 A 
ATOM     20  C   UNL     1       2.501   1.456   0.051  0.00  0.00    +0.025 A 
ATOM     21  C   UNL     1       2.624   0.048   0.035  0.00  0.00    +0.057 A 
ATOM     22  N   UNL     1       3.820  -0.514   0.020  0.00  0.00    -0.282 N 
ATOM     23  C   UNL     1       3.970  -1.841   0.005  0.00  0.00    +0.240 C 
ATOM     24  O   UNL     1       5.079  -2.335  -0.008  0.00  0.00    -0.273 OA
ATOM     25  C   UNL     1       2.740  -2.720   0.004  0.00  0.00    +0.166 C 
ATOM     26  N   UNL     1       1.423  -2.062   0.021  0.00  0.00    -0.372 N 
ATOM     27  C   UNL     1       1.379  -0.761   0.035  0.00  0.00    +0.057 A 
ATOM     28  C   UNL     1       0.088  -0.054   0.052  0.00  0.00    +0.027 A 
ATOM     29  H   UNL     1       0.607  -2.586   0.021  0.00  0.00    +0.160 HD
ATOM     30  H   UNL     1       4.609   0.050   0.021  0.00  0.00    +0.155 HD
ENDBRANCH  17  25
ENDBRANCH   1  17
TORSDOF 4
