REMARK  Name = ZINC43495066
REMARK  5 active torsions:
REMARK  status: ('A' for Active; 'I' for Inactive)
REMARK    1  A    between atoms: C_2  and  C_20
REMARK    2  A    between atoms: C_5  and  O_10
REMARK    3  A    between atoms: C_6  and  N_7
REMARK    4  A    between atoms: O_10  and  C_11
REMARK    5  A    between atoms: C_11  and  C_12
REMARK                            x       y       z     vdW  Elec       q    Type
REMARK                         _______ _______ _______ _____ _____    ______ ____
ROOT
ATOM      1  C   UNL     1      -0.017   1.373   0.010  0.00  0.00    +0.055 A 
ATOM      2  C   UNL     1       1.185   2.087   0.002  0.00  0.00    +0.055 A 
ATOM      3  C   UNL     1       2.401   1.399  -0.013  0.00  0.00    +0.037 A 
ATOM      4  C   UNL     1       2.411   0.021  -0.021  0.00  0.00    +0.058 A 
ATOM      5  C   UNL     1       1.214  -0.685  -0.014  0.00  0.00    +0.164 A 
ATOM      6  C   UNL     1       0.002  -0.004   0.002  0.00  0.00    +0.170 A 
ATOM      7  I   UNL     1       4.234  -1.012  -0.044  0.00  0.00    -0.040 I 
ENDROOT
BRANCH   6   8
ATOM      8  N   UNL     1      -1.270  -0.760   0.010  0.00  0.00    +0.060 N 
ATOM      9  O   UNL     1      -2.325  -0.169   0.023  0.00  0.00    -0.126 OA
ATOM     10  O   UNL     1      -1.255  -1.969   0.004  0.00  0.00    -0.126 OA
ENDBRANCH   6   8
BRANCH   2  11
ATOM     11  C   UNL     1       1.170   3.518   0.009  0.00  0.00    +0.099 C 
ATOM     12  N   UNL     1       1.158   4.654   0.015  0.00  0.00    -0.191 NA
ENDBRANCH   2  11
BRANCH   5  13
ATOM     13  O   UNL     1       1.227  -2.042  -0.022  0.00  0.00    -0.490 OA
BRANCH  13  14
ATOM     14  C   UNL     1       1.246  -2.699   1.247  0.00  0.00    +0.213 C 
BRANCH  14  15
ATOM     15  C   UNL     1       1.260  -4.214   1.037  0.00  0.00    -0.034 C 
ATOM     16  C   UNL     1       2.438  -4.593   0.138  0.00  0.00    -0.013 C 
ATOM     17  C   UNL     1       2.447  -6.111  -0.069  0.00  0.00    -0.003 C 
ATOM     18  C   UNL     1       1.103  -6.544  -0.660  0.00  0.00    -0.019 C 
ATOM     19  C   UNL     1      -0.026  -6.092   0.269  0.00  0.00    -0.082 C 
ATOM     20  N   UNL     1       0.003  -4.631   0.404  0.00  0.00    +0.383 N 
ATOM     21  H   UNL     1      -0.775  -4.332   0.974  0.00  0.00    -0.085 HD
ATOM     22  H   UNL     1      -0.069  -4.208  -0.509  0.00  0.00    -0.085 HD
ENDBRANCH  14  15
ENDBRANCH  13  14
ENDBRANCH   5  13
TORSDOF 5
