REMARK  Name = ZINC11009936
REMARK  4 active torsions:
REMARK  status: ('A' for Active; 'I' for Inactive)
REMARK    1  A    between atoms: C_1  and  C_2
REMARK    2  A    between atoms: C_7  and  C_8
REMARK    3  A    between atoms: C_8  and  C_10
REMARK    4  A    between atoms: C_8  and  N_11
REMARK                            x       y       z     vdW  Elec       q    Type
REMARK                         _______ _______ _______ _____ _____    ______ ____
ROOT
ATOM      1  N   UNL     1      -0.113   4.067  -0.559  0.00  0.00    -0.322 N 
ATOM      2  C   UNL     1      -0.160   5.278  -1.224  0.00  0.00    +0.131 A 
ATOM      3  C   UNL     1      -1.381   5.745  -1.785  0.00  0.00    +0.047 A 
ATOM      4  C   UNL     1      -2.697   5.130  -1.787  0.00  0.00    +0.021 A 
ATOM      5  C   UNL     1      -3.715   5.764  -2.387  0.00  0.00    +0.048 A 
ATOM      6  S   UNL     1      -2.971   7.267  -2.993  0.00  0.00    -0.077 S 
ATOM      7  C   UNL     1      -1.310   6.996  -2.435  0.00  0.00    +0.113 A 
ATOM      8  N   UNL     1      -0.177   7.665  -2.515  0.00  0.00    -0.228 NA
ATOM      9  C   UNL     1       0.925   7.178  -1.979  0.00  0.00    +0.224 A 
ATOM     10  N   UNL     1       0.931   6.016  -1.351  0.00  0.00    -0.220 NA
ATOM     11  H   UNL     1      -0.917   3.531  -0.469  0.00  0.00    +0.148 HD
ENDROOT
BRANCH   1  12
ATOM     12  C   UNL     1       1.151   3.592   0.010  0.00  0.00    +0.099 C 
ATOM     13  C   UNL     1       1.317   4.154   1.424  0.00  0.00    +0.033 C 
BRANCH  12  20
ATOM     14  C   UNL     1       3.639   2.129  -0.107  0.00  0.00    +0.044 C 
ATOM     15  C   UNL     1       2.333   1.386   0.010  0.00  0.00    -0.046 A 
ATOM     16  C   UNL     1       2.325   0.005   0.062  0.00  0.00    +0.004 A 
ATOM     17  C   UNL     1       1.127  -0.676   0.169  0.00  0.00    +0.000 A 
ATOM     18  C   UNL     1      -0.063   0.024   0.226  0.00  0.00    +0.000 A 
ATOM     19  C   UNL     1      -0.056   1.405   0.174  0.00  0.00    +0.006 A 
ATOM     20  C   UNL     1       1.143   2.086   0.067  0.00  0.00    -0.025 A 
ENDBRANCH  12  20
ENDBRANCH   1  12
TORSDOF 2
