REMARK  Name = ZINC51820722
REMARK  11 active torsions:
REMARK  status: ('A' for Active; 'I' for Inactive)
REMARK    1  A    between atoms: C_1  and  C_2
REMARK    2  A    between atoms: C_4  and  O_19
REMARK    3  A    between atoms: C_6  and  C_18
REMARK    4  A    between atoms: C_7  and  S_8
REMARK    5  A    between atoms: S_8  and  N_11
REMARK    6  A    between atoms: N_11  and  C_12
REMARK    7  A    between atoms: N_11  and  C_13
REMARK    8  A    between atoms: C_13  and  C_14
REMARK    9  A    between atoms: C_14  and  C_16
REMARK   10  A    between atoms: C_14  and  O_17
REMARK   11  A    between atoms: O_19  and  C_20
REMARK                            x       y       z     vdW  Elec       q    Type
REMARK                         _______ _______ _______ _____ _____    ______ ____
ROOT
ATOM      1  C   UNL     1      -0.114   1.512   0.196  0.00  0.00    +0.046 C 
ATOM      2  C   UNL     1      -0.165   0.014   0.038  0.00  0.00    -0.020 A 
ATOM      3  C   UNL     1      -0.504  -0.540  -1.182  0.00  0.00    +0.051 A 
ATOM      4  C   UNL     1      -0.550  -1.919  -1.327  0.00  0.00    +0.121 A 
ATOM      5  C   UNL     1      -0.256  -2.738  -0.247  0.00  0.00    +0.051 A 
ATOM      6  C   UNL     1       0.082  -2.180   0.970  0.00  0.00    -0.020 A 
ATOM      7  C   UNL     1       0.134  -0.805   1.111  0.00  0.00    +0.111 A 
ATOM      8  C   UNL     1       0.402  -3.069   2.144  0.00  0.00    +0.046 C 
ENDROOT
BRANCH   7   9
ATOM      9  S   UNL     1       0.573  -0.096   2.663  0.00  0.00    +0.061 S 
ATOM     10  O   UNL     1       1.275  -1.099   3.384  0.00  0.00    -0.153 OA
ATOM     11  O   UNL     1       1.139   1.177   2.382  0.00  0.00    -0.153 OA
BRANCH   9  12
ATOM     12  N   UNL     1      -0.834   0.184   3.490  0.00  0.00    -0.177 NA
ATOM     13  C   UNL     1      -1.318  -0.796   4.465  0.00  0.00    +0.131 C 
BRANCH  12  14
ATOM     14  C   UNL     1      -1.595   1.412   3.246  0.00  0.00    +0.140 C 
BRANCH  14  15
ATOM     15  C   UNL     1      -2.686   1.139   2.209  0.00  0.00    +0.127 C 
ATOM     16  C   UNL     1      -3.399   2.447   1.862  0.00  0.00    +0.039 C 
BRANCH  15  17
ATOM     17  O   UNL     1      -3.630   0.209   2.745  0.00  0.00    -0.391 OA
ATOM     18  H   UNL     1      -4.071   0.516   3.550  0.00  0.00    +0.210 HD
ENDBRANCH  15  17
ENDBRANCH  14  15
ENDBRANCH  12  14
ENDBRANCH   9  12
ENDBRANCH   7   9
BRANCH   4  19
ATOM     19  O   UNL     1      -0.884  -2.466  -2.526  0.00  0.00    -0.495 OA
ATOM     20  C   UNL     1      -0.912  -3.892  -2.603  0.00  0.00    +0.277 C 
ENDBRANCH   4  19
TORSDOF 6
