REMARK  Name = ZINC07195024
REMARK  8 active torsions:
REMARK  status: ('A' for Active; 'I' for Inactive)
REMARK    1  A    between atoms: C_1  and  C_2
REMARK    2  A    between atoms: C_3  and  C_7
REMARK    3  A    between atoms: C_10  and  S_12
REMARK    4  A    between atoms: S_12  and  C_13
REMARK    5  A    between atoms: C_13  and  C_15
REMARK    6  A    between atoms: C_13  and  C_18
REMARK    7  A    between atoms: C_15  and  C_16
REMARK    8  A    between atoms: C_15  and  C_17
REMARK                            x       y       z     vdW  Elec       q    Type
REMARK                         _______ _______ _______ _____ _____    ______ ____
ROOT
ATOM      1  C   UNL     1       7.116   0.059  -0.067  0.00  0.00    +0.144 C 
ENDROOT
BRANCH   1   2
ATOM      2  C   UNL     1       8.280  -0.891   0.040  0.00  0.00    +0.234 C 
ATOM      3  O   UNL     1       8.161  -2.040  -0.330  0.00  0.00    -0.274 OA
ATOM      4  N   UNL     1       9.454  -0.465   0.547  0.00  0.00    -0.239 N 
ATOM      5  C   UNL     1      10.495  -1.316   0.643  0.00  0.00    +0.303 C 
ATOM      6  O   UNL     1      10.375  -2.467   0.272  0.00  0.00    -0.253 OA
ATOM      7  N   UNL     1      11.669  -0.890   1.150  0.00  0.00    -0.313 N 
ATOM      8  H   UNL     1       9.549   0.453   0.843  0.00  0.00    +0.159 HD
ATOM      9  H   UNL     1      11.764   0.029   1.446  0.00  0.00    +0.146 HD
ATOM     10  H   UNL     1      12.418  -1.502   1.218  0.00  0.00    +0.146 HD
ENDBRANCH   1   2
BRANCH   1  11
ATOM     11  C   UNL     1       7.223   0.853  -1.370  0.00  0.00    +0.005 C 
ATOM     12  C   UNL     1       8.531   1.646  -1.379  0.00  0.00    +0.009 C 
ATOM     13  C   UNL     1       7.204  -0.112  -2.558  0.00  0.00    +0.009 C 
ENDBRANCH   1  11
BRANCH   1  14
ATOM     14  S   UNL     1       5.568  -0.878  -0.057  0.00  0.00    -0.053 S 
BRANCH  14  18
ATOM     15  C   UNL     1       2.575   1.591  -0.014  0.00  0.00    +0.253 A 
ATOM     16  N   UNL     1       3.599   2.409  -0.024  0.00  0.00    -0.106 NA
ATOM     17  N   UNL     1       4.691   1.727  -0.034  0.00  0.00    -0.101 NA
ATOM     18  C   UNL     1       4.407   0.447  -0.038  0.00  0.00    +0.278 A 
ATOM     19  O   UNL     1       3.064   0.331  -0.025  0.00  0.00    -0.411 OA
BRANCH  15  22
ATOM     20  C   UNL     1       1.439   4.513   0.012  0.00  0.00    +0.087 C 
ATOM     21  C   UNL     1       0.637   3.237   0.013  0.00  0.00    +0.114 A 
ATOM     22  C   UNL     1       1.148   1.975   0.002  0.00  0.00    +0.079 A 
ATOM     23  C   UNL     1      -0.013   1.076   0.008  0.00  0.00    +0.054 A 
ATOM     24  C   UNL     1      -1.096   1.869   0.017  0.00  0.00    +0.196 A 
ATOM     25  O   UNL     1      -0.701   3.151   0.026  0.00  0.00    -0.467 OA
ENDBRANCH  15  22
ENDBRANCH  14  18
ENDBRANCH   1  14
TORSDOF 5
