REMARK  Name = ZINC60161338
REMARK  11 active torsions:
REMARK  status: ('A' for Active; 'I' for Inactive)
REMARK    1  A    between atoms: C_1  and  C_2
REMARK    2  A    between atoms: C_3  and  C_9
REMARK    3  A    between atoms: C_4  and  C_8
REMARK    4  A    between atoms: N_5  and  C_7
REMARK    5  A    between atoms: C_9  and  C_11
REMARK    6  A    between atoms: C_9  and  N_12
REMARK    7  A    between atoms: N_15  and  C_16
REMARK    8  A    between atoms: C_16  and  C_18
REMARK    9  A    between atoms: C_16  and  C_19
REMARK   10  A    between atoms: C_19  and  C_20
REMARK   11  A    between atoms: C_19  and  C_21
REMARK                            x       y       z     vdW  Elec       q    Type
REMARK                         _______ _______ _______ _____ _____    ______ ____
ROOT
ATOM      1  N   UNL     1       0.955   0.751  -2.726  0.00  0.00    -0.293 N 
ATOM      2  C   UNL     1       1.494   1.003  -3.936  0.00  0.00    +0.300 C 
ATOM      3  O   UNL     1       1.182   0.322  -4.893  0.00  0.00    -0.253 OA
ATOM      4  N   UNL     1       2.377   2.010  -4.083  0.00  0.00    -0.297 N 
ATOM      5  H   UNL     1       1.203   1.295  -1.962  0.00  0.00    +0.151 HD
ATOM      6  H   UNL     1       2.625   2.553  -3.319  0.00  0.00    +0.151 HD
ENDROOT
BRANCH   1   7
ATOM      7  C   UNL     1      -0.006  -0.343  -2.566  0.00  0.00    +0.105 C 
ATOM      8  C   UNL     1      -1.408   0.152  -2.925  0.00  0.00    +0.033 C 
BRANCH   7  11
ATOM      9  C   UNL     1      -0.018   1.503   0.010  0.00  0.00    +0.068 C 
ATOM     10  C   UNL     1       0.002  -0.004   0.002  0.00  0.00    +0.065 A 
ATOM     11  C   UNL     1       0.008  -0.818  -1.135  0.00  0.00    +0.016 A 
ATOM     12  C   UNL     1       0.028  -2.107  -0.725  0.00  0.00    +0.041 A 
ATOM     13  N   UNL     1       0.034  -2.109   0.625  0.00  0.00    -0.271 N 
ATOM     14  N   UNL     1       0.023  -0.777   1.058  0.00  0.00    -0.176 NA
ATOM     15  C   UNL     1       0.055  -3.295   1.485  0.00  0.00    +0.172 C 
ATOM     16  C   UNL     1       0.040  -3.323  -1.615  0.00  0.00    +0.065 C 
ENDBRANCH   7  11
ENDBRANCH   1   7
BRANCH   4  17
ATOM     17  C   UNL     1       2.963   2.283  -5.398  0.00  0.00    +0.074 C 
ATOM     18  C   UNL     1       4.179   1.380  -5.612  0.00  0.00    +0.028 C 
BRANCH  17  19
ATOM     19  C   UNL     1       3.397   3.748  -5.468  0.00  0.00    +0.003 C 
ATOM     20  C   UNL     1       4.525   3.995  -4.463  0.00  0.00    +0.009 C 
ATOM     21  C   UNL     1       3.894   4.066  -6.880  0.00  0.00    +0.009 C 
ENDBRANCH  17  19
ENDBRANCH   4  17
TORSDOF 4
