REMARK  Name = ZINC22055501
REMARK  12 active torsions:
REMARK  status: ('A' for Active; 'I' for Inactive)
REMARK    1  A    between atoms: C_1  and  C_2
REMARK    2  A    between atoms: C_2  and  N_3
REMARK    3  A    between atoms: C_6  and  C_19
REMARK    4  A    between atoms: C_7  and  N_18
REMARK    5  A    between atoms: N_8  and  C_11
REMARK    6  A    between atoms: C_11  and  C_12
REMARK    7  A    between atoms: C_19  and  C_21
REMARK    8  A    between atoms: C_21  and  O_22
REMARK    9  A    between atoms: O_22  and  C_23
REMARK   10  A    between atoms: C_23  and  C_25
REMARK   11  A    between atoms: C_28  and  O_32
REMARK   12  A    between atoms: C_30  and  O_31
REMARK                            x       y       z     vdW  Elec       q    Type
REMARK                         _______ _______ _______ _____ _____    ______ ____
ROOT
ATOM      1  N   UNL     1       0.838  -0.455  -1.136  0.00  0.00    -0.260 N 
ATOM      2  C   UNL     1      -0.002  -0.653  -2.173  0.00  0.00    +0.269 A 
ATOM      3  O   UNL     1      -1.192  -0.425  -2.061  0.00  0.00    -0.267 OA
ATOM      4  C   UNL     1       0.550  -1.149  -3.440  0.00  0.00    +0.123 A 
ATOM      5  C   UNL     1       1.933  -1.392  -3.503  0.00  0.00    +0.116 A 
ATOM      6  N   UNL     1       2.696  -1.159  -2.395  0.00  0.00    -0.277 N 
ATOM      7  C   UNL     1       2.152  -0.700  -1.257  0.00  0.00    +0.334 A 
ATOM      8  O   UNL     1       2.875  -0.503  -0.300  0.00  0.00    -0.246 OA
ENDROOT
BRANCH   5   9
ATOM      9  N   UNL     1       2.503  -1.853  -4.650  0.00  0.00    -0.344 N 
ATOM     10  H   UNL     1       1.969  -1.939  -5.456  0.00  0.00    +0.144 HD
ATOM     11  H   UNL     1       3.442  -2.096  -4.662  0.00  0.00    +0.144 HD
ENDBRANCH   5   9
BRANCH   1  13
ATOM     12  C   UNL     1       0.337   1.569   0.142  0.00  0.00    +0.027 C 
ATOM     13  C   UNL     1       0.309   0.040   0.138  0.00  0.00    +0.126 C 
ENDBRANCH   1  13
BRANCH   4  14
ATOM     14  C   UNL     1      -0.281  -1.375  -4.558  0.00  0.00    +0.209 C 
ATOM     15  O   UNL     1       0.209  -1.683  -5.626  0.00  0.00    -0.288 OA
BRANCH  14  16
ATOM     16  C   UNL     1      -1.775  -1.235  -4.426  0.00  0.00    +0.312 C 
BRANCH  16  17
ATOM     17  O   UNL     1      -2.393  -1.512  -5.685  0.00  0.00    -0.453 OA
BRANCH  17  18
ATOM     18  C   UNL     1      -3.737  -1.430  -5.739  0.00  0.00    +0.343 C 
ATOM     19  O   UNL     1      -4.368  -1.131  -4.744  0.00  0.00    -0.245 OA
BRANCH  18  20
ATOM     20  C   UNL     1      -4.441  -1.702  -7.002  0.00  0.00    +0.100 A 
ATOM     21  C   UNL     1      -3.718  -2.052  -8.148  0.00  0.00    +0.022 A 
ATOM     22  C   UNL     1      -4.372  -2.304  -9.319  0.00  0.00    +0.046 A 
ATOM     23  C   UNL     1      -5.760  -2.215  -9.384  0.00  0.00    +0.120 A 
ATOM     24  C   UNL     1      -6.492  -1.870  -8.257  0.00  0.00    +0.091 A 
ATOM     25  C   UNL     1      -5.841  -1.618  -7.061  0.00  0.00    +0.134 A 
BRANCH  25  26
ATOM     26  O   UNL     1      -6.551  -1.285  -5.955  0.00  0.00    -0.506 OA
ATOM     27  H   UNL     1      -6.697  -0.335  -5.852  0.00  0.00    +0.292 HD
ENDBRANCH  25  26
BRANCH  23  28
ATOM     28  O   UNL     1      -6.399  -2.467 -10.554  0.00  0.00    -0.507 OA
ATOM     29  H   UNL     1      -6.649  -3.394 -10.674  0.00  0.00    +0.292 HD
ENDBRANCH  23  28
ENDBRANCH  18  20
ENDBRANCH  17  18
ENDBRANCH  16  17
ENDBRANCH  14  16
ENDBRANCH   4  14
BRANCH   6  30
ATOM     30  C   UNL     1       4.139  -1.409  -2.451  0.00  0.00    +0.163 C 
BRANCH  30  31
ATOM     31  C   UNL     1       4.849  -0.158  -2.900  0.00  0.00    -0.028 A 
ATOM     32  C   UNL     1       5.065   0.069  -4.246  0.00  0.00    +0.005 A 
ATOM     33  C   UNL     1       5.716   1.217  -4.658  0.00  0.00    +0.000 A 
ATOM     34  C   UNL     1       6.151   2.138  -3.724  0.00  0.00    +0.000 A 
ATOM     35  C   UNL     1       5.934   1.911  -2.377  0.00  0.00    +0.000 A 
ATOM     36  C   UNL     1       5.279   0.765  -1.966  0.00  0.00    +0.005 A 
ENDBRANCH  30  31
ENDBRANCH   6  30
TORSDOF 11
