REMARK  Name = ZINC49518459
REMARK  6 active torsions:
REMARK  status: ('A' for Active; 'I' for Inactive)
REMARK    1  A    between atoms: C_1  and  C_2
REMARK    2  A    between atoms: C_5  and  C_7
REMARK    3  A    between atoms: C_7  and  N_8
REMARK    4  A    between atoms: N_11  and  C_12
REMARK    5  A    between atoms: C_12  and  C_14
REMARK    6  A    between atoms: C_12  and  C_15
REMARK                            x       y       z     vdW  Elec       q    Type
REMARK                         _______ _______ _______ _____ _____    ______ ____
ROOT
ATOM      1  N   UNL     1       2.385   0.008   3.006  0.00  0.00    -0.299 N 
ATOM      2  C   UNL     1       2.893   0.329   4.212  0.00  0.00    +0.300 C 
ATOM      3  O   UNL     1       2.832   1.476   4.612  0.00  0.00    -0.253 OA
ATOM      4  N   UNL     1       3.470  -0.621   4.975  0.00  0.00    -0.288 N 
ATOM      5  H   UNL     1       2.433  -0.907   2.687  0.00  0.00    +0.150 HD
ATOM      6  H   UNL     1       3.518  -1.536   4.656  0.00  0.00    +0.151 HD
ENDROOT
BRANCH   4   7
ATOM      7  C   UNL     1       4.022  -0.272   6.286  0.00  0.00    +0.157 C 
ATOM      8  C   UNL     1       2.910  -0.311   7.335  0.00  0.00    +0.038 C 
BRANCH   7   9
ATOM      9  C   UNL     1       5.098  -1.260   6.657  0.00  0.00    +0.236 C 
ATOM     10  O   UNL     1       5.070  -2.385   6.204  0.00  0.00    -0.274 OA
ATOM     11  N   UNL     1       6.090  -0.894   7.492  0.00  0.00    -0.300 N 
ATOM     12  C   UNL     1       6.076   0.425   8.139  0.00  0.00    +0.108 C 
ATOM     13  C   UNL     1       6.221   0.233   9.652  0.00  0.00    +0.019 C 
ATOM     14  C   UNL     1       7.475  -0.595   9.940  0.00  0.00    +0.003 C 
ATOM     15  C   UNL     1       7.339  -1.973   9.289  0.00  0.00    +0.019 C 
ATOM     16  C   UNL     1       7.204  -1.809   7.777  0.00  0.00    +0.108 C 
ENDBRANCH   7   9
ENDBRANCH   4   7
BRANCH   1  17
ATOM     17  C   UNL     1       1.758   1.040   2.176  0.00  0.00    +0.109 C 
BRANCH  17  21
ATOM     18  C   UNL     1       0.639   2.849   0.143  0.00  0.00    +0.008 C 
ATOM     19  C   UNL     1       0.686   1.357  -0.189  0.00  0.00    -0.009 C 
ATOM     20  C   UNL     1      -0.239   0.428   0.601  0.00  0.00    +0.009 C 
ATOM     21  C   UNL     1       1.268   0.416   0.869  0.00  0.00    +0.009 C 
ENDBRANCH  17  21
ENDBRANCH   1  17
TORSDOF 4
