REMARK  Name = ZINC43526661
REMARK  10 active torsions:
REMARK  status: ('A' for Active; 'I' for Inactive)
REMARK    1  A    between atoms: C_1  and  C_2
REMARK    2  A    between atoms: N_4  and  C_5
REMARK    3  A    between atoms: C_5  and  C_6
REMARK    4  A    between atoms: C_15  and  C_17
REMARK    5  A    between atoms: C_19  and  C_23
REMARK    6  A    between atoms: N_21  and  C_22
REMARK    7  A    between atoms: C_26  and  O_31
REMARK    8  A    between atoms: C_27  and  O_29
REMARK    9  A    between atoms: O_29  and  C_30
REMARK   10  A    between atoms: O_31  and  C_32
REMARK                            x       y       z     vdW  Elec       q    Type
REMARK                         _______ _______ _______ _____ _____    ______ ____
ROOT
ATOM      1  C   UNL     1      -5.479  -4.455   2.572  0.00  0.00    +0.041 A 
ATOM      2  C   UNL     1      -5.402  -3.808   3.755  0.00  0.00    +0.053 A 
ATOM      3  C   UNL     1      -6.255  -4.464   4.663  0.00  0.00    +0.093 A 
ATOM      4  N   UNL     1      -6.821  -5.471   4.031  0.00  0.00    -0.171 NA
ATOM      5  N   UNL     1      -6.349  -5.478   2.712  0.00  0.00    -0.271 N 
ATOM      6  C   UNL     1      -6.730  -6.433   1.668  0.00  0.00    +0.172 C 
ENDROOT
BRANCH   1  14
ATOM      7  C   UNL     1      -2.495  -2.799   0.026  0.00  0.00    -0.051 C 
ATOM      8  C   UNL     1      -2.589  -4.326   0.068  0.00  0.00    -0.010 C 
ATOM      9  C   UNL     1      -3.340  -4.740   1.340  0.00  0.00    -0.007 C 
ATOM     10  C   UNL     1      -2.562  -4.214   2.554  0.00  0.00    -0.015 C 
ATOM     11  C   UNL     1      -2.447  -2.692   2.444  0.00  0.00    -0.078 C 
ATOM     12  N   UNL     1      -3.146  -2.226   1.206  0.00  0.00    +0.383 N 
ATOM     13  C   UNL     1      -4.568  -2.577   1.233  0.00  0.00    -0.068 C 
ATOM     14  C   UNL     1      -4.731  -4.095   1.314  0.00  0.00    +0.024 C 
ATOM     15  H   UNL     1      -3.075  -1.220   1.154  0.00  0.00    -0.081 HD
BRANCH   7  16
ATOM     16  C   UNL     1      -1.024  -2.381   0.004  0.00  0.00    +0.089 C 
BRANCH  16  20
ATOM     17  C   UNL     1       0.375   1.179   0.152  0.00  0.00    +0.109 C 
ATOM     18  C   UNL     1       0.278  -0.323   0.075  0.00  0.00    +0.210 C 
ATOM     19  O   UNL     1       1.287  -0.993   0.010  0.00  0.00    -0.276 OA
ATOM     20  N   UNL     1      -0.929  -0.921   0.079  0.00  0.00    -0.317 N 
ATOM     21  H   UNL     1      -1.736  -0.385   0.131  0.00  0.00    +0.149 HD
ENDBRANCH  16  20
ENDBRANCH   7  16
ENDBRANCH   1  14
BRANCH   3  22
ATOM     22  C   UNL     1      -6.478  -4.087   6.081  0.00  0.00    +0.006 A 
ATOM     23  C   UNL     1      -5.814  -2.988   6.623  0.00  0.00    +0.014 A 
ATOM     24  C   UNL     1      -6.021  -2.638   7.942  0.00  0.00    +0.050 A 
ATOM     25  C   UNL     1      -6.890  -3.378   8.730  0.00  0.00    +0.162 A 
ATOM     26  C   UNL     1      -7.556  -4.476   8.193  0.00  0.00    +0.162 A 
ATOM     27  C   UNL     1      -7.355  -4.828   6.870  0.00  0.00    +0.059 A 
BRANCH  26  28
ATOM     28  O   UNL     1      -8.407  -5.201   8.968  0.00  0.00    -0.491 OA
ATOM     29  C   UNL     1      -9.056  -6.314   8.351  0.00  0.00    +0.277 C 
ENDBRANCH  26  28
BRANCH  25  30
ATOM     30  O   UNL     1      -7.091  -3.030  10.029  0.00  0.00    -0.491 OA
ATOM     31  C   UNL     1      -6.375  -1.892  10.514  0.00  0.00    +0.277 C 
ENDBRANCH  25  30
ENDBRANCH   3  22
TORSDOF 6
