REMARK  Name = ZINC07708695
REMARK  5 active torsions:
REMARK  status: ('A' for Active; 'I' for Inactive)
REMARK    1  A    between atoms: C_3  and  S_9
REMARK    2  A    between atoms: C_6  and  C_7
REMARK    3  A    between atoms: S_9  and  N_12
REMARK    4  A    between atoms: N_12  and  C_13
REMARK    5  A    between atoms: C_16  and  N_20
REMARK                            x       y       z     vdW  Elec       q    Type
REMARK                         _______ _______ _______ _____ _____    ______ ____
ROOT
ATOM      1  N   UNL     1       4.324   2.568   1.557  0.00  0.00    -0.098 NA
ENDROOT
BRANCH   1   2
ATOM      2  C   UNL     1       5.498   3.268   1.859  0.00  0.00    +0.077 A 
ATOM      3  C   UNL     1       6.295   3.764   0.836  0.00  0.00    +0.048 A 
ATOM      4  C   UNL     1       7.454   4.455   1.134  0.00  0.00    +0.065 A 
ATOM      5  C   UNL     1       7.821   4.654   2.459  0.00  0.00    +0.062 A 
ATOM      6  C   UNL     1       7.024   4.159   3.483  0.00  0.00    +0.065 A 
ATOM      7  C   UNL     1       5.863   3.472   3.184  0.00  0.00    +0.048 A 
ATOM      8 CL   UNL     1       7.484   4.408   5.138  0.00  0.00    -0.082 Cl
ATOM      9 CL   UNL     1       8.450   5.073  -0.146  0.00  0.00    -0.082 Cl
BRANCH   5  10
ATOM     10  N   UNL     1       8.997   5.354   2.762  0.00  0.00    -0.356 N 
ATOM     11  H   UNL     1       9.554   5.700   2.047  0.00  0.00    +0.142 HD
ATOM     12  H   UNL     1       9.254   5.494   3.687  0.00  0.00    +0.142 HD
ENDBRANCH   5  10
ENDBRANCH   1   2
BRANCH   1  13
ATOM     13  S   UNL     1       3.889   2.325  -0.023  0.00  0.00    +0.092 S 
ATOM     14  O   UNL     1       4.872   1.468  -0.587  0.00  0.00    -0.148 OA
ATOM     15  O   UNL     1       3.592   3.605  -0.564  0.00  0.00    -0.148 OA
BRANCH  13  18
ATOM     16  C   UNL     1      -0.017   1.392   0.010  0.00  0.00    +0.021 A 
ATOM     17  C   UNL     1       1.170   2.095   0.002  0.00  0.00    +0.030 A 
ATOM     18  C   UNL     1       2.378   1.419  -0.013  0.00  0.00    +0.110 A 
ATOM     19  C   UNL     1       2.404   0.036  -0.021  0.00  0.00    +0.030 A 
ATOM     20  C   UNL     1       1.224  -0.679  -0.014  0.00  0.00    +0.021 A 
ATOM     21  C   UNL     1       0.002  -0.004   0.002  0.00  0.00    +0.052 A 
BRANCH  21  22
ATOM     22  C   UNL     1      -1.226  -0.740   0.010  0.00  0.00    +0.099 C 
ATOM     23  N   UNL     1      -2.201  -1.324   0.017  0.00  0.00    -0.191 NA
ENDBRANCH  21  22
ENDBRANCH  13  18
ENDBRANCH   1  13
TORSDOF 5
