REMARK  Name = ZINC58012930
REMARK  11 active torsions:
REMARK  status: ('A' for Active; 'I' for Inactive)
REMARK    1  A    between atoms: C_1  and  C_2
REMARK    2  A    between atoms: C_2  and  C_24
REMARK    3  A    between atoms: N_5  and  C_9
REMARK    4  A    between atoms: C_9  and  C_10
REMARK    5  A    between atoms: C_10  and  C_12
REMARK    6  A    between atoms: C_10  and  O_23
REMARK    7  A    between atoms: C_12  and  O_13
REMARK    8  A    between atoms: O_13  and  C_14
REMARK    9  A    between atoms: C_14  and  C_15
REMARK   10  A    between atoms: C_20  and  O_21
REMARK   11  A    between atoms: O_21  and  C_22
REMARK                            x       y       z     vdW  Elec       q    Type
REMARK                         _______ _______ _______ _____ _____    ______ ____
ROOT
ATOM      1  C   UNL     1      -0.019   1.526   0.010  0.00  0.00    +0.047 C 
ATOM      2  C   UNL     1       0.002  -0.004   0.002  0.00  0.00    +0.135 C 
ATOM      3  C   UNL     1      -1.403  -0.557   0.139  0.00  0.00    +0.251 C 
ATOM      4  O   UNL     1      -2.332  -0.392  -0.621  0.00  0.00    -0.272 OA
ATOM      5  N   UNL     1      -1.403  -1.272   1.282  0.00  0.00    -0.221 N 
ATOM      6  C   UNL     1      -0.206  -1.247   1.879  0.00  0.00    +0.310 C 
ATOM      7  O   UNL     1       0.040  -1.819   2.924  0.00  0.00    -0.252 OA
ATOM      8  N   UNL     1       0.695  -0.520   1.195  0.00  0.00    -0.281 N 
ATOM      9  H   UNL     1       1.621  -0.365   1.440  0.00  0.00    +0.152 HD
ENDROOT
BRANCH   2  10
ATOM     10  C   UNL     1       0.657  -0.517  -1.255  0.00  0.00    -0.012 A 
ATOM     11  C   UNL     1      -0.109  -0.772  -2.377  0.00  0.00    +0.010 A 
ATOM     12  C   UNL     1       0.488  -1.243  -3.531  0.00  0.00    +0.050 A 
ATOM     13  C   UNL     1       1.857  -1.462  -3.566  0.00  0.00    +0.162 A 
ATOM     14  C   UNL     1       2.627  -1.204  -2.438  0.00  0.00    +0.162 A 
ATOM     15  C   UNL     1       2.023  -0.727  -1.285  0.00  0.00    +0.055 A 
ATOM     16  O   UNL     1       3.973  -1.404  -2.453  0.00  0.00    -0.485 OA
ATOM     17  C   UNL     1       4.490  -2.228  -3.504  0.00  0.00    +0.270 C 
ATOM     18  C   UNL     1       3.849  -1.780  -4.825  0.00  0.00    +0.270 C 
ATOM     19  O   UNL     1       2.430  -1.931  -4.708  0.00  0.00    -0.485 OA
ENDBRANCH   2  10
BRANCH   5  20
ATOM     20  C   UNL     1      -2.569  -1.986   1.805  0.00  0.00    +0.151 C 
BRANCH  20  21
ATOM     21  C   UNL     1      -2.585  -3.413   1.252  0.00  0.00    +0.158 C 
BRANCH  21  22
ATOM     22  O   UNL     1      -1.450  -4.128   1.745  0.00  0.00    -0.388 OA
ATOM     23  H   UNL     1      -1.418  -4.196   2.709  0.00  0.00    +0.210 HD
ENDBRANCH  21  22
BRANCH  21  24
ATOM     24  C   UNL     1      -3.867  -4.119   1.697  0.00  0.00    +0.193 C 
BRANCH  24  25
ATOM     25  O   UNL     1      -3.937  -5.409   1.086  0.00  0.00    -0.372 OA
BRANCH  25  26
ATOM     26  C   UNL     1      -5.103  -6.156   1.438  0.00  0.00    +0.198 C 
BRANCH  26  27
ATOM     27  C   UNL     1      -5.074  -7.491   0.740  0.00  0.00    +0.020 A 
ATOM     28  C   UNL     1      -4.014  -7.818  -0.084  0.00  0.00    +0.009 A 
ATOM     29  C   UNL     1      -3.986  -9.042  -0.725  0.00  0.00    +0.001 A 
ATOM     30  C   UNL     1      -5.019  -9.944  -0.542  0.00  0.00    +0.004 A 
ATOM     31  C   UNL     1      -6.080  -9.623   0.281  0.00  0.00    +0.046 A 
ATOM     32  C   UNL     1      -6.108  -8.396   0.929  0.00  0.00    +0.125 A 
BRANCH  32  33
ATOM     33  O   UNL     1      -7.148  -8.080   1.744  0.00  0.00    -0.495 OA
ATOM     34  C   UNL     1      -8.178  -9.061   1.892  0.00  0.00    +0.277 C 
ENDBRANCH  32  33
ENDBRANCH  26  27
ENDBRANCH  25  26
ENDBRANCH  24  25
ENDBRANCH  21  24
ENDBRANCH  20  21
ENDBRANCH   5  20
TORSDOF 9
