REMARK  Name = ZINC53112663
REMARK  6 active torsions:
REMARK  status: ('A' for Active; 'I' for Inactive)
REMARK    1  A    between atoms: C_3  and  N_19
REMARK    2  A    between atoms: C_5  and  S_7
REMARK    3  A    between atoms: S_7  and  N_10
REMARK    4  A    between atoms: N_10  and  C_11
REMARK    5  A    between atoms: C_11  and  C_17
REMARK    6  A    between atoms: C_17  and  O_18
REMARK                            x       y       z     vdW  Elec       q    Type
REMARK                         _______ _______ _______ _____ _____    ______ ____
ROOT
ATOM      1  S   UNL     1       1.575  -3.332   0.187  0.00  0.00    +0.059 S 
ATOM      2  O   UNL     1       0.464  -4.114  -0.232  0.00  0.00    -0.153 OA
ATOM      3  O   UNL     1       2.914  -3.678  -0.138  0.00  0.00    -0.153 OA
ENDROOT
BRANCH   1   8
ATOM      4  C   UNL     1      -0.121  -0.096  -1.489  0.00  0.00    +0.004 A 
ATOM      5  C   UNL     1       0.883   0.850  -1.414  0.00  0.00    +0.023 A 
ATOM      6  C   UNL     1       2.107   0.518  -0.847  0.00  0.00    +0.026 A 
ATOM      7  C   UNL     1       2.317  -0.764  -0.356  0.00  0.00    +0.051 A 
ATOM      8  C   UNL     1       1.309  -1.705  -0.434  0.00  0.00    +0.107 A 
ATOM      9  C   UNL     1       0.092  -1.372  -1.000  0.00  0.00    +0.028 A 
BRANCH   6  10
ATOM     10  N   UNL     1       3.124   1.473  -0.770  0.00  0.00    -0.358 N 
ATOM     11  H   UNL     1       2.976   2.368  -1.113  0.00  0.00    +0.142 HD
ATOM     12  H   UNL     1       3.978   1.240  -0.374  0.00  0.00    +0.142 HD
ENDBRANCH   6  10
ENDBRANCH   1   8
BRANCH   1  13
ATOM     13  N   UNL     1       1.496  -3.245   1.839  0.00  0.00    -0.182 NA
ATOM     14  H   UNL     1       2.257  -3.514   2.376  0.00  0.00    +0.149 HD
BRANCH  13  15
ATOM     15  C   UNL     1       0.275  -2.760   2.489  0.00  0.00    +0.063 C 
ATOM     16  C   UNL     1       0.028  -1.304   2.089  0.00  0.00    +0.026 C 
ATOM     17  C   UNL     1       1.215  -0.446   2.528  0.00  0.00    +0.002 C 
ATOM     18  C   UNL     1       1.376  -0.537   4.047  0.00  0.00    +0.000 C 
ATOM     19  C   UNL     1       1.624  -1.993   4.447  0.00  0.00    +0.002 C 
ATOM     20  C   UNL     1       0.436  -2.852   4.008  0.00  0.00    +0.026 C 
BRANCH  15  21
ATOM     21  C   UNL     1      -0.912  -3.619   2.049  0.00  0.00    +0.179 C 
BRANCH  21  22
ATOM     22  O   UNL     1      -1.328  -3.223   0.741  0.00  0.00    -0.393 OA
ATOM     23  H   UNL     1      -2.079  -3.726   0.398  0.00  0.00    +0.209 HD
ENDBRANCH  21  22
ENDBRANCH  15  21
ENDBRANCH  13  15
ENDBRANCH   1  13
TORSDOF 6
