REMARK  Name = ZINC38498696
REMARK  8 active torsions:
REMARK  status: ('A' for Active; 'I' for Inactive)
REMARK    1  A    between atoms: C_1  and  C_2
REMARK    2  A    between atoms: C_2  and  C_3
REMARK    3  A    between atoms: C_3  and  C_5
REMARK    4  A    between atoms: C_3  and  N_6
REMARK    5  A    between atoms: C_7  and  C_9
REMARK    6  A    between atoms: C_9  and  C_10
REMARK    7  A    between atoms: C_12  and  C_15
REMARK    8  A    between atoms: C_22  and  C_25
REMARK                            x       y       z     vdW  Elec       q    Type
REMARK                         _______ _______ _______ _____ _____    ______ ____
ROOT
ATOM      1  C   UNL     1       0.799   0.447   6.036  0.00  0.00    +0.093 A 
ATOM      2  C   UNL     1       0.963   1.550   6.886  0.00  0.00    +0.076 A 
ATOM      3  C   UNL     1       1.899   1.226   7.819  0.00  0.00    +0.167 A 
ATOM      4  O   UNL     1       2.309  -0.032   7.569  0.00  0.00    -0.354 OA
ATOM      5  N   UNL     1       1.595  -0.503   6.440  0.00  0.00    -0.082 NA
ENDROOT
BRANCH   3   6
ATOM      6  C   UNL     1       2.379   2.097   8.912  0.00  0.00    +0.020 A 
ATOM      7  C   UNL     1       1.863   3.386   9.062  0.00  0.00    +0.015 A 
ATOM      8  C   UNL     1       2.307   4.195  10.083  0.00  0.00    +0.046 A 
ATOM      9  C   UNL     1       3.277   3.738  10.975  0.00  0.00    +0.124 A 
ATOM     10  C   UNL     1       3.793   2.456  10.815  0.00  0.00    -0.002 A 
ATOM     11  C   UNL     1       3.349   1.637   9.806  0.00  0.00    +0.019 A 
ATOM     12  C   UNL     1       4.830   2.256  11.904  0.00  0.00    +0.083 C 
ATOM     13  C   UNL     1       5.070   3.706  12.387  0.00  0.00    +0.175 C 
ATOM     14  O   UNL     1       3.838   4.364  12.046  0.00  0.00    -0.488 OA
ATOM     15  C   UNL     1       5.308   3.742  13.898  0.00  0.00    +0.052 C 
ENDBRANCH   3   6
BRANCH   1  16
ATOM     16  C   UNL     1      -0.142   0.370   4.861  0.00  0.00    +0.154 C 
BRANCH  16  18
ATOM     17  N   UNL     1      -0.008  -0.140   2.444  0.00  0.00    -0.312 N 
ATOM     18  C   UNL     1       0.630  -0.011   3.624  0.00  0.00    +0.219 C 
ATOM     19  O   UNL     1       1.826  -0.202   3.690  0.00  0.00    -0.275 OA
ATOM     20  H   UNL     1      -0.965   0.013   2.391  0.00  0.00    +0.149 HD
BRANCH  17  21
ATOM     21  C   UNL     1       0.742  -0.511   1.242  0.00  0.00    +0.070 C 
ATOM     22  C   UNL     1       0.872  -2.034   1.171  0.00  0.00    +0.028 C 
BRANCH  21  24
ATOM     23  C   UNL     1      -0.019   1.526   0.010  0.00  0.00    +0.005 C 
ATOM     24  C   UNL     1       0.002  -0.004   0.002  0.00  0.00    +0.018 C 
ENDBRANCH  21  24
ENDBRANCH  17  21
ENDBRANCH  16  18
ENDBRANCH   1  16
TORSDOF 5
