REMARK  Name = ZINC06115456
REMARK  4 active torsions:
REMARK  status: ('A' for Active; 'I' for Inactive)
REMARK    1  A    between atoms: C_4  and  C_13
REMARK    2  A    between atoms: C_11  and  O_12
REMARK    3  A    between atoms: C_13  and  S_14
REMARK    4  A    between atoms: S_14  and  C_15
REMARK                            x       y       z     vdW  Elec       q    Type
REMARK                         _______ _______ _______ _____ _____    ______ ____
ROOT
ATOM      1  C   UNL     1      -1.203   1.744   0.017  0.00  0.00    +0.046 A 
ATOM      2  C   UNL     1      -0.013   1.076   0.008  0.00  0.00    +0.015 A 
ATOM      3  C   UNL     1       1.188   1.794   0.000  0.00  0.00    +0.022 A 
ATOM      4  C   UNL     1       2.480   1.104  -0.016  0.00  0.00    -0.020 A 
ATOM      5  C   UNL     1       3.610   1.857  -0.025  0.00  0.00    +0.097 A 
ATOM      6  C   UNL     1       3.515   3.264  -0.016  0.00  0.00    +0.338 A 
ATOM      7  O   UNL     1       4.537   3.928  -0.023  0.00  0.00    -0.245 OA
ATOM      8  O   UNL     1       2.329   3.891  -0.000  0.00  0.00    -0.422 OA
ATOM      9  C   UNL     1       1.167   3.201   0.008  0.00  0.00    +0.143 A 
ATOM     10  C   UNL     1      -0.050   3.864   0.024  0.00  0.00    +0.092 A 
ATOM     11  C   UNL     1      -1.230   3.137   0.032  0.00  0.00    +0.120 A 
ENDROOT
BRANCH  11  12
ATOM     12  O   UNL     1      -2.421   3.788   0.046  0.00  0.00    -0.507 OA
ATOM     13  H   UNL     1      -2.775   3.980  -0.833  0.00  0.00    +0.292 HD
ENDBRANCH  11  12
BRANCH   4  14
ATOM     14  C   UNL     1       2.553  -0.401  -0.025  0.00  0.00    +0.112 C 
BRANCH  14  15
ATOM     15  S   UNL     1       2.565  -0.995  -1.734  0.00  0.00    -0.100 S 
BRANCH  15  16
ATOM     16  C   UNL     1       2.652  -2.733  -1.454  0.00  0.00    +0.109 A 
ATOM     17  C   UNL     1       2.685  -3.639  -2.551  0.00  0.00    +0.039 A 
ATOM     18  C   UNL     1       2.658  -3.371  -3.978  0.00  0.00    +0.020 A 
ATOM     19  C   UNL     1       2.699  -4.399  -4.838  0.00  0.00    +0.048 A 
ATOM     20  S   UNL     1       2.779  -5.828  -3.775  0.00  0.00    -0.077 S 
ATOM     21  C   UNL     1       2.755  -5.005  -2.205  0.00  0.00    +0.112 A 
ATOM     22  N   UNL     1       2.786  -5.395  -0.945  0.00  0.00    -0.228 NA
ATOM     23  C   UNL     1       2.753  -4.507   0.029  0.00  0.00    +0.223 A 
ATOM     24  N   UNL     1       2.693  -3.211  -0.221  0.00  0.00    -0.229 NA
ENDBRANCH  15  16
ENDBRANCH  14  15
ENDBRANCH   4  14
TORSDOF 4
