REMARK  Name = ZINC38866343
REMARK  6 active torsions:
REMARK  status: ('A' for Active; 'I' for Inactive)
REMARK    1  A    between atoms: C_1  and  C_2
REMARK    2  A    between atoms: C_4  and  N_21
REMARK    3  A    between atoms: C_9  and  C_12
REMARK    4  A    between atoms: C_22  and  C_24
REMARK    5  A    between atoms: C_24  and  O_25
REMARK    6  A    between atoms: O_25  and  C_26
REMARK                            x       y       z     vdW  Elec       q    Type
REMARK                         _______ _______ _______ _____ _____    ______ ____
ROOT
ATOM      1  C   UNL     1      -0.018   1.503   0.010  0.00  0.00    +0.067 C 
ATOM      2  C   UNL     1       0.002  -0.004   0.002  0.00  0.00    +0.062 A 
ATOM      3  C   UNL     1       0.008  -0.815  -1.137  0.00  0.00    +0.068 A 
ATOM      4  C   UNL     1       0.028  -2.112  -0.727  0.00  0.00    +0.131 A 
ATOM      5  N   UNL     1       0.035  -2.109   0.635  0.00  0.00    -0.194 N 
ATOM      6  N   UNL     1       0.023  -0.774   1.060  0.00  0.00    -0.168 NA
ATOM      7  C   UNL     1       0.055  -3.232   1.459  0.00  0.00    +0.196 A 
ATOM      8  N   UNL     1       0.057  -3.301   2.776  0.00  0.00    -0.218 NA
ATOM      9  C   UNL     1       0.077  -4.467   3.405  0.00  0.00    +0.115 A 
ATOM     10  C   UNL     1       0.097  -5.624   2.671  0.00  0.00    +0.080 A 
ATOM     11  S   UNL     1       0.076  -4.962   1.010  0.00  0.00    -0.056 S 
ENDROOT
BRANCH   9  12
ATOM     12  C   UNL     1       0.080  -4.519   4.882  0.00  0.00    +0.155 A 
ATOM     13  C   UNL     1       0.056  -3.438   5.699  0.00  0.00    +0.060 A 
ATOM     14  C   UNL     1       0.068  -3.963   7.067  0.00  0.00    +0.021 A 
ATOM     15  C   UNL     1       0.056  -3.379   8.334  0.00  0.00    +0.011 A 
ATOM     16  C   UNL     1       0.074  -4.173   9.447  0.00  0.00    +0.001 A 
ATOM     17  C   UNL     1       0.105  -5.554   9.323  0.00  0.00    +0.004 A 
ATOM     18  C   UNL     1       0.117  -6.150   8.080  0.00  0.00    +0.047 A 
ATOM     19  C   UNL     1       0.099  -5.363   6.936  0.00  0.00    +0.136 A 
ATOM     20  O   UNL     1       0.099  -5.648   5.617  0.00  0.00    -0.453 OA
ENDBRANCH   9  12
BRANCH   4  21
ATOM     21  N   UNL     1       0.040  -3.237  -1.550  0.00  0.00    -0.267 N 
ATOM     22  C   UNL     1       0.031  -3.093  -2.889  0.00  0.00    +0.256 C 
ATOM     23  O   UNL     1       0.013  -1.983  -3.380  0.00  0.00    -0.272 OA
ATOM     24  H   UNL     1       0.054  -4.125  -1.158  0.00  0.00    +0.156 HD
BRANCH  22  25
ATOM     25  C   UNL     1       0.043  -4.309  -3.779  0.00  0.00    +0.324 C 
BRANCH  25  26
ATOM     26  O   UNL     1       0.031  -3.899  -5.147  0.00  0.00    -0.483 OA
BRANCH  26  27
ATOM     27  C   UNL     1       0.040  -4.881  -6.086  0.00  0.00    +0.122 A 
ATOM     28  C   UNL     1       0.055  -6.221  -5.684  0.00  0.00    +0.046 A 
ATOM     29  C   UNL     1       0.064  -7.226  -6.599  0.00  0.00    +0.012 A 
ATOM     30  C   UNL     1       0.058  -6.919  -7.971  0.00  0.00    -0.018 A 
ATOM     31  C   UNL     1       0.067  -7.933  -8.944  0.00  0.00    +0.008 A 
ATOM     32  C   UNL     1       0.060  -7.600 -10.264  0.00  0.00    +0.001 A 
ATOM     33  C   UNL     1       0.046  -6.267 -10.668  0.00  0.00    +0.001 A 
ATOM     34  C   UNL     1       0.037  -5.258  -9.754  0.00  0.00    +0.008 A 
ATOM     35  C   UNL     1       0.043  -5.563  -8.382  0.00  0.00    -0.014 A 
ATOM     36  C   UNL     1       0.029  -4.548  -7.411  0.00  0.00    +0.054 A 
ENDBRANCH  26  27
ENDBRANCH  25  26
ENDBRANCH  22  25
ENDBRANCH   4  21
TORSDOF 5
