REMARK  Name = ZINC63492699
REMARK  5 active torsions:
REMARK  status: ('A' for Active; 'I' for Inactive)
REMARK    1  A    between atoms: C_1  and  C_2
REMARK    2  A    between atoms: C_2  and  C_3
REMARK    3  A    between atoms: C_3  and  C_5
REMARK    4  A    between atoms: C_3  and  N_6
REMARK    5  A    between atoms: C_9  and  C_15
REMARK                            x       y       z     vdW  Elec       q    Type
REMARK                         _______ _______ _______ _____ _____    ______ ____
ROOT
ATOM      1  C   UNL     1      -4.807   1.984  -2.615  0.00  0.00    -0.003 C 
ATOM      2  C   UNL     1      -4.391   3.362  -2.097  0.00  0.00    +0.097 C 
ATOM      3  C   UNL     1      -5.662   4.202  -2.055  0.00  0.00    -0.041 C 
ATOM      4  C   UNL     1      -5.407   5.304  -2.745  0.00  0.00    +0.000 A 
ATOM      5  C   UNL     1      -6.202   6.519  -2.985  0.00  0.00    +0.030 A 
ATOM      6  C   UNL     1      -5.626   7.468  -3.770  0.00  0.00    +0.042 A 
ATOM      7  C   UNL     1      -4.353   7.331  -4.335  0.00  0.00    +0.022 A 
ATOM      8  C   UNL     1      -3.551   6.251  -4.162  0.00  0.00    +0.027 A 
ATOM      9  C   UNL     1      -4.045   5.188  -3.351  0.00  0.00    +0.043 A 
ATOM     10  N   UNL     1      -3.473   4.053  -3.001  0.00  0.00    -0.379 N 
ATOM     11 CL   UNL     1      -6.516   8.925  -4.089  0.00  0.00    -0.084 Cl
ATOM     12  C   UNL     1      -6.924   3.689  -1.403  0.00  0.00    +0.014 C 
ATOM     13  C   UNL     1      -7.125   2.257  -1.929  0.00  0.00    -0.077 C 
ATOM     14  N   UNL     1      -5.896   1.477  -1.766  0.00  0.00    +0.386 N 
ATOM     15  H   UNL     1      -6.081   0.516  -2.009  0.00  0.00    -0.085 HD
ATOM     16  H   UNL     1      -2.606   3.727  -3.288  0.00  0.00    +0.160 HD
ATOM     17  H   UNL     1      -5.606   1.521  -0.800  0.00  0.00    -0.085 HD
ENDROOT
BRANCH   1  21
ATOM     18  N   UNL     1      -2.022  -0.159  -1.276  0.00  0.00    -0.285 N 
ATOM     19  C   UNL     1      -3.071   0.685  -1.311  0.00  0.00    +0.260 A 
ATOM     20  O   UNL     1      -3.531   1.138  -0.277  0.00  0.00    -0.267 OA
ATOM     21  C   UNL     1      -3.632   1.042  -2.551  0.00  0.00    +0.070 A 
ATOM     22  C   UNL     1      -3.099   0.522  -3.693  0.00  0.00    +0.257 A 
ATOM     23  N   UNL     1      -2.031  -0.334  -3.611  0.00  0.00    -0.302 N 
ATOM     24  C   UNL     1      -1.507  -0.657  -2.415  0.00  0.00    +0.164 A 
ATOM     25  S   UNL     1      -0.169  -1.722  -2.340  0.00  0.00    -0.013 S 
ATOM     26  O   UNL     1      -3.619   0.847  -4.896  0.00  0.00    -0.267 OA
ATOM     27  H   UNL     1      -1.649  -0.707  -4.421  0.00  0.00    +0.171 HD
BRANCH  18  28
ATOM     28  C   UNL     1      -1.433  -0.534   0.013  0.00  0.00    +0.089 C 
ATOM     29  C   UNL     1      -0.956   0.725   0.741  0.00  0.00    +0.031 C 
BRANCH  28  31
ATOM     30  C   UNL     1      -2.868  -2.571   0.199  0.00  0.00    +0.006 C 
ATOM     31  C   UNL     1      -2.484  -1.248   0.865  0.00  0.00    +0.021 C 
ENDBRANCH  28  31
ENDBRANCH  18  28
ENDBRANCH   1  21
TORSDOF 3
