REMARK  Name = ZINC67433435
REMARK  8 active torsions:
REMARK  status: ('A' for Active; 'I' for Inactive)
REMARK    1  A    between atoms: C_4  and  C_7
REMARK    2  A    between atoms: C_7  and  C_8
REMARK    3  A    between atoms: C_8  and  N_9
REMARK    4  A    between atoms: C_13  and  C_16
REMARK    5  A    between atoms: C_13  and  O_29
REMARK    6  A    between atoms: C_16  and  N_17
REMARK    7  A    between atoms: N_17  and  C_18
REMARK    8  A    between atoms: C_18  and  C_19
REMARK                            x       y       z     vdW  Elec       q    Type
REMARK                         _______ _______ _______ _____ _____    ______ ____
ROOT
ATOM      1  N   UNL     1       5.452  -1.696   1.375  0.00  0.00    -0.299 N 
ATOM      2  C   UNL     1       5.432  -3.153   1.377  0.00  0.00    +0.108 C 
ATOM      3  C   UNL     1       6.779  -3.707   1.841  0.00  0.00    +0.022 C 
ATOM      4  C   UNL     1       7.893  -3.035   1.028  0.00  0.00    +0.044 C 
ATOM      5  C   UNL     1       7.947  -1.555   1.414  0.00  0.00    +0.127 C 
ATOM      6  C   UNL     1       6.567  -0.964   1.364  0.00  0.00    +0.245 C 
ATOM      7  O   UNL     1       6.460   0.243   1.317  0.00  0.00    -0.273 OA
ENDROOT
BRANCH   5   8
ATOM      8  O   UNL     1       8.475  -1.427   2.735  0.00  0.00    -0.381 OA
ATOM      9  H   UNL     1       8.539  -0.514   3.047  0.00  0.00    +0.211 HD
ENDBRANCH   5   8
BRANCH   1  10
ATOM     10  C   UNL     1       4.168  -0.991   1.378  0.00  0.00    +0.112 C 
BRANCH  10  11
ATOM     11  C   UNL     1       3.713  -0.754  -0.064  0.00  0.00    +0.054 C 
BRANCH  11  15
ATOM     12  C   UNL     1      -0.032   1.301  -0.057  0.00  0.00    +0.000 A 
ATOM     13  C   UNL     1       1.150   2.018  -0.066  0.00  0.00    +0.000 A 
ATOM     14  C   UNL     1       2.362   1.353  -0.068  0.00  0.00    +0.004 A 
ATOM     15  C   UNL     1       2.392  -0.029  -0.061  0.00  0.00    -0.046 A 
ATOM     16  C   UNL     1       1.210  -0.746  -0.051  0.00  0.00    +0.004 A 
ATOM     17  C   UNL     1      -0.002  -0.081  -0.050  0.00  0.00    +0.000 A 
ENDBRANCH  11  15
ENDBRANCH  10  11
ENDBRANCH   1  10
BRANCH   5  18
ATOM     18  C   UNL     1       8.852  -0.807   0.432  0.00  0.00    -0.037 C 
BRANCH  18  19
ATOM     19  N   UNL     1      10.200  -1.388   0.469  0.00  0.00    +0.385 N 
ATOM     20  H   UNL     1      10.542  -1.384   1.419  0.00  0.00    -0.085 HD
ATOM     21  H   UNL     1      10.167  -2.337   0.127  0.00  0.00    -0.085 HD
BRANCH  19  22
ATOM     22  C   UNL     1      11.099  -0.594  -0.378  0.00  0.00    -0.028 C 
BRANCH  22  23
ATOM     23  C   UNL     1      12.483  -1.190  -0.341  0.00  0.00    -0.000 A 
ATOM     24  C   UNL     1      13.469  -0.797   0.481  0.00  0.00    +0.029 A 
ATOM     25  C   UNL     1      14.632  -1.637   0.186  0.00  0.00    -0.000 A 
ATOM     26  C   UNL     1      15.931  -1.711   0.695  0.00  0.00    +0.010 A 
ATOM     27  C   UNL     1      16.805  -2.631   0.191  0.00  0.00    +0.001 A 
ATOM     28  C   UNL     1      16.414  -3.495  -0.823  0.00  0.00    +0.002 A 
ATOM     29  C   UNL     1      15.138  -3.440  -1.339  0.00  0.00    +0.026 A 
ATOM     30  C   UNL     1      14.231  -2.510  -0.842  0.00  0.00    +0.047 A 
ATOM     31  N   UNL     1      12.918  -2.216  -1.135  0.00  0.00    -0.360 N 
ATOM     32  H   UNL     1      12.382  -2.667  -1.806  0.00  0.00    +0.166 HD
ENDBRANCH  22  23
ENDBRANCH  19  22
ENDBRANCH  18  19
ENDBRANCH   5  18
TORSDOF 8
