REMARK  Name = ZINC02380145
REMARK  6 active torsions:
REMARK  status: ('A' for Active; 'I' for Inactive)
REMARK    1  A    between atoms: C_1  and  C_2
REMARK    2  A    between atoms: C_5  and  N_8
REMARK    3  A    between atoms: C_11  and  C_15
REMARK    4  A    between atoms: C_11  and  N_19
REMARK    5  A    between atoms: N_19  and  S_20
REMARK    6  A    between atoms: S_20  and  C_23
REMARK                            x       y       z     vdW  Elec       q    Type
REMARK                         _______ _______ _______ _____ _____    ______ ____
ROOT
ATOM      1  N   UNL     1      -0.143  -4.370  -0.414  0.00  0.00    -0.187 N 
ATOM      2  C   UNL     1      -0.166  -5.032   0.762  0.00  0.00    +0.281 C 
ATOM      3  O   UNL     1      -0.380  -4.572   1.864  0.00  0.00    -0.270 OA
ATOM      4  C   UNL     1       0.134  -6.475   0.408  0.00  0.00    +0.306 C 
ATOM      5  N   UNL     1       0.305  -6.451  -1.054  0.00  0.00    -0.190 NA
ATOM      6  C   UNL     1       0.130  -5.231  -1.448  0.00  0.00    +0.345 C 
ATOM      7  O   UNL     1       0.210  -4.845  -2.740  0.00  0.00    -0.247 OA
ENDROOT
BRANCH   1  12
ATOM      8  C   UNL     1      -1.071   1.198  -1.005  0.00  0.00    +0.044 C 
ATOM      9  C   UNL     1      -0.824  -0.280  -0.848  0.00  0.00    -0.050 A 
ATOM     10  C   UNL     1      -0.440  -1.036  -1.941  0.00  0.00    +0.005 A 
ATOM     11  C   UNL     1      -0.213  -2.391  -1.800  0.00  0.00    +0.024 A 
ATOM     12  C   UNL     1      -0.371  -2.995  -0.560  0.00  0.00    +0.046 A 
ATOM     13  C   UNL     1      -0.756  -2.233   0.536  0.00  0.00    +0.024 A 
ATOM     14  C   UNL     1      -0.976  -0.878   0.390  0.00  0.00    +0.005 A 
ENDBRANCH   1  12
BRANCH   4  15
ATOM     15  C   UNL     1      -1.038  -7.378   0.796  0.00  0.00    +0.438 C 
ATOM     16  F   UNL     1      -2.210  -6.906   0.195  0.00  0.00    -0.166 F 
ATOM     17  F   UNL     1      -0.785  -8.684   0.362  0.00  0.00    -0.166 F 
ATOM     18  F   UNL     1      -1.192  -7.371   2.187  0.00  0.00    -0.166 F 
ENDBRANCH   4  15
BRANCH   4  19
ATOM     19  N   UNL     1       1.367  -6.920   1.063  0.00  0.00    -0.147 NA
ATOM     20  H   UNL     1       1.332  -7.609   1.744  0.00  0.00    +0.151 HD
BRANCH  19  21
ATOM     21  S   UNL     1       2.819  -6.246   0.639  0.00  0.00    +0.061 S 
ATOM     22  O   UNL     1       3.815  -6.918   1.398  0.00  0.00    -0.153 OA
ATOM     23  O   UNL     1       2.846  -6.198  -0.781  0.00  0.00    -0.153 OA
BRANCH  21  24
ATOM     24  C   UNL     1       2.801  -4.575   1.199  0.00  0.00    +0.105 A 
ATOM     25  C   UNL     1       2.323  -3.575   0.373  0.00  0.00    +0.030 A 
ATOM     26  C   UNL     1       2.308  -2.264   0.812  0.00  0.00    +0.022 A 
ATOM     27  C   UNL     1       2.773  -1.953   2.077  0.00  0.00    +0.041 A 
ATOM     28  C   UNL     1       3.251  -2.955   2.904  0.00  0.00    +0.022 A 
ATOM     29  C   UNL     1       3.260  -4.266   2.466  0.00  0.00    +0.030 A 
ATOM     30 CL   UNL     1       2.756  -0.307   2.629  0.00  0.00    -0.084 Cl
ENDBRANCH  21  24
ENDBRANCH  19  21
ENDBRANCH   4  19
TORSDOF 5
