REMARK  Name = ZINC62744126
REMARK  8 active torsions:
REMARK  status: ('A' for Active; 'I' for Inactive)
REMARK    1  A    between atoms: C_1  and  C_2
REMARK    2  A    between atoms: C_2  and  C_3
REMARK    3  A    between atoms: C_2  and  C_4
REMARK    4  A    between atoms: C_4  and  N_5
REMARK    5  A    between atoms: N_5  and  C_6
REMARK    6  A    between atoms: C_6  and  C_7
REMARK    7  A    between atoms: N_12  and  C_13
REMARK    8  A    between atoms: C_19  and  N_21
REMARK                            x       y       z     vdW  Elec       q    Type
REMARK                         _______ _______ _______ _____ _____    ______ ____
ROOT
ATOM      1  N   UNL     1      -2.105  -0.148  -1.230  0.00  0.00    -0.275 N 
ATOM      2  C   UNL     1      -2.776   1.019  -1.300  0.00  0.00    +0.303 C 
ATOM      3  O   UNL     1      -2.823   1.752  -0.332  0.00  0.00    -0.253 OA
ATOM      4  N   UNL     1      -3.394   1.373  -2.444  0.00  0.00    -0.298 N 
ATOM      5  H   UNL     1      -3.357   0.788  -3.217  0.00  0.00    +0.150 HD
ENDROOT
BRANCH   4   6
ATOM      6  C   UNL     1      -4.123   2.642  -2.520  0.00  0.00    +0.060 C 
ATOM      7  C   UNL     1      -5.543   2.447  -1.985  0.00  0.00    +0.021 C 
ATOM      8  C   UNL     1      -6.265   1.393  -2.827  0.00  0.00    +0.002 C 
ATOM      9  C   UNL     1      -6.328   1.858  -4.283  0.00  0.00    -0.001 C 
ATOM     10  C   UNL     1      -4.908   2.053  -4.818  0.00  0.00    -0.014 C 
ATOM     11  C   UNL     1      -4.186   3.107  -3.976  0.00  0.00    -0.054 C 
BRANCH  11  12
ATOM     12  N   UNL     1      -2.823   3.295  -4.490  0.00  0.00    +0.381 N 
ATOM     13  H   UNL     1      -2.321   2.421  -4.438  0.00  0.00    -0.090 HD
ATOM     14  H   UNL     1      -2.864   3.602  -5.450  0.00  0.00    -0.090 HD
ATOM     15  H   UNL     1      -2.347   3.990  -3.935  0.00  0.00    -0.090 HD
ENDBRANCH  11  12
ENDBRANCH   4   6
BRANCH   1  16
ATOM     16  C   UNL     1      -1.433  -0.534   0.013  0.00  0.00    +0.113 C 
BRANCH  16  18
ATOM     17  C   UNL     1      -0.019   1.526   0.010  0.00  0.00    +0.009 C 
ATOM     18  C   UNL     1       0.002  -0.004   0.002  0.00  0.00    +0.000 C 
ATOM     19  C   UNL     1       0.742  -0.511   1.242  0.00  0.00    +0.009 C 
ENDBRANCH  16  18
ENDBRANCH   1  16
BRANCH   1  20
ATOM     20  C   UNL     1      -2.049  -1.032  -2.398  0.00  0.00    +0.234 C 
BRANCH  20  21
ATOM     21  C   UNL     1      -3.212  -1.988  -2.361  0.00  0.00    +0.373 C 
ATOM     22  O   UNL     1      -4.015  -1.937  -1.445  0.00  0.00    -0.245 OA
ATOM     23  O   UNL     1      -3.352  -2.813  -3.248  0.00  0.00    -0.245 OA
ENDBRANCH  20  21
ENDBRANCH   1  20
TORSDOF 6
