REMARK  Name = ZINC09128161
REMARK  5 active torsions:
REMARK  status: ('A' for Active; 'I' for Inactive)
REMARK    1  A    between atoms: C_1  and  C_2
REMARK    2  A    between atoms: C_9  and  N_13
REMARK    3  A    between atoms: C_10  and  C_11
REMARK    4  A    between atoms: C_14  and  C_16
REMARK    5  A    between atoms: C_16  and  N_17
REMARK                            x       y       z     vdW  Elec       q    Type
REMARK                         _______ _______ _______ _____ _____    ______ ____
ROOT
ATOM      1  C   UNL     1       2.352   5.764   0.009  0.00  0.00    +0.214 C 
ENDROOT
BRANCH   1   2
ATOM      2  N   UNL     1       1.368   6.849   0.024  0.00  0.00    -0.215 N 
ATOM      3  C   UNL     1       0.852   7.420  -1.084  0.00  0.00    +0.252 C 
ATOM      4  O   UNL     1       1.103   7.144  -2.238  0.00  0.00    -0.272 OA
ATOM      5  C   UNL     1      -0.107   8.476  -0.585  0.00  0.00    +0.144 C 
ATOM      6  C   UNL     1       0.334   9.857  -1.059  0.00  0.00    +0.081 C 
ATOM      7  C   UNL     1      -0.793  10.854  -0.755  0.00  0.00    +0.232 C 
ATOM      8  O   UNL     1      -1.941  10.486  -1.520  0.00  0.00    -0.492 OA
ATOM      9  C   UNL     1      -2.347   9.190  -1.480  0.00  0.00    +0.126 A 
ATOM     10  C   UNL     1      -1.507   8.178  -1.043  0.00  0.00    +0.027 A 
ATOM     11  C   UNL     1      -1.959   6.870  -1.024  0.00  0.00    +0.010 A 
ATOM     12  C   UNL     1      -3.243   6.569  -1.436  0.00  0.00    +0.001 A 
ATOM     13  C   UNL     1      -4.084   7.577  -1.869  0.00  0.00    +0.004 A 
ATOM     14  C   UNL     1      -3.639   8.883  -1.892  0.00  0.00    +0.046 A 
ATOM     15  N   UNL     1      -0.013   8.381   0.877  0.00  0.00    -0.281 N 
ATOM     16  C   UNL     1       0.874   7.402   1.139  0.00  0.00    +0.310 C 
ATOM     17  O   UNL     1       1.191   7.059   2.261  0.00  0.00    -0.252 OA
ATOM     18  H   UNL     1      -0.495   8.916   1.527  0.00  0.00    +0.152 HD
ENDBRANCH   1   2
BRANCH   1  20
ATOM     19  N   UNL     1       2.343   3.290  -0.003  0.00  0.00    -0.278 N 
ATOM     20  C   UNL     1       1.636   4.438   0.009  0.00  0.00    +0.236 C 
ATOM     21  O   UNL     1       0.424   4.403   0.021  0.00  0.00    -0.274 OA
ATOM     22  H   UNL     1       3.313   3.318  -0.013  0.00  0.00    +0.155 HD
BRANCH  19  30
ATOM     23  C   UNL     1      -1.746  -3.378  -0.096  0.00  0.00    +0.008 C 
ATOM     24  C   UNL     1      -0.659  -2.341  -0.384  0.00  0.00    -0.009 C 
ATOM     25  C   UNL     1       0.592  -2.663   0.439  0.00  0.00    +0.008 C 
ATOM     26  C   UNL     1       1.758  -1.788  -0.024  0.00  0.00    +0.037 C 
ATOM     27  C   UNL     1       1.313  -0.331  -0.012  0.00  0.00    -0.018 A 
ATOM     28  C   UNL     1       0.002  -0.004   0.002  0.00  0.00    -0.004 A 
ATOM     29  S   UNL     1      -0.022   1.766   0.012  0.00  0.00    -0.077 S 
ATOM     30  C   UNL     1       1.684   2.069  -0.003  0.00  0.00    +0.090 A 
ATOM     31  C   UNL     1       2.231   0.794  -0.015  0.00  0.00    +0.084 A 
ATOM     32  C   UNL     1      -1.163  -0.945   0.007  0.00  0.00    +0.046 C 
BRANCH  31  33
ATOM     33  C   UNL     1       3.649   0.596  -0.029  0.00  0.00    +0.102 C 
ATOM     34  N   UNL     1       4.774   0.438  -0.041  0.00  0.00    -0.191 NA
ENDBRANCH  31  33
ENDBRANCH  19  30
ENDBRANCH   1  20
TORSDOF 4
