REMARK  Name = ZINC67330484
REMARK  6 active torsions:
REMARK  status: ('A' for Active; 'I' for Inactive)
REMARK    1  A    between atoms: C_5  and  C_7
REMARK    2  A    between atoms: C_7  and  C_8
REMARK    3  A    between atoms: C_8  and  N_9
REMARK    4  A    between atoms: C_10  and  C_12
REMARK    5  A    between atoms: C_16  and  N_19
REMARK    6  A    between atoms: C_17  and  N_18
REMARK                            x       y       z     vdW  Elec       q    Type
REMARK                         _______ _______ _______ _____ _____    ______ ____
ROOT
ATOM      1  N   UNL     1       0.365  -4.332   1.519  0.00  0.00    -0.311 N 
ATOM      2  C   UNL     1       0.653  -4.995   2.657  0.00  0.00    +0.246 C 
ATOM      3  O   UNL     1       0.529  -4.439   3.731  0.00  0.00    -0.270 OA
ATOM      4  H   UNL     1       0.463  -4.775   0.661  0.00  0.00    +0.149 HD
ENDROOT
BRANCH   2   5
ATOM      5  C   UNL     1       1.117  -6.393   2.598  0.00  0.00    +0.062 A 
ATOM      6  C   UNL     1       1.148  -7.073   1.378  0.00  0.00    +0.053 A 
ATOM      7  C   UNL     1       1.583  -8.381   1.331  0.00  0.00    +0.126 A 
ATOM      8  C   UNL     1       1.992  -9.025   2.490  0.00  0.00    +0.073 A 
ATOM      9  C   UNL     1       1.967  -8.365   3.701  0.00  0.00    +0.150 A 
ATOM     10  C   UNL     1       1.538  -7.046   3.767  0.00  0.00    +0.068 A 
ATOM     11  F   UNL     1       1.612  -9.038   0.150  0.00  0.00    -0.205 F 
BRANCH  10  12
ATOM     12  N   UNL     1       1.518  -6.378   4.986  0.00  0.00    -0.356 N 
ATOM     13  H   UNL     1       1.315  -6.862   5.801  0.00  0.00    +0.142 HD
ATOM     14  H   UNL     1       1.708  -5.427   5.021  0.00  0.00    +0.142 HD
ENDBRANCH  10  12
BRANCH   9  15
ATOM     15  N   UNL     1       2.405  -9.062   4.932  0.00  0.00    +0.058 N 
ATOM     16  O   UNL     1       2.679 -10.239   4.895  0.00  0.00    -0.126 OA
ATOM     17  O   UNL     1       2.488  -8.454   5.974  0.00  0.00    -0.126 OA
ENDBRANCH   9  15
ENDBRANCH   2   5
BRANCH   1  18
ATOM     18  C   UNL     1      -0.097  -2.943   1.576  0.00  0.00    +0.109 C 
BRANCH  18  19
ATOM     19  C   UNL     1      -0.351  -2.431   0.157  0.00  0.00    +0.055 C 
BRANCH  19  24
ATOM     20  C   UNL     1      -2.616   0.588   0.259  0.00  0.00    +0.000 A 
ATOM     21  C   UNL     1      -1.698   1.621   0.325  0.00  0.00    +0.001 A 
ATOM     22  C   UNL     1      -0.344   1.342   0.337  0.00  0.00    +0.020 A 
ATOM     23  C   UNL     1       0.092   0.030   0.282  0.00  0.00    +0.044 A 
ATOM     24  C   UNL     1      -0.826  -1.002   0.217  0.00  0.00    -0.028 A 
ATOM     25  C   UNL     1      -2.180  -0.722   0.205  0.00  0.00    +0.005 A 
ATOM     26 CL   UNL     1       1.793  -0.320   0.296  0.00  0.00    -0.083 Cl
ENDBRANCH  19  24
ENDBRANCH  18  19
ENDBRANCH   1  18
TORSDOF 6
