REMARK  Name = ZINC03877427
REMARK  6 active torsions:
REMARK  status: ('A' for Active; 'I' for Inactive)
REMARK    1  A    between atoms: C_1  and  C_2
REMARK    2  A    between atoms: C_4  and  C_25
REMARK    3  A    between atoms: P_7  and  C_10
REMARK    4  A    between atoms: C_10  and  C_12
REMARK    5  A    between atoms: C_10  and  N_18
REMARK    6  A    between atoms: N_18  and  C_19
REMARK                            x       y       z     vdW  Elec       q    Type
REMARK                         _______ _______ _______ _____ _____    ______ ____
ROOT
ATOM      1  C   UNL     1      -0.315  -2.566   3.293  0.00  0.00    +0.184 C 
ENDROOT
BRANCH   1   6
ATOM      2  C   UNL     1      -1.001   1.343   0.235  0.00  0.00    +0.041 C 
ATOM      3  C   UNL     1      -0.839  -0.178   0.227  0.00  0.00    +0.151 C 
ATOM      4  C   UNL     1      -2.183  -0.861   0.549  0.00  0.00    +0.151 C 
ATOM      5  O   UNL     1      -1.880  -2.212   0.951  0.00  0.00    -0.324 OA
ATOM      6  P   UNL     1      -0.358  -2.149   1.518  0.00  0.00    +0.196 P 
ATOM      7  S   UNL     1       0.754  -3.285   0.546  0.00  0.00    -0.006 S 
ATOM      8  O   UNL     1       0.062  -0.593   1.283  0.00  0.00    -0.324 OA
ATOM      9  C   UNL     1      -3.075  -0.873  -0.694  0.00  0.00    +0.041 C 
ENDBRANCH   1   6
BRANCH   1  10
ATOM     10  C   UNL     1      -0.708  -4.008   3.479  0.00  0.00    -0.018 A 
ATOM     11  C   UNL     1       0.241  -5.005   3.353  0.00  0.00    +0.006 A 
ATOM     12  C   UNL     1      -0.118  -6.328   3.529  0.00  0.00    +0.000 A 
ATOM     13  C   UNL     1      -1.429  -6.655   3.821  0.00  0.00    +0.000 A 
ATOM     14  C   UNL     1      -2.379  -5.659   3.943  0.00  0.00    +0.000 A 
ATOM     15  C   UNL     1      -2.019  -4.336   3.772  0.00  0.00    +0.006 A 
ENDBRANCH   1  10
BRANCH   1  16
ATOM     16  N   UNL     1       1.039  -2.357   3.811  0.00  0.00    -0.329 N 
ATOM     17  H   UNL     1       1.737  -3.003   3.618  0.00  0.00    +0.147 HD
BRANCH  16  18
ATOM     18  C   UNL     1       1.326  -1.228   4.581  0.00  0.00    +0.028 A 
ATOM     19  C   UNL     1       2.561  -1.107   5.206  0.00  0.00    +0.023 A 
ATOM     20  C   UNL     1       2.843   0.013   5.963  0.00  0.00    +0.002 A 
ATOM     21  C   UNL     1       1.894   1.008   6.109  0.00  0.00    +0.000 A 
ATOM     22  C   UNL     1       0.662   0.888   5.493  0.00  0.00    +0.002 A 
ATOM     23  C   UNL     1       0.375  -0.227   4.730  0.00  0.00    +0.023 A 
ENDBRANCH  16  18
ENDBRANCH   1  16
TORSDOF 4
