REMARK  Name = ZINC17150352
REMARK  13 active torsions:
REMARK  status: ('A' for Active; 'I' for Inactive)
REMARK    1  A    between atoms: C_1  and  C_2
REMARK    2  A    between atoms: C_5  and  C_30
REMARK    3  A    between atoms: C_6  and  O_8
REMARK    4  A    between atoms: O_8  and  C_9
REMARK    5  A    between atoms: C_9  and  C_10
REMARK    6  A    between atoms: C_13  and  S_16
REMARK    7  A    between atoms: N_14  and  N_15
REMARK    8  A    between atoms: S_16  and  C_17
REMARK    9  A    between atoms: C_17  and  C_19
REMARK   10  A    between atoms: C_17  and  C_20
REMARK   11  A    between atoms: N_22  and  C_23
REMARK   12  A    between atoms: C_30  and  C_31
REMARK   13  A    between atoms: C_30  and  C_32
REMARK                            x       y       z     vdW  Elec       q    Type
REMARK                         _______ _______ _______ _____ _____    ______ ____
ROOT
ATOM      1  C   UNL     1       3.884  -8.625  -1.571  0.00  0.00    +0.189 A 
ATOM      2  N   UNL     1       2.709  -8.384  -1.064  0.00  0.00    -0.128 NA
ATOM      3  N   UNL     1       2.587  -7.130  -0.807  0.00  0.00    -0.121 NA
ATOM      4  C   UNL     1       3.689  -6.498  -1.139  0.00  0.00    +0.209 A 
ATOM      5  N   UNL     1       4.549  -7.432  -1.642  0.00  0.00    -0.225 N 
ENDROOT
BRANCH   5   6
ATOM      6  N   UNL     1       5.812  -7.218  -2.116  0.00  0.00    -0.295 N 
ATOM      7  H   UNL     1       6.495  -7.307  -1.379  0.00  0.00    +0.163 HD
ATOM      8  H   UNL     1       6.022  -7.843  -2.880  0.00  0.00    +0.163 HD
ENDBRANCH   5   6
BRANCH   1   9
ATOM      9  C   UNL     1       4.412  -9.968  -2.004  0.00  0.00    +0.306 C 
BRANCH   9  10
ATOM     10  O   UNL     1       4.087 -10.187  -3.378  0.00  0.00    -0.484 OA
BRANCH  10  16
ATOM     11  C   UNL     1       6.361 -14.478  -2.893  0.00  0.00    +0.044 C 
ATOM     12  C   UNL     1       5.603 -13.476  -3.725  0.00  0.00    -0.047 A 
ATOM     13  C   UNL     1       5.321 -13.751  -5.051  0.00  0.00    +0.004 A 
ATOM     14  C   UNL     1       4.626 -12.833  -5.816  0.00  0.00    +0.008 A 
ATOM     15  C   UNL     1       4.207 -11.641  -5.257  0.00  0.00    -0.003 A 
ATOM     16  C   UNL     1       4.493 -11.361  -3.929  0.00  0.00    +0.125 A 
ATOM     17  C   UNL     1       5.191 -12.284  -3.163  0.00  0.00    +0.049 A 
BRANCH  15  18
ATOM     18  C   UNL     1       3.444 -10.644  -6.091  0.00  0.00    +0.016 C 
ATOM     19  C   UNL     1       4.300 -10.217  -7.285  0.00  0.00    +0.012 C 
ATOM     20  C   UNL     1       2.149 -11.285  -6.595  0.00  0.00    +0.012 C 
ENDBRANCH  15  18
ENDBRANCH  10  16
ENDBRANCH   9  10
ENDBRANCH   1   9
BRANCH   4  21
ATOM     21  S   UNL     1       3.997  -4.771  -0.973  0.00  0.00    -0.072 S 
BRANCH  21  22
ATOM     22  C   UNL     1       2.421  -4.239  -0.258  0.00  0.00    +0.137 C 
ATOM     23  C   UNL     1       2.253  -4.864   1.128  0.00  0.00    +0.029 C 
BRANCH  22  24
ATOM     24  C   UNL     1       2.407  -2.737  -0.137  0.00  0.00    +0.230 C 
ATOM     25  O   UNL     1       3.450  -2.118  -0.144  0.00  0.00    -0.274 OA
ATOM     26  N   UNL     1       1.236  -2.081  -0.021  0.00  0.00    -0.285 N 
ATOM     27  H   UNL     1       0.407  -2.579   0.062  0.00  0.00    +0.155 HD
BRANCH  26  28
ATOM     28  C   UNL     1       1.214  -0.681  -0.019  0.00  0.00    +0.034 A 
ATOM     29  C   UNL     1       2.137   0.029  -0.774  0.00  0.00    +0.026 A 
ATOM     30  C   UNL     1       2.114   1.411  -0.772  0.00  0.00    +0.040 A 
ATOM     31  C   UNL     1       1.170   2.087  -0.017  0.00  0.00    +0.124 A 
ATOM     32  C   UNL     1       0.248   1.380   0.737  0.00  0.00    +0.040 A 
ATOM     33  C   UNL     1       0.269  -0.001   0.738  0.00  0.00    +0.026 A 
ATOM     34  F   UNL     1       1.149   3.437  -0.016  0.00  0.00    -0.205 F 
ENDBRANCH  26  28
ENDBRANCH  22  24
ENDBRANCH  21  22
ENDBRANCH   4  21
TORSDOF 9
