REMARK  Name = ZINC08922416
REMARK  3 active torsions:
REMARK  status: ('A' for Active; 'I' for Inactive)
REMARK    1  A    between atoms: C_7  and  C_12
REMARK    2  A    between atoms: C_12  and  S_13
REMARK    3  A    between atoms: S_13  and  C_14
REMARK                            x       y       z     vdW  Elec       q    Type
REMARK                         _______ _______ _______ _____ _____    ______ ____
ROOT
ATOM      1  C   UNL     1      -2.215   4.921  -2.452  0.00  0.00    +0.015 A 
ATOM      2  C   UNL     1      -2.789   5.391  -3.615  0.00  0.00    -0.043 A 
ATOM      3  C   UNL     1      -3.871   6.259  -3.558  0.00  0.00    -0.041 A 
ATOM      4  C   UNL     1      -4.390   6.651  -2.339  0.00  0.00    +0.051 A 
ATOM      5  C   UNL     1      -3.824   6.194  -1.158  0.00  0.00    +0.140 A 
ATOM      6  C   UNL     1      -2.723   5.320  -1.214  0.00  0.00    +0.022 A 
ATOM      7  C   UNL     1      -2.134   4.837   0.038  0.00  0.00    -0.020 A 
ATOM      8  C   UNL     1      -2.672   5.267   1.208  0.00  0.00    +0.097 A 
ATOM      9  C   UNL     1      -3.774   6.149   1.190  0.00  0.00    +0.338 A 
ATOM     10  O   UNL     1      -4.248   6.527   2.246  0.00  0.00    -0.245 OA
ATOM     11  O   UNL     1      -4.312   6.582   0.040  0.00  0.00    -0.422 OA
ATOM     12  C   UNL     1      -4.306   6.620  -4.964  0.00  0.00    +0.036 C 
ATOM     13  C   UNL     1      -3.115   6.239  -5.867  0.00  0.00    +0.009 C 
ATOM     14  C   UNL     1      -2.431   5.115  -5.060  0.00  0.00    +0.036 C 
ENDROOT
BRANCH   7  15
ATOM     15  C   UNL     1      -0.958   3.895   0.028  0.00  0.00    +0.113 C 
BRANCH  15  16
ATOM     16  S   UNL     1      -1.554   2.186   0.021  0.00  0.00    -0.081 S 
BRANCH  16  17
ATOM     17  C   UNL     1      -0.016   1.326   0.009  0.00  0.00    +0.195 A 
ATOM     18  N   UNL     1       1.127   2.006   0.002  0.00  0.00    -0.189 NA
ATOM     19  C   UNL     1       2.287   1.357  -0.013  0.00  0.00    +0.218 A 
ATOM     20  N   UNL     1       2.304   0.028  -0.020  0.00  0.00    -0.181 NA
ATOM     21  C   UNL     1       1.162  -0.653  -0.013  0.00  0.00    +0.218 A 
ATOM     22  N   UNL     1       0.002  -0.004   0.002  0.00  0.00    -0.189 NA
ATOM     23  N   UNL     1       1.181  -2.033  -0.020  0.00  0.00    -0.327 N 
ATOM     24  N   UNL     1       3.473   2.063  -0.021  0.00  0.00    -0.327 N 
ATOM     25  H   UNL     1       0.347  -2.529  -0.015  0.00  0.00    +0.145 HD
ATOM     26  H   UNL     1       2.027  -2.506  -0.031  0.00  0.00    +0.145 HD
ATOM     27  H   UNL     1       4.319   1.589  -0.032  0.00  0.00    +0.145 HD
ATOM     28  H   UNL     1       3.460   3.033  -0.016  0.00  0.00    +0.145 HD
ENDBRANCH  16  17
ENDBRANCH  15  16
ENDBRANCH   7  15
TORSDOF 3
