REMARK  Name = ZINC51189818
REMARK  9 active torsions:
REMARK  status: ('A' for Active; 'I' for Inactive)
REMARK    1  A    between atoms: C_1  and  C_2
REMARK    2  A    between atoms: N_6  and  C_10
REMARK    3  A    between atoms: C_10  and  C_11
REMARK    4  A    between atoms: C_13  and  C_21
REMARK    5  A    between atoms: C_14  and  O_19
REMARK    6  A    between atoms: C_15  and  O_17
REMARK    7  A    between atoms: O_17  and  C_18
REMARK    8  A    between atoms: O_19  and  C_20
REMARK    9  A    between atoms: C_21  and  C_22
REMARK                            x       y       z     vdW  Elec       q    Type
REMARK                         _______ _______ _______ _____ _____    ______ ____
ROOT
ATOM      1  C   UNL     1       3.929  -0.950  -1.851  0.00  0.00    -0.026 A 
ATOM      2  C   UNL     1       3.876  -0.141  -2.971  0.00  0.00    +0.013 A 
ATOM      3  C   UNL     1       4.914   0.729  -3.248  0.00  0.00    +0.002 A 
ATOM      4  C   UNL     1       6.010   0.791  -2.404  0.00  0.00    +0.165 A 
ATOM      5  C   UNL     1       6.063  -0.022  -1.276  0.00  0.00    +0.162 A 
ATOM      6  C   UNL     1       5.017  -0.889  -1.001  0.00  0.00    +0.054 A 
ENDROOT
BRANCH   5   7
ATOM      7  O   UNL     1       7.137   0.035  -0.444  0.00  0.00    -0.491 OA
ATOM      8  C   UNL     1       7.123  -0.829   0.694  0.00  0.00    +0.277 C 
ENDBRANCH   5   7
BRANCH   4   9
ATOM      9  O   UNL     1       7.032   1.646  -2.676  0.00  0.00    -0.491 OA
ATOM     10  C   UNL     1       6.942   2.961  -2.124  0.00  0.00    +0.277 C 
ENDBRANCH   4   9
BRANCH   1  11
ATOM     11  C   UNL     1       2.794  -1.897  -1.552  0.00  0.00    +0.150 C 
BRANCH  11  16
ATOM     12  C   UNL     1      -0.019   1.526   0.010  0.00  0.00    +0.038 C 
ATOM     13  C   UNL     1       0.002  -0.004   0.002  0.00  0.00    +0.155 C 
ATOM     14  C   UNL     1       0.752  -0.521  -1.210  0.00  0.00    +0.241 C 
ATOM     15  O   UNL     1       0.471  -0.343  -2.376  0.00  0.00    -0.273 OA
ATOM     16  N   UNL     1       1.797  -1.217  -0.721  0.00  0.00    -0.248 N 
ATOM     17  C   UNL     1       1.812  -1.213   0.617  0.00  0.00    +0.140 C 
ATOM     18  S   UNL     1       3.003  -2.003   1.558  0.00  0.00    -0.018 S 
ATOM     19  N   UNL     1       0.782  -0.518   1.141  0.00  0.00    -0.315 N 
ATOM     20  H   UNL     1       0.591  -0.382   2.083  0.00  0.00    +0.148 HD
ENDBRANCH  11  16
ENDBRANCH   1  11
BRANCH   3  21
ATOM     21  C   UNL     1       4.853   1.608  -4.471  0.00  0.00    +0.065 C 
BRANCH  21  22
ATOM     22  C   UNL     1       5.585   0.941  -5.606  0.00  0.00    -0.030 C 
ATOM     23  C   UNL     1       4.976   0.738  -6.748  0.00  0.00    +0.004 C 
ENDBRANCH  21  22
ENDBRANCH   3  21
TORSDOF 6
