REMARK  Name = ZINC41094352
REMARK  7 active torsions:
REMARK  status: ('A' for Active; 'I' for Inactive)
REMARK    1  A    between atoms: C_1  and  C_2
REMARK    2  A    between atoms: C_2  and  C_4
REMARK    3  A    between atoms: C_2  and  O_12
REMARK    4  A    between atoms: O_12  and  C_13
REMARK    5  A    between atoms: C_13  and  C_15
REMARK    6  A    between atoms: C_17  and  N_22
REMARK    7  A    between atoms: C_19  and  N_21
REMARK                            x       y       z     vdW  Elec       q    Type
REMARK                         _______ _______ _______ _____ _____    ______ ____
ROOT
ATOM      1  C   UNL     1       1.828  -0.482  -1.420  0.00  0.00    +0.340 C 
ATOM      2  O   UNL     1       2.543  -0.388  -0.442  0.00  0.00    -0.245 OA
ENDROOT
BRANCH   1   3
ATOM      3  C   UNL     1       2.417  -0.798  -2.738  0.00  0.00    +0.062 A 
ATOM      4  C   UNL     1       1.598  -0.900  -3.863  0.00  0.00    +0.037 A 
ATOM      5  C   UNL     1       2.154  -1.196  -5.099  0.00  0.00    +0.027 A 
ATOM      6  C   UNL     1       3.524  -1.391  -5.217  0.00  0.00    +0.045 A 
ATOM      7  C   UNL     1       4.342  -1.291  -4.099  0.00  0.00    +0.027 A 
ATOM      8  C   UNL     1       3.794  -0.989  -2.861  0.00  0.00    +0.037 A 
BRANCH   7   9
ATOM      9  N   UNL     1       5.719  -1.489  -4.223  0.00  0.00    -0.358 N 
ATOM     10  H   UNL     1       6.104  -1.696  -5.089  0.00  0.00    +0.142 HD
ATOM     11  H   UNL     1       6.291  -1.419  -3.442  0.00  0.00    +0.142 HD
ENDBRANCH   7   9
BRANCH   5  12
ATOM     12  N   UNL     1       1.335  -1.298  -6.226  0.00  0.00    -0.358 N 
ATOM     13  H   UNL     1       0.378  -1.162  -6.144  0.00  0.00    +0.142 HD
ATOM     14  H   UNL     1       1.723  -1.505  -7.090  0.00  0.00    +0.142 HD
ENDBRANCH   5  12
ENDBRANCH   1   3
BRANCH   1  15
ATOM     15  O   UNL     1       0.499  -0.298  -1.302  0.00  0.00    -0.449 OA
BRANCH  15  17
ATOM     16  C   UNL     1      -0.008   1.521   0.206  0.00  0.00    +0.062 C 
ATOM     17  C   UNL     1      -0.001   0.005   0.002  0.00  0.00    +0.259 C 
BRANCH  17  18
ATOM     18  C   UNL     1      -1.405  -0.526   0.137  0.00  0.00    +0.256 C 
ATOM     19  O   UNL     1      -2.038  -0.825  -0.854  0.00  0.00    -0.272 OA
ATOM     20  N   UNL     1      -1.957  -0.669   1.358  0.00  0.00    -0.294 N 
ATOM     21  C   UNL     1      -1.251  -0.215   2.566  0.00  0.00    +0.136 C 
ATOM     22  C   UNL     1      -2.207   0.659   3.385  0.00  0.00    +0.179 C 
ATOM     23  O   UNL     1      -3.431  -0.050   3.594  0.00  0.00    -0.377 OA
ATOM     24  C   UNL     1      -4.141  -0.357   2.392  0.00  0.00    +0.179 C 
ATOM     25  C   UNL     1      -3.287  -1.278   1.522  0.00  0.00    +0.136 C 
ENDBRANCH  17  18
ENDBRANCH  15  17
ENDBRANCH   1  15
TORSDOF 6
