REMARK  Name = ZINC67633529
REMARK  12 active torsions:
REMARK  status: ('A' for Active; 'I' for Inactive)
REMARK    1  A    between atoms: C_1  and  C_2
REMARK    2  A    between atoms: C_7  and  O_8
REMARK    3  A    between atoms: O_8  and  C_9
REMARK    4  A    between atoms: C_9  and  C_10
REMARK    5  A    between atoms: C_10  and  C_12
REMARK    6  A    between atoms: C_10  and  N_13
REMARK    7  A    between atoms: N_16  and  C_17
REMARK    8  A    between atoms: C_17  and  C_18
REMARK    9  A    between atoms: C_18  and  C_20
REMARK   10  A    between atoms: C_18  and  O_28
REMARK   11  A    between atoms: C_20  and  N_21
REMARK   12  A    between atoms: C_24  and  C_27
REMARK                            x       y       z     vdW  Elec       q    Type
REMARK                         _______ _______ _______ _____ _____    ______ ____
ROOT
ATOM      1  N   UNL     1       1.289   0.881   4.818  0.00  0.00    -0.294 N 
ATOM      2  C   UNL     1       1.759   1.363   5.986  0.00  0.00    +0.300 C 
ATOM      3  O   UNL     1       1.152   1.154   7.018  0.00  0.00    -0.253 OA
ATOM      4  N   UNL     1       2.901   2.078   6.008  0.00  0.00    -0.297 N 
ATOM      5  H   UNL     1       1.773   1.048   3.994  0.00  0.00    +0.151 HD
ATOM      6  H   UNL     1       3.385   2.245   5.185  0.00  0.00    +0.150 HD
ENDROOT
BRANCH   1   7
ATOM      7  C   UNL     1       0.047   0.104   4.793  0.00  0.00    +0.109 C 
ATOM      8  C   UNL     1      -1.148   1.056   4.712  0.00  0.00    +0.031 C 
BRANCH   7   9
ATOM      9  C   UNL     1       0.048  -0.820   3.574  0.00  0.00    +0.251 C 
BRANCH   9  10
ATOM     10  O   UNL     1       0.025  -0.033   2.381  0.00  0.00    -0.490 OA
BRANCH  10  17
ATOM     11  C   UNL     1      -0.018   1.503   0.010  0.00  0.00    +0.047 C 
ATOM     12  C   UNL     1       0.002  -0.004   0.002  0.00  0.00    -0.009 A 
ATOM     13  C   UNL     1       0.006  -0.689  -1.198  0.00  0.00    +0.007 A 
ATOM     14  C   UNL     1       0.024  -2.071  -1.206  0.00  0.00    +0.000 A 
ATOM     15  C   UNL     1       0.039  -2.772  -0.014  0.00  0.00    +0.004 A 
ATOM     16  C   UNL     1       0.036  -2.092   1.188  0.00  0.00    +0.046 A 
ATOM     17  C   UNL     1       0.023  -0.705   1.199  0.00  0.00    +0.123 A 
ENDBRANCH  10  17
ENDBRANCH   9  10
ENDBRANCH   7   9
ENDBRANCH   1   7
BRANCH   4  18
ATOM     18  C   UNL     1       3.412   2.603   7.277  0.00  0.00    +0.135 C 
BRANCH  18  19
ATOM     19  C   UNL     1       4.711   3.370   7.026  0.00  0.00    +0.115 C 
BRANCH  19  20
ATOM     20  O   UNL     1       5.680   2.491   6.450  0.00  0.00    -0.392 OA
ATOM     21  H   UNL     1       5.900   1.731   7.005  0.00  0.00    +0.210 HD
ENDBRANCH  19  20
BRANCH  19  22
ATOM     22  C   UNL     1       5.245   3.918   8.351  0.00  0.00    -0.046 C 
BRANCH  22  23
ATOM     23  N   UNL     1       6.425   4.754   8.096  0.00  0.00    +0.381 N 
ATOM     24  C   UNL     1       6.029   5.930   7.311  0.00  0.00    -0.078 C 
ATOM     25  C   UNL     1       7.268   6.763   6.973  0.00  0.00    -0.016 C 
ATOM     26  C   UNL     1       7.941   7.217   8.271  0.00  0.00    -0.018 C 
ATOM     27  C   UNL     1       8.282   5.985   9.116  0.00  0.00    -0.016 C 
ATOM     28  C   UNL     1       7.006   5.181   9.374  0.00  0.00    -0.078 C 
ATOM     29  C   UNL     1       9.224   7.982   7.942  0.00  0.00    +0.007 C 
ATOM     30  H   UNL     1       7.108   4.221   7.579  0.00  0.00    -0.082 HD
ENDBRANCH  22  23
ENDBRANCH  19  22
ENDBRANCH  18  19
ENDBRANCH   4  18
TORSDOF 9
