REMARK  Name = ZINC66443022
REMARK  5 active torsions:
REMARK  status: ('A' for Active; 'I' for Inactive)
REMARK    1  A    between atoms: C_1  and  C_2
REMARK    2  A    between atoms: C_2  and  C_7
REMARK    3  A    between atoms: C_7  and  N_8
REMARK    4  A    between atoms: C_9  and  C_11
REMARK    5  A    between atoms: N_19  and  C_22
REMARK                            x       y       z     vdW  Elec       q    Type
REMARK                         _______ _______ _______ _____ _____    ______ ____
ROOT
ATOM      1  C   UNL     1      -4.095   0.092  -2.658  0.00  0.00    +0.039 A 
ATOM      2  C   UNL     1      -3.414   0.925  -3.560  0.00  0.00    +0.014 A 
ATOM      3  C   UNL     1      -4.033   1.396  -4.678  0.00  0.00    +0.016 A 
ATOM      4  C   UNL     1      -5.366   1.048  -4.937  0.00  0.00    +0.065 A 
ATOM      5  C   UNL     1      -6.067   0.206  -4.034  0.00  0.00    +0.080 A 
ATOM      6  C   UNL     1      -5.410  -0.273  -2.891  0.00  0.00    +0.041 A 
ATOM      7  N   UNL     1      -7.341  -0.117  -4.297  0.00  0.00    -0.222 NA
ATOM      8  C   UNL     1      -7.944   0.339  -5.384  0.00  0.00    +0.183 A 
ATOM      9  N   UNL     1      -7.326   1.138  -6.269  0.00  0.00    -0.290 N 
ATOM     10  C   UNL     1      -6.042   1.515  -6.084  0.00  0.00    +0.262 A 
ATOM     11  O   UNL     1      -5.424   2.314  -6.971  0.00  0.00    -0.267 OA
ATOM     12  C   UNL     1      -8.053   1.606  -7.451  0.00  0.00    +0.154 C 
ATOM     13  S   UNL     1      -9.572  -0.106  -5.671  0.00  0.00    -0.011 S 
ENDROOT
BRANCH   1  15
ATOM     14  N   UNL     1      -2.117  -0.054  -1.217  0.00  0.00    -0.311 N 
ATOM     15  C   UNL     1      -3.397  -0.406  -1.450  0.00  0.00    +0.244 C 
ATOM     16  O   UNL     1      -3.980  -1.132  -0.668  0.00  0.00    -0.270 OA
ATOM     17  H   UNL     1      -1.653   0.525  -1.841  0.00  0.00    +0.149 HD
BRANCH  14  18
ATOM     18  C   UNL     1      -1.428  -0.547  -0.022  0.00  0.00    +0.111 C 
BRANCH  18  20
ATOM     19  C   UNL     1      -0.019   1.526   0.010  0.00  0.00    +0.013 C 
ATOM     20  C   UNL     1       0.002  -0.004   0.002  0.00  0.00    -0.017 C 
ATOM     21  C   UNL     1       0.783  -0.515  -1.226  0.00  0.00    +0.008 C 
ATOM     22  C   UNL     1       2.213  -0.768  -0.688  0.00  0.00    +0.001 C 
ATOM     23  C   UNL     1       1.950  -1.339   0.728  0.00  0.00    +0.001 C 
ATOM     24  C   UNL     1       0.744  -0.528   1.244  0.00  0.00    +0.008 C 
ENDBRANCH  18  20
ENDBRANCH  14  18
ENDBRANCH   1  15
TORSDOF 3
