REMARK  Name = ZINC48673352
REMARK  7 active torsions:
REMARK  status: ('A' for Active; 'I' for Inactive)
REMARK    1  A    between atoms: C_1  and  O_2
REMARK    2  A    between atoms: O_2  and  C_3
REMARK    3  A    between atoms: C_6  and  C_10
REMARK    4  A    between atoms: C_8  and  N_9
REMARK    5  A    between atoms: C_10  and  O_12
REMARK    6  A    between atoms: O_12  and  C_13
REMARK    7  A    between atoms: C_13  and  C_14
REMARK                            x       y       z     vdW  Elec       q    Type
REMARK                         _______ _______ _______ _____ _____    ______ ____
ROOT
ATOM      1  C   UNL     1      -4.963  -2.611   0.037  0.00  0.00    +0.340 C 
ATOM      2  O   UNL     1      -5.014  -3.825   0.036  0.00  0.00    -0.245 OA
ENDROOT
BRANCH   1   6
ATOM      3  C   UNL     1      -1.199  -0.637   0.010  0.00  0.00    +0.141 A 
ATOM      4  C   UNL     1      -2.373   0.104   0.019  0.00  0.00    +0.048 A 
ATOM      5  C   UNL     1      -3.595  -0.533   0.028  0.00  0.00    +0.018 A 
ATOM      6  C   UNL     1      -3.656  -1.929   0.027  0.00  0.00    +0.061 A 
ATOM      7  C   UNL     1      -2.475  -2.677   0.017  0.00  0.00    +0.041 A 
ATOM      8  C   UNL     1      -1.252  -2.032   0.003  0.00  0.00    +0.068 A 
BRANCH   8   9
ATOM      9  N   UNL     1      -0.067  -2.777  -0.013  0.00  0.00    -0.355 N 
ATOM     10  H   UNL     1       0.791  -2.324  -0.019  0.00  0.00    +0.142 HD
ATOM     11  H   UNL     1      -0.104  -3.746  -0.018  0.00  0.00    +0.142 HD
ENDBRANCH   8   9
BRANCH   3  13
ATOM     12  C   UNL     1      -0.017   1.425   0.010  0.00  0.00    +0.277 C 
ATOM     13  O   UNL     1       0.002  -0.004   0.002  0.00  0.00    -0.493 OA
ENDBRANCH   3  13
ENDBRANCH   1   6
BRANCH   1  14
ATOM     14  O   UNL     1      -6.100  -1.889   0.047  0.00  0.00    -0.456 OA
BRANCH  14  15
ATOM     15  C   UNL     1      -7.330  -2.616   0.056  0.00  0.00    +0.268 C 
BRANCH  15  16
ATOM     16  C   UNL     1      -8.486  -1.648   0.067  0.00  0.00    -0.009 A 
ATOM     17  C   UNL     1      -9.002  -1.201   1.269  0.00  0.00    +0.010 A 
ATOM     18  C   UNL     1     -10.060  -0.313   1.280  0.00  0.00    +0.040 A 
ATOM     19  C   UNL     1     -10.605   0.130   0.087  0.00  0.00    +0.137 A 
ATOM     20  C   UNL     1     -10.088  -0.318  -1.117  0.00  0.00    +0.053 A 
ATOM     21  C   UNL     1      -9.024  -1.203  -1.126  0.00  0.00    +0.025 A 
ATOM     22 BR   UNL     1     -10.830   0.285  -2.749  0.00  0.00    -0.047 Br
ATOM     23  F   UNL     1     -11.641   0.997   0.097  0.00  0.00    -0.204 F 
ENDBRANCH  15  16
ENDBRANCH  14  15
ENDBRANCH   1  14
TORSDOF 6
