REMARK  Name = ZINC39291884
REMARK  3 active torsions:
REMARK  status: ('A' for Active; 'I' for Inactive)
REMARK    1  A    between atoms: C_4  and  N_7
REMARK    2  A    between atoms: N_8  and  C_9
REMARK    3  A    between atoms: C_9  and  N_21
REMARK                            x       y       z     vdW  Elec       q    Type
REMARK                         _______ _______ _______ _____ _____    ______ ____
ROOT
ATOM      1  C   UNL     1       4.787  -2.567  -0.059  0.00  0.00    +0.271 C 
ATOM      2  C   UNL     1       5.968  -1.860  -0.068  0.00  0.00    +0.136 C 
ATOM      3  N   UNL     1       6.055  -0.473  -0.055  0.00  0.00    -0.325 N 
ATOM      4  C   UNL     1       7.473  -0.153  -0.143  0.00  0.00    +0.092 C 
ATOM      5  C   UNL     1       7.988   1.052   0.615  0.00  0.00    +0.024 C 
ATOM      6  C   UNL     1       9.509   1.109   0.390  0.00  0.00    +0.002 C 
ATOM      7  C   UNL     1      10.194  -0.179   0.834  0.00  0.00    +0.002 C 
ATOM      8  C   UNL     1       9.561  -1.417   0.175  0.00  0.00    +0.024 C 
ATOM      9  C   UNL     1       8.092  -1.420   0.521  0.00  0.00    +0.092 C 
ATOM     10  N   UNL     1       7.236  -2.438  -0.084  0.00  0.00    -0.325 N 
ATOM     11  H   UNL     1       5.319   0.156  -0.000  0.00  0.00    +0.148 HD
ATOM     12  H   UNL     1       7.492  -3.312  -0.419  0.00  0.00    +0.148 HD
ENDROOT
BRANCH   1  13
ATOM     13  N   UNL     1       4.812  -4.050  -0.068  0.00  0.00    +0.080 N 
ATOM     14  O   UNL     1       5.868  -4.637  -0.082  0.00  0.00    -0.124 OA
ATOM     15  O   UNL     1       3.775  -4.672  -0.060  0.00  0.00    -0.124 OA
ENDBRANCH   1  13
BRANCH   1  17
ATOM     16  N   UNL     1       3.599  -0.629  -0.037  0.00  0.00    -0.148 NA
ATOM     17  N   UNL     1       3.620  -1.919  -0.044  0.00  0.00    -0.121 NA
BRANCH  16  21
ATOM     18  C   UNL     1      -0.017   1.380   0.010  0.00  0.00    +0.000 A 
ATOM     19  C   UNL     1       1.168   2.095   0.002  0.00  0.00    +0.002 A 
ATOM     20  C   UNL     1       2.377   1.432  -0.013  0.00  0.00    +0.029 A 
ATOM     21  C   UNL     1       2.404   0.035  -0.021  0.00  0.00    +0.086 A 
ATOM     22  C   UNL     1       1.204  -0.681  -0.013  0.00  0.00    +0.029 A 
ATOM     23  C   UNL     1       0.002  -0.004   0.002  0.00  0.00    +0.002 A 
ENDBRANCH  16  21
ENDBRANCH   1  17
TORSDOF 3
