REMARK  Name = ZINC10296106
REMARK  15 active torsions:
REMARK  status: ('A' for Active; 'I' for Inactive)
REMARK    1  A    between atoms: C_1  and  C_2
REMARK    2  A    between atoms: C_2  and  C_3
REMARK    3  A    between atoms: C_3  and  C_5
REMARK    4  A    between atoms: C_3  and  O_6
REMARK    5  A    between atoms: O_6  and  C_7
REMARK    6  A    between atoms: C_10  and  C_13
REMARK    7  A    between atoms: N_15  and  C_16
REMARK    8  A    between atoms: C_16  and  N_18
REMARK    9  A    between atoms: N_18  and  N_19
REMARK   10  A    between atoms: C_20  and  C_22
REMARK   11  A    between atoms: C_25  and  O_28
REMARK   12  A    between atoms: O_28  and  C_29
REMARK   13  A    between atoms: C_29  and  C_30
REMARK   14  A    between atoms: C_30  and  C_31
REMARK   15  A    between atoms: C_30  and  C_32
REMARK                            x       y       z     vdW  Elec       q    Type
REMARK                         _______ _______ _______ _____ _____    ______ ____
ROOT
ATOM      1  C   UNL     1       3.573   1.986  -1.134  0.00  0.00    +0.153 C 
ATOM      2  S   UNL     1       5.065   1.195  -1.417  0.00  0.00    -0.017 S 
ENDROOT
BRANCH   1   5
ATOM      3  C   UNL     1       4.696   4.021  -0.913  0.00  0.00    +0.250 C 
ATOM      4  O   UNL     1       5.754   3.459  -1.113  0.00  0.00    -0.270 OA
ATOM      5  N   UNL     1       3.547   3.316  -0.912  0.00  0.00    -0.263 N 
ATOM      6  H   UNL     1       2.702   3.764  -0.752  0.00  0.00    +0.157 HD
BRANCH   3  10
ATOM      7  C   UNL     1       4.614   8.209  -0.213  0.00  0.00    +0.121 A 
ATOM      8  C   UNL     1       5.826   7.568  -0.443  0.00  0.00    +0.046 A 
ATOM      9  C   UNL     1       5.857   6.210  -0.670  0.00  0.00    +0.016 A 
ATOM     10  C   UNL     1       4.667   5.476  -0.670  0.00  0.00    +0.037 A 
ATOM     11  C   UNL     1       3.450   6.126  -0.445  0.00  0.00    +0.016 A 
ATOM     12  C   UNL     1       3.428   7.483  -0.213  0.00  0.00    +0.046 A 
BRANCH   7  13
ATOM     13  O   UNL     1       4.588   9.547   0.011  0.00  0.00    -0.489 OA
BRANCH  13  14
ATOM     14  C   UNL     1       5.848  10.212   0.113  0.00  0.00    +0.170 C 
ATOM     15  C   UNL     1       6.351  10.571  -1.287  0.00  0.00    +0.052 C 
BRANCH  14  17
ATOM     16  C   UNL     1       5.303  11.123   2.375  0.00  0.00    +0.007 C 
ATOM     17  C   UNL     1       5.685  11.490   0.939  0.00  0.00    +0.041 C 
ENDBRANCH  14  17
ENDBRANCH  13  14
ENDBRANCH   7  13
ENDBRANCH   3  10
ENDBRANCH   1   5
BRANCH   1  18
ATOM     18  N   UNL     1       2.425   1.281  -1.133  0.00  0.00    -0.245 N 
ATOM     19  H   UNL     1       2.444   0.324  -1.293  0.00  0.00    +0.172 HD
BRANCH  18  20
ATOM     20  N   UNL     1       1.205   1.929  -0.902  0.00  0.00    -0.231 N 
ATOM     21  C   UNL     1       0.057   1.223  -0.901  0.00  0.00    +0.260 C 
ATOM     22  O   UNL     1       0.080   0.024  -1.101  0.00  0.00    -0.269 OA
ATOM     23  H   UNL     1       1.186   2.885  -0.742  0.00  0.00    +0.173 HD
BRANCH  21  24
ATOM     24  C   UNL     1      -1.230   1.906  -0.664  0.00  0.00    +0.038 A 
ATOM     25  C   UNL     1      -1.258   3.283  -0.428  0.00  0.00    +0.016 A 
ATOM     26  C   UNL     1      -2.461   3.918  -0.212  0.00  0.00    +0.046 A 
ATOM     27  C   UNL     1      -3.645   3.189  -0.217  0.00  0.00    +0.121 A 
ATOM     28  C   UNL     1      -3.620   1.819  -0.446  0.00  0.00    +0.046 A 
ATOM     29  C   UNL     1      -2.422   1.177  -0.668  0.00  0.00    +0.016 A 
BRANCH  27  30
ATOM     30  O   UNL     1      -4.827   3.818   0.002  0.00  0.00    -0.492 OA
BRANCH  30  31
ATOM     31  C   UNL     1      -4.780   5.227   0.231  0.00  0.00    +0.232 C 
BRANCH  31  32
ATOM     32  C   UNL     1      -6.199   5.755   0.456  0.00  0.00    +0.020 C 
ATOM     33  C   UNL     1      -6.768   5.155   1.744  0.00  0.00    +0.010 C 
ATOM     34  C   UNL     1      -6.162   7.280   0.577  0.00  0.00    +0.010 C 
ENDBRANCH  31  32
ENDBRANCH  30  31
ENDBRANCH  27  30
ENDBRANCH  21  24
ENDBRANCH  18  20
ENDBRANCH   1  18
TORSDOF 11
