REMARK  Name = ZINC16009663
REMARK  6 active torsions:
REMARK  status: ('A' for Active; 'I' for Inactive)
REMARK    1  A    between atoms: C_1  and  S_2
REMARK    2  A    between atoms: S_2  and  C_3
REMARK    3  A    between atoms: C_3  and  C_4
REMARK    4  A    between atoms: C_4  and  C_5
REMARK    5  A    between atoms: N_13  and  C_16
REMARK    6  A    between atoms: C_19  and  N_22
REMARK                            x       y       z     vdW  Elec       q    Type
REMARK                         _______ _______ _______ _____ _____    ______ ____
ROOT
ATOM      1  C   UNL     1       1.889  -2.476  -2.683  0.00  0.00    +0.068 C 
ATOM      2  C   UNL     1       1.971  -3.965  -3.079  0.00  0.00    +0.107 C 
ATOM      3  C   UNL     1       1.592  -4.000  -4.585  0.00  0.00    +0.123 C 
ATOM      4  C   UNL     1       0.298  -4.781  -4.601  0.00  0.00    +0.233 C 
ATOM      5  O   UNL     1      -0.346  -5.051  -5.592  0.00  0.00    -0.274 OA
ATOM      6  N   UNL     1      -0.026  -5.130  -3.350  0.00  0.00    -0.210 N 
ATOM      7  C   UNL     1       0.851  -4.724  -2.404  0.00  0.00    +0.232 C 
ATOM      8  O   UNL     1       0.762  -4.927  -1.212  0.00  0.00    -0.274 OA
ATOM      9  C   UNL     1       1.329  -2.534  -4.950  0.00  0.00    +0.136 C 
ATOM     10  N   UNL     1       0.969  -1.864  -3.679  0.00  0.00    -0.295 NA
ATOM     11  C   UNL     1       2.526  -1.907  -5.607  0.00  0.00    +0.003 A 
ATOM     12  C   UNL     1       3.830  -1.708  -5.209  0.00  0.00    +0.008 A 
ATOM     13  C   UNL     1       4.725  -1.083  -6.059  0.00  0.00    +0.000 A 
ATOM     14  C   UNL     1       4.307  -0.659  -7.308  0.00  0.00    +0.002 A 
ATOM     15  C   UNL     1       3.002  -0.856  -7.710  0.00  0.00    +0.023 A 
ATOM     16  C   UNL     1       2.095  -1.484  -6.860  0.00  0.00    +0.039 A 
ATOM     17  N   UNL     1       0.743  -1.790  -7.034  0.00  0.00    -0.283 N 
ATOM     18  C   UNL     1       0.219  -2.408  -5.958  0.00  0.00    +0.243 C 
ATOM     19  O   UNL     1      -0.925  -2.788  -5.827  0.00  0.00    -0.273 OA
ATOM     20  H   UNL     1       0.005  -2.031  -3.431  0.00  0.00    +0.123 HD
ATOM     21  H   UNL     1       0.240  -1.583  -7.838  0.00  0.00    +0.155 HD
ENDROOT
BRANCH   6  22
ATOM     22  C   UNL     1      -1.181  -5.863  -3.042  0.00  0.00    +0.044 A 
ATOM     23  C   UNL     1      -2.212  -5.269  -2.328  0.00  0.00    +0.026 A 
ATOM     24  C   UNL     1      -3.349  -5.995  -2.027  0.00  0.00    +0.034 A 
ATOM     25  C   UNL     1      -3.459  -7.311  -2.436  0.00  0.00    +0.126 A 
ATOM     26  C   UNL     1      -2.433  -7.905  -3.147  0.00  0.00    +0.034 A 
ATOM     27  C   UNL     1      -1.297  -7.183  -3.456  0.00  0.00    +0.026 A 
BRANCH  25  28
ATOM     28  N   UNL     1      -4.678  -8.085  -2.111  0.00  0.00    +0.056 N 
ATOM     29  O   UNL     1      -5.576  -7.567  -1.489  0.00  0.00    -0.126 OA
ATOM     30  O   UNL     1      -4.776  -9.236  -2.468  0.00  0.00    -0.126 OA
ENDBRANCH  25  28
ENDBRANCH   6  22
BRANCH   1  31
ATOM     31  C   UNL     1       1.318  -2.331  -1.271  0.00  0.00    +0.030 C 
BRANCH  31  32
ATOM     32  C   UNL     1       1.326  -0.855  -0.867  0.00  0.00    +0.070 C 
BRANCH  32  34
ATOM     33  C   UNL     1       0.727   1.100   1.132  0.00  0.00    +0.084 C 
ATOM     34  S   UNL     1       0.649  -0.683   0.807  0.00  0.00    -0.164 S 
ENDBRANCH  32  34
ENDBRANCH  31  32
ENDBRANCH   1  31
TORSDOF 5
