REMARK  Name = ZINC45534431
REMARK  10 active torsions:
REMARK  status: ('A' for Active; 'I' for Inactive)
REMARK    1  A    between atoms: C_1  and  C_2
REMARK    2  A    between atoms: C_4  and  C_8
REMARK    3  A    between atoms: C_5  and  C_7
REMARK    4  A    between atoms: N_10  and  N_11
REMARK    5  A    between atoms: N_14  and  C_15
REMARK    6  A    between atoms: C_15  and  C_16
REMARK    7  A    between atoms: C_16  and  C_18
REMARK    8  A    between atoms: C_16  and  N_21
REMARK    9  A    between atoms: C_18  and  C_19
REMARK   10  A    between atoms: C_18  and  C_20
REMARK                            x       y       z     vdW  Elec       q    Type
REMARK                         _______ _______ _______ _____ _____    ______ ____
ROOT
ATOM      1  N   UNL     1      -3.128  -3.807  -0.703  0.00  0.00    -0.218 N 
ATOM      2  C   UNL     1      -4.468  -3.946  -0.669  0.00  0.00    +0.316 C 
ATOM      3  O   UNL     1      -4.973  -5.028  -0.897  0.00  0.00    -0.251 OA
ATOM      4  N   UNL     1      -5.249  -2.885  -0.384  0.00  0.00    -0.300 N 
ATOM      5  H   UNL     1      -2.566  -4.570  -0.908  0.00  0.00    +0.174 HD
ATOM      6  H   UNL     1      -4.846  -2.021  -0.202  0.00  0.00    +0.150 HD
ENDROOT
BRANCH   1   9
ATOM      7  C   UNL     1      -1.206  -2.420  -0.474  0.00  0.00    +0.263 C 
ATOM      8  O   UNL     1      -0.502  -3.377  -0.732  0.00  0.00    -0.269 OA
ATOM      9  N   UNL     1      -2.547  -2.559  -0.441  0.00  0.00    -0.229 N 
ATOM     10  H   UNL     1      -3.108  -1.796  -0.235  0.00  0.00    +0.173 HD
BRANCH   7  14
ATOM     11  C   UNL     1      -0.558   2.515   0.645  0.00  0.00    +0.086 C 
ATOM     12  C   UNL     1      -0.329   1.067   0.296  0.00  0.00    +0.103 A 
ATOM     13  C   UNL     1      -1.290   0.145   0.129  0.00  0.00    +0.057 A 
ATOM     14  C   UNL     1      -0.595  -1.108  -0.198  0.00  0.00    +0.079 A 
ATOM     15  C   UNL     1       0.735  -0.803  -0.193  0.00  0.00    +0.114 A 
ATOM     16  O   UNL     1       0.869   0.495   0.097  0.00  0.00    -0.464 OA
ATOM     17  C   UNL     1       1.861  -1.764  -0.473  0.00  0.00    +0.087 C 
ENDBRANCH   7  14
ENDBRANCH   1   9
BRANCH   4  18
ATOM     18  C   UNL     1      -6.706  -3.036  -0.347  0.00  0.00    +0.091 C 
BRANCH  18  19
ATOM     19  C   UNL     1      -7.343  -1.723   0.112  0.00  0.00    -0.048 C 
BRANCH  19  20
ATOM     20  N   UNL     1      -6.937  -0.639  -0.792  0.00  0.00    +0.383 N 
ATOM     21  C   UNL     1      -7.354   0.649  -0.203  0.00  0.00    -0.078 C 
ATOM     22  C   UNL     1      -6.462   1.733  -0.755  0.00  0.00    -0.019 C 
ATOM     23  C   UNL     1      -7.110   2.438  -1.961  0.00  0.00    -0.002 C 
ATOM     24  C   UNL     1      -7.824   1.437  -2.893  0.00  0.00    -0.002 C 
ATOM     25  C   UNL     1      -7.031   0.171  -3.090  0.00  0.00    -0.019 C 
ATOM     26  C   UNL     1      -7.488  -0.876  -2.052  0.00  0.00    -0.078 C 
ATOM     27  H   UNL     1      -5.931  -0.645  -0.872  0.00  0.00    -0.081 HD
ENDBRANCH  19  20
BRANCH  19  28
ATOM     28  C   UNL     1      -8.867  -1.861   0.090  0.00  0.00    -0.029 C 
ATOM     29  C   UNL     1      -9.280  -2.768  -1.070  0.00  0.00    +0.005 C 
ATOM     30  C   UNL     1      -9.342  -2.473   1.410  0.00  0.00    +0.005 C 
ENDBRANCH  19  28
ENDBRANCH  18  19
ENDBRANCH   4  18
TORSDOF 6
