REMARK  Name = ZINC20706462
REMARK  3 active torsions:
REMARK  status: ('A' for Active; 'I' for Inactive)
REMARK    1  A    between atoms: C_6  and  C_7
REMARK    2  A    between atoms: C_23  and  C_26
REMARK    3  A    between atoms: C_28  and  N_33
REMARK                            x       y       z     vdW  Elec       q    Type
REMARK                         _______ _______ _______ _____ _____    ______ ____
ROOT
ATOM      1  C   UNL     1       2.221   1.324  -0.234  0.00  0.00    +0.015 A 
ATOM      2  C   UNL     1       2.127  -0.032  -0.441  0.00  0.00    +0.024 A 
ATOM      3  C   UNL     1       0.886  -0.635  -0.629  0.00  0.00    +0.031 A 
ATOM      4  C   UNL     1      -0.273   0.155  -0.617  0.00  0.00    -0.019 A 
ATOM      5  C   UNL     1      -0.182   1.509  -0.409  0.00  0.00    +0.019 A 
ATOM      6  C   UNL     1       1.065   2.109  -0.213  0.00  0.00    +0.037 A 
ATOM      7  C   UNL     1      -1.566  -0.525  -0.849  0.00  0.00    +0.049 C 
ATOM      8  C   UNL     1      -2.844   0.016  -0.320  0.00  0.00    -0.023 C 
ATOM      9  C   UNL     1      -3.659  -0.999  -0.058  0.00  0.00    -0.030 C 
ATOM     10  C   UNL     1      -2.958  -2.324  -0.367  0.00  0.00    +0.033 C 
ATOM     11  C   UNL     1      -1.482  -1.940  -0.199  0.00  0.00    +0.029 C 
ATOM     12  C   UNL     1      -0.467  -2.705  -1.028  0.00  0.00    +0.106 C 
ATOM     13  N   UNL     1       0.824  -2.016  -0.813  0.00  0.00    -0.336 N 
ATOM     14  H   UNL     1       1.760  -2.594  -0.795  0.00  0.00    +0.147 HD
ENDROOT
BRANCH   6  15
ATOM     15  C   UNL     1       1.161   3.564   0.015  0.00  0.00    +0.247 C 
ATOM     16  O   UNL     1       0.299   4.137   0.654  0.00  0.00    -0.270 OA
ATOM     17  N   UNL     1       2.203   4.257  -0.484  0.00  0.00    -0.298 N 
ATOM     18  C   UNL     1       3.279   3.530  -1.119  0.00  0.00    +0.108 C 
ATOM     19  C   UNL     1       4.341   3.141  -0.069  0.00  0.00    +0.019 C 
ATOM     20  C   UNL     1       5.081   4.333   0.373  0.00  0.00    +0.002 C 
ATOM     21  C   UNL     1       4.222   5.382   1.073  0.00  0.00    +0.002 C 
ATOM     22  C   UNL     1       3.584   6.277   0.039  0.00  0.00    +0.019 C 
ATOM     23  C   UNL     1       2.201   5.728  -0.355  0.00  0.00    +0.108 C 
ENDBRANCH   6  15
BRANCH  12  24
ATOM     24  C   UNL     1      -0.844  -2.660  -2.486  0.00  0.00    -0.007 A 
ATOM     25  C   UNL     1      -0.220  -1.764  -3.334  0.00  0.00    +0.039 A 
ATOM     26  C   UNL     1      -0.563  -1.726  -4.673  0.00  0.00    +0.127 A 
ATOM     27  C   UNL     1      -1.537  -2.576  -5.162  0.00  0.00    +0.034 A 
ATOM     28  C   UNL     1      -2.165  -3.468  -4.314  0.00  0.00    +0.022 A 
ATOM     29  C   UNL     1      -1.819  -3.511  -2.975  0.00  0.00    +0.046 A 
ATOM     30 CL   UNL     1      -2.608  -4.631  -1.909  0.00  0.00    -0.083 Cl
BRANCH  26  31
ATOM     31  N   UNL     1       0.109  -0.770  -5.581  0.00  0.00    +0.056 N 
ATOM     32  O   UNL     1      -0.196  -0.733  -6.760  0.00  0.00    -0.126 OA
ATOM     33  O   UNL     1       0.968  -0.021  -5.151  0.00  0.00    -0.126 OA
ENDBRANCH  26  31
ENDBRANCH  12  24
TORSDOF 3
