REMARK  Name = ZINC50534692
REMARK  6 active torsions:
REMARK  status: ('A' for Active; 'I' for Inactive)
REMARK    1  A    between atoms: C_1  and  C_2
REMARK    2  A    between atoms: C_4  and  N_23
REMARK    3  A    between atoms: C_7  and  N_8
REMARK    4  A    between atoms: N_8  and  S_9
REMARK    5  A    between atoms: S_9  and  C_12
REMARK    6  A    between atoms: C_16  and  N_18
REMARK                            x       y       z     vdW  Elec       q    Type
REMARK                         _______ _______ _______ _____ _____    ______ ____
ROOT
ATOM      1  N   UNL     1       0.025  -0.011   2.417  0.00  0.00    -0.216 N 
ATOM      2  H   UNL     1      -0.598   0.704   2.617  0.00  0.00    +0.174 HD
ENDROOT
BRANCH   1   9
ATOM      3  C   UNL     1      -0.301   1.804   0.253  0.00  0.00    +0.046 C 
ATOM      4  C   UNL     1      -0.036   0.338   0.028  0.00  0.00    -0.026 A 
ATOM      5  C   UNL     1       0.061  -0.157  -1.258  0.00  0.00    +0.028 A 
ATOM      6  C   UNL     1       0.306  -1.508  -1.465  0.00  0.00    +0.030 A 
ATOM      7  C   UNL     1       0.454  -2.361  -0.380  0.00  0.00    +0.025 A 
ATOM      8  C   UNL     1       0.357  -1.866   0.906  0.00  0.00    +0.026 A 
ATOM      9  C   UNL     1       0.118  -0.514   1.113  0.00  0.00    +0.051 A 
BRANCH   6  10
ATOM     10  N   UNL     1       0.404  -2.009  -2.768  0.00  0.00    -0.328 N 
ATOM     11  C   UNL     1       0.786  -3.407  -2.978  0.00  0.00    +0.116 C 
ATOM     12  C   UNL     1      -0.391  -4.171  -3.596  0.00  0.00    +0.088 C 
ATOM     13  S   UNL     1      -0.870  -3.348  -5.145  0.00  0.00    -0.158 S 
ATOM     14  C   UNL     1      -1.134  -1.623  -4.632  0.00  0.00    +0.088 C 
ATOM     15  C   UNL     1       0.116  -1.132  -3.904  0.00  0.00    +0.116 C 
ENDBRANCH   6  10
ENDBRANCH   1   9
BRANCH   1  16
ATOM     16  S   UNL     1       0.980  -0.639   3.615  0.00  0.00    +0.072 S 
ATOM     17  O   UNL     1       0.755   0.156   4.772  0.00  0.00    -0.150 OA
ATOM     18  O   UNL     1       0.773  -2.045   3.606  0.00  0.00    -0.150 OA
BRANCH  16  19
ATOM     19  C   UNL     1       2.656  -0.373   3.140  0.00  0.00    +0.111 A 
ATOM     20  C   UNL     1       3.320  -1.325   2.388  0.00  0.00    +0.029 A 
ATOM     21  C   UNL     1       4.635  -1.120   2.013  0.00  0.00    +0.004 A 
ATOM     22  C   UNL     1       5.289   0.037   2.389  0.00  0.00    +0.028 A 
ATOM     23  C   UNL     1       4.625   0.995   3.143  0.00  0.00    +0.071 A 
ATOM     24  C   UNL     1       3.303   0.788   3.514  0.00  0.00    +0.056 A 
BRANCH  23  25
ATOM     25  N   UNL     1       5.287   2.171   3.527  0.00  0.00    -0.200 N 
ATOM     26  C   UNL     1       6.526   2.570   3.165  0.00  0.00    +0.250 A 
ATOM     27  N   UNL     1       6.748   3.720   3.746  0.00  0.00    -0.116 NA
ATOM     28  N   UNL     1       5.734   4.075   4.450  0.00  0.00    -0.023 NA
ATOM     29  N   UNL     1       4.801   3.189   4.364  0.00  0.00    -0.039 NA
ENDBRANCH  23  25
ENDBRANCH  16  19
ENDBRANCH   1  16
TORSDOF 5
