REMARK  Name = ZINC63383557
REMARK  10 active torsions:
REMARK  status: ('A' for Active; 'I' for Inactive)
REMARK    1  A    between atoms: C_1  and  C_2
REMARK    2  A    between atoms: C_2  and  C_3
REMARK    3  A    between atoms: C_2  and  C_4
REMARK    4  A    between atoms: C_4  and  C_6
REMARK    5  A    between atoms: C_4  and  N_13
REMARK    6  A    between atoms: N_8  and  C_9
REMARK    7  A    between atoms: C_9  and  C_10
REMARK    8  A    between atoms: C_10  and  O_11
REMARK    9  A    between atoms: O_11  and  C_12
REMARK   10  A    between atoms: C_14  and  C_16
REMARK                            x       y       z     vdW  Elec       q    Type
REMARK                         _______ _______ _______ _____ _____    ______ ____
ROOT
ATOM      1  C   UNL     1       3.801   1.741   1.718  0.00  0.00    +0.167 C 
ATOM      2  C   UNL     1       4.679   0.884   2.650  0.00  0.00    +0.065 C 
ATOM      3  C   UNL     1       5.273   1.816   3.677  0.00  0.00    -0.034 C 
ATOM      4  C   UNL     1       5.290   1.739   5.005  0.00  0.00    -0.001 A 
ATOM      5  C   UNL     1       4.834   0.688   5.929  0.00  0.00    +0.010 A 
ATOM      6  C   UNL     1       4.991   0.947   7.254  0.00  0.00    +0.001 A 
ATOM      7  C   UNL     1       5.548   2.131   7.746  0.00  0.00    +0.002 A 
ATOM      8  C   UNL     1       6.000   3.147   6.968  0.00  0.00    +0.026 A 
ATOM      9  C   UNL     1       5.897   2.988   5.556  0.00  0.00    +0.043 A 
ATOM     10  N   UNL     1       6.264   3.778   4.591  0.00  0.00    -0.375 N 
ATOM     11  C   UNL     1       5.990   3.110   3.318  0.00  0.00    +0.131 C 
ATOM     12  C   UNL     1       5.044   3.924   2.435  0.00  0.00    +0.134 C 
ATOM     13  N   UNL     1       3.824   3.123   2.213  0.00  0.00    -0.276 N 
ATOM     14  C   UNL     1       2.755   3.867   2.557  0.00  0.00    +0.248 C 
ATOM     15  O   UNL     1       1.596   3.544   2.383  0.00  0.00    -0.270 OA
ATOM     16  C   UNL     1       3.194   5.122   3.171  0.00  0.00    +0.042 A 
ATOM     17  C   UNL     1       4.611   5.183   3.110  0.00  0.00    -0.013 A 
ATOM     18  C   UNL     1       5.322   6.250   3.611  0.00  0.00    +0.006 A 
ATOM     19  C   UNL     1       4.589   7.286   4.183  0.00  0.00    +0.000 A 
ATOM     20  C   UNL     1       3.210   7.253   4.245  0.00  0.00    +0.001 A 
ATOM     21  C   UNL     1       2.459   6.165   3.742  0.00  0.00    +0.013 A 
ATOM     22  H   UNL     1       6.653   4.661   4.697  0.00  0.00    +0.160 HD
ENDROOT
BRANCH   1  24
ATOM     23  N   UNL     1       1.650   1.294   2.854  0.00  0.00    -0.302 N 
ATOM     24  C   UNL     1       2.387   1.219   1.728  0.00  0.00    +0.235 C 
ATOM     25  O   UNL     1       1.913   0.732   0.724  0.00  0.00    -0.274 OA
ATOM     26  H   UNL     1       2.029   1.684   3.657  0.00  0.00    +0.150 HD
BRANCH  23  27
ATOM     27  C   UNL     1       0.275   0.787   2.864  0.00  0.00    +0.161 C 
BRANCH  27  28
ATOM     28  C   UNL     1      -0.513   1.494   3.937  0.00  0.00    +0.234 C 
ATOM     29  O   UNL     1       0.021   2.339   4.625  0.00  0.00    -0.274 OA
ATOM     30  N   UNL     1      -1.811   1.188   4.131  0.00  0.00    -0.312 N 
ATOM     31  H   UNL     1      -2.238   0.513   3.581  0.00  0.00    +0.149 HD
BRANCH  30  32
ATOM     32  C   UNL     1      -2.577   1.876   5.174  0.00  0.00    +0.132 C 
BRANCH  32  33
ATOM     33  C   UNL     1      -4.013   1.346   5.185  0.00  0.00    +0.178 C 
BRANCH  33  34
ATOM     34  O   UNL     1      -4.009  -0.032   5.564  0.00  0.00    -0.381 OA
ATOM     35  C   UNL     1      -5.308  -0.626   5.606  0.00  0.00    +0.194 C 
ENDBRANCH  33  34
ENDBRANCH  32  33
ENDBRANCH  30  32
ENDBRANCH  27  28
BRANCH  27  37
ATOM     36  C   UNL     1       1.089  -1.434   2.060  0.00  0.00    +0.009 C 
ATOM     37  C   UNL     1       0.288  -0.716   3.148  0.00  0.00    +0.012 C 
ATOM     38  C   UNL     1       0.937  -0.972   4.511  0.00  0.00    +0.009 C 
ENDBRANCH  27  37
ENDBRANCH  23  27
ENDBRANCH   1  24
TORSDOF 7
