REMARK  Name = ZINC65190625
REMARK  5 active torsions:
REMARK  status: ('A' for Active; 'I' for Inactive)
REMARK    1  A    between atoms: C_1  and  C_2
REMARK    2  A    between atoms: C_2  and  N_3
REMARK    3  A    between atoms: N_6  and  N_7
REMARK    4  A    between atoms: C_8  and  C_10
REMARK    5  A    between atoms: C_10  and  C_15
REMARK                            x       y       z     vdW  Elec       q    Type
REMARK                         _______ _______ _______ _____ _____    ______ ____
ROOT
ATOM      1  N   UNL     1       1.610  -0.972   3.683  0.00  0.00    -0.232 N 
ATOM      2  C   UNL     1       2.492  -1.607   4.481  0.00  0.00    +0.240 C 
ATOM      3  O   UNL     1       2.592  -2.814   4.434  0.00  0.00    -0.273 OA
ATOM      4  H   UNL     1       1.478  -0.015   3.771  0.00  0.00    +0.173 HD
ENDROOT
BRANCH   1   8
ATOM      5  N   UNL     1      -0.180   0.270   2.050  0.00  0.00    -0.298 N 
ATOM      6  C   UNL     1       0.004  -1.060   1.928  0.00  0.00    +0.316 C 
ATOM      7  O   UNL     1      -0.625  -1.687   1.098  0.00  0.00    -0.251 OA
ATOM      8  N   UNL     1       0.885  -1.694   2.726  0.00  0.00    -0.218 N 
ATOM      9  H   UNL     1       0.322   0.770   2.713  0.00  0.00    +0.150 HD
ATOM     10  H   UNL     1       1.018  -2.651   2.638  0.00  0.00    +0.174 HD
BRANCH   5  12
ATOM     11  C   UNL     1      -1.154   2.451   1.525  0.00  0.00    +0.024 C 
ATOM     12  C   UNL     1      -1.138   0.960   1.183  0.00  0.00    +0.102 C 
ENDBRANCH   5  12
ENDBRANCH   1   8
BRANCH   2  13
ATOM     13  C   UNL     1       3.352  -0.816   5.432  0.00  0.00    +0.073 C 
ATOM     14  C   UNL     1       2.465   0.030   6.369  0.00  0.00    +0.021 C 
ATOM     15  C   UNL     1       2.325  -0.838   7.645  0.00  0.00    +0.001 C 
ATOM     16  C   UNL     1       3.732  -1.470   7.784  0.00  0.00    +0.001 C 
ATOM     17  C   UNL     1       4.158  -1.769   6.332  0.00  0.00    +0.021 C 
BRANCH  13  18
ATOM     18  C   UNL     1       4.288   0.079   4.660  0.00  0.00    -0.032 A 
ATOM     19  C   UNL     1       5.090   0.983   5.330  0.00  0.00    +0.006 A 
ATOM     20  C   UNL     1       5.948   1.803   4.622  0.00  0.00    +0.020 A 
ATOM     21  C   UNL     1       6.004   1.719   3.242  0.00  0.00    +0.041 A 
ATOM     22  C   UNL     1       5.201   0.813   2.572  0.00  0.00    +0.020 A 
ATOM     23  C   UNL     1       4.348  -0.010   3.281  0.00  0.00    +0.006 A 
ATOM     24 CL   UNL     1       7.081   2.749   2.352  0.00  0.00    -0.084 Cl
ENDBRANCH  13  18
ENDBRANCH   2  13
TORSDOF 4
