REMARK  Name = ZINC11583226
REMARK  12 active torsions:
REMARK  status: ('A' for Active; 'I' for Inactive)
REMARK    1  A    between atoms: C_1  and  C_2
REMARK    2  A    between atoms: C_3  and  C_19
REMARK    3  A    between atoms: C_4  and  C_18
REMARK    4  A    between atoms: C_7  and  C_8
REMARK    5  A    between atoms: C_8  and  C_10
REMARK    6  A    between atoms: C_10  and  O_11
REMARK    7  A    between atoms: O_11  and  C_12
REMARK    8  A    between atoms: C_12  and  C_14
REMARK    9  A    between atoms: C_15  and  C_16
REMARK   10  A    between atoms: C_15  and  C_17
REMARK   11  A    between atoms: C_19  and  O_21
REMARK   12  A    between atoms: O_21  and  C_22
REMARK                            x       y       z     vdW  Elec       q    Type
REMARK                         _______ _______ _______ _____ _____    ______ ____
ROOT
ATOM      1  C   UNL     1      -3.030   0.791   3.719  0.00  0.00    +0.047 C 
ATOM      2  C   UNL     1      -1.972  -0.241   3.422  0.00  0.00    -0.008 A 
ATOM      3  C   UNL     1      -1.439  -1.183   4.328  0.00  0.00    +0.083 A 
ATOM      4  C   UNL     1      -0.496  -1.925   3.638  0.00  0.00    +0.028 A 
ATOM      5  N   UNL     1      -0.442  -1.482   2.373  0.00  0.00    -0.355 N 
ATOM      6  H   UNL     1       0.139  -1.832   1.680  0.00  0.00    +0.166 HD
ATOM      7  C   UNL     1      -1.343  -0.448   2.214  0.00  0.00    +0.090 A 
ATOM      8  C   UNL     1       0.333  -3.045   4.212  0.00  0.00    +0.064 C 
ENDROOT
BRANCH   7   9
ATOM      9  C   UNL     1      -1.575   0.276   1.020  0.00  0.00    +0.217 C 
ATOM     10  O   UNL     1      -2.397   1.170   1.003  0.00  0.00    -0.287 OA
BRANCH   9  11
ATOM     11  C   UNL     1      -0.801  -0.061  -0.228  0.00  0.00    +0.313 C 
BRANCH  11  12
ATOM     12  O   UNL     1      -1.217   0.817  -1.307  0.00  0.00    -0.453 OA
BRANCH  12  13
ATOM     13  C   UNL     1      -0.617   0.645  -2.502  0.00  0.00    +0.332 C 
ATOM     14  O   UNL     1       0.231  -0.215  -2.638  0.00  0.00    -0.246 OA
BRANCH  13  15
ATOM     15  C   UNL     1      -0.988   1.497  -3.640  0.00  0.00    +0.090 C 
ATOM     16  C   UNL     1      -0.315   1.409  -4.785  0.00  0.00    -0.069 C 
ATOM     17  C   UNL     1       0.926   0.557  -4.865  0.00  0.00    +0.039 C 
ATOM     18  C   UNL     1      -0.792   2.162  -6.000  0.00  0.00    +0.039 C 
ENDBRANCH  13  15
ENDBRANCH  12  13
ENDBRANCH  11  12
ENDBRANCH   9  11
ENDBRANCH   7   9
BRANCH   3  19
ATOM     19  C   UNL     1      -1.811  -1.343   5.744  0.00  0.00    +0.341 C 
ATOM     20  O   UNL     1      -1.220  -0.717   6.602  0.00  0.00    -0.245 OA
BRANCH  19  21
ATOM     21  O   UNL     1      -2.808  -2.182   6.088  0.00  0.00    -0.464 OA
ATOM     22  C   UNL     1      -3.120  -2.289   7.502  0.00  0.00    +0.280 C 
ENDBRANCH  19  21
ENDBRANCH   3  19
TORSDOF 7
