REMARK  Name = ZINC39452257
REMARK  4 active torsions:
REMARK  status: ('A' for Active; 'I' for Inactive)
REMARK    1  A    between atoms: C_1  and  C_2
REMARK    2  A    between atoms: C_2  and  C_3
REMARK    3  A    between atoms: C_2  and  S_4
REMARK    4  A    between atoms: S_4  and  C_7
REMARK                            x       y       z     vdW  Elec       q    Type
REMARK                         _______ _______ _______ _____ _____    ______ ____
ROOT
ATOM      1  C   UNL     1      -0.108   0.075   2.833  0.00  0.00    +0.222 C 
ATOM      2  C   UNL     1       0.513  -0.332   4.175  0.00  0.00    +0.127 C 
ATOM      3  C   UNL     1       1.832   0.375   4.349  0.00  0.00    +0.188 C 
ATOM      4  O   UNL     1       2.715  -0.151   4.997  0.00  0.00    -0.290 OA
ATOM      5  C   UNL     1       2.053   1.643   3.765  0.00  0.00    +0.154 A 
ATOM      6  C   UNL     1       1.071   2.217   2.979  0.00  0.00    +0.086 A 
ATOM      7  C   UNL     1       1.298   3.539   2.378  0.00  0.00    +0.099 A 
ATOM      8  C   UNL     1       2.532   4.179   2.622  0.00  0.00    +0.071 A 
ATOM      9  C   UNL     1       2.771   5.434   2.062  0.00  0.00    +0.037 A 
ATOM     10  C   UNL     1       1.774   5.999   1.284  0.00  0.00    +0.060 A 
ATOM     11  C   UNL     1       0.584   5.310   1.088  0.00  0.00    +0.131 A 
ATOM     12  N   UNL     1       0.378   4.126   1.624  0.00  0.00    -0.251 NA
ATOM     13 CL   UNL     1       2.009   7.559   0.558  0.00  0.00    -0.082 Cl
ATOM     14  C   UNL     1       3.530   3.502   3.462  0.00  0.00    +0.297 A 
ATOM     15  O   UNL     1       4.602   4.036   3.682  0.00  0.00    -0.264 OA
ATOM     16  N   UNL     1       3.260   2.293   3.986  0.00  0.00    -0.088 N 
ATOM     17  O   UNL     1       4.240   1.661   4.790  0.00  0.00    -0.160 OA
ATOM     18  N   UNL     1      -0.116   1.544   2.756  0.00  0.00    -0.319 N 
ATOM     19  H   UNL     1      -0.932   2.027   2.553  0.00  0.00    +0.148 HD
ENDROOT
BRANCH   1  20
ATOM     20  S   UNL     1       0.879  -0.605   1.472  0.00  0.00    -0.010 S 
ATOM     21  O   UNL     1       0.779  -2.022   1.507  0.00  0.00    -0.172 OA
ATOM     22  O   UNL     1       2.166  -0.003   1.505  0.00  0.00    -0.172 OA
BRANCH  20  24
ATOM     23  C   UNL     1      -0.019   1.526   0.010  0.00  0.00    +0.031 C 
ATOM     24  C   UNL     1       0.002  -0.004   0.002  0.00  0.00    +0.126 C 
ATOM     25  C   UNL     1       0.718  -0.497  -1.257  0.00  0.00    +0.031 C 
ENDBRANCH  20  24
ENDBRANCH   1  20
TORSDOF 2
