REMARK  Name = ZINC47263824
REMARK  4 active torsions:
REMARK  status: ('A' for Active; 'I' for Inactive)
REMARK    1  A    between atoms: C_1  and  C_2
REMARK    2  A    between atoms: C_10  and  C_12
REMARK    3  A    between atoms: C_12  and  N_13
REMARK    4  A    between atoms: C_17  and  C_20
REMARK                            x       y       z     vdW  Elec       q    Type
REMARK                         _______ _______ _______ _____ _____    ______ ____
ROOT
ATOM      1  N   UNL     1      -1.102  -4.105   4.732  0.00  0.00    -0.296 NA
ATOM      2  C   UNL     1      -1.153  -5.111   3.664  0.00  0.00    +0.085 C 
ATOM      3  C   UNL     1      -2.475  -5.877   3.745  0.00  0.00    +0.016 C 
ATOM      4  C   UNL     1      -2.583  -6.554   5.115  0.00  0.00    +0.015 C 
ATOM      5  C   UNL     1      -2.479  -5.490   6.211  0.00  0.00    +0.089 C 
ATOM      6  C   UNL     1      -1.157  -4.735   6.058  0.00  0.00    +0.097 C 
ENDROOT
BRANCH   5   7
ATOM      7  C   UNL     1      -2.526  -6.154   7.563  0.00  0.00    +0.223 C 
ATOM      8  O   UNL     1      -1.595  -6.033   8.331  0.00  0.00    -0.275 OA
ATOM      9  N   UNL     1      -3.603  -6.883   7.918  0.00  0.00    -0.264 N 
ATOM     10  C   UNL     1      -3.646  -7.495   9.165  0.00  0.00    +0.164 A 
ATOM     11  N   UNL     1      -2.742  -7.470  10.121  0.00  0.00    -0.233 NA
ATOM     12  C   UNL     1      -2.935  -8.110  11.259  0.00  0.00    +0.120 A 
ATOM     13  C   UNL     1      -4.100  -8.789  11.395  0.00  0.00    +0.068 A 
ATOM     14  S   UNL     1      -4.871  -8.444   9.822  0.00  0.00    -0.061 S 
ATOM     15  H   UNL     1      -4.347  -6.980   7.304  0.00  0.00    +0.157 HD
ENDBRANCH   5   7
BRANCH   1  16
ATOM     16  C   UNL     1       0.091  -3.257   4.601  0.00  0.00    +0.137 C 
BRANCH  16  26
ATOM     17  C   UNL     1      -0.072   2.053   8.541  0.00  0.00    +0.064 C 
ATOM     18  C   UNL     1      -0.839   1.582   7.332  0.00  0.00    +0.033 A 
ATOM     19  C   UNL     1      -1.815   2.343   6.838  0.00  0.00    +0.070 A 
ATOM     20  S   UNL     1      -2.381   1.362   5.457  0.00  0.00    -0.059 S 
ATOM     21  C   UNL     1      -1.251   0.002   5.661  0.00  0.00    +0.158 A 
ATOM     22  N   UNL     1      -0.516   0.378   6.753  0.00  0.00    -0.261 N 
ATOM     23  C   UNL     1       0.461  -0.487   7.158  0.00  0.00    +0.259 A 
ATOM     24  O   UNL     1       1.152  -0.219   8.128  0.00  0.00    -0.267 OA
ATOM     25  C   UNL     1       0.667  -1.678   6.462  0.00  0.00    +0.093 A 
ATOM     26  C   UNL     1      -0.117  -1.976   5.367  0.00  0.00    +0.037 A 
ATOM     27  N   UNL     1      -1.066  -1.117   5.005  0.00  0.00    -0.337 N 
ATOM     28  H   UNL     1      -1.622  -1.317   4.236  0.00  0.00    +0.168 HD
ENDBRANCH  16  26
ENDBRANCH   1  16
TORSDOF 3
