REMARK  Name = ZINC12376574
REMARK  5 active torsions:
REMARK  status: ('A' for Active; 'I' for Inactive)
REMARK    1  A    between atoms: C_4  and  C_7
REMARK    2  A    between atoms: C_7  and  S_8
REMARK    3  A    between atoms: S_8  and  C_9
REMARK    4  A    between atoms: C_32  and  C_35
REMARK    5  A    between atoms: C_33  and  N_34
REMARK                            x       y       z     vdW  Elec       q    Type
REMARK                         _______ _______ _______ _____ _____    ______ ____
ROOT
ATOM      1  C   UNL     1       6.496  -4.901  -0.191  0.00  0.00    +0.160 A 
ATOM      2  N   UNL     1       5.331  -5.527  -0.292  0.00  0.00    -0.133 NA
ATOM      3  N   UNL     1       4.235  -4.904  -0.261  0.00  0.00    -0.124 NA
ATOM      4  C   UNL     1       4.180  -3.588  -0.138  0.00  0.00    +0.194 A 
ATOM      5  S   UNL     1       5.927  -3.210  -0.043  0.00  0.00    -0.024 S 
ATOM      6  N   UNL     1       3.076  -2.739  -0.091  0.00  0.00    -0.237 N 
ATOM      7  C   UNL     1       2.515  -2.290  -1.257  0.00  0.00    +0.027 C 
ATOM      8  C   UNL     1       1.726  -1.194  -1.265  0.00  0.00    +0.037 C 
ATOM      9  C   UNL     1       1.148  -0.725  -2.457  0.00  0.00    +0.162 C 
ATOM     10  O   UNL     1       0.430   0.255  -2.426  0.00  0.00    -0.292 OA
ATOM     11  C   UNL     1       1.403  -1.412  -3.770  0.00  0.00    +0.080 C 
ATOM     12  C   UNL     1       2.776  -2.091  -3.719  0.00  0.00    +0.014 C 
ATOM     13  C   UNL     1       2.798  -3.052  -2.529  0.00  0.00    +0.052 C 
ATOM     14  C   UNL     1       1.443  -0.440   0.008  0.00  0.00    +0.141 C 
ATOM     15  C   UNL     1       2.191   0.858   0.025  0.00  0.00    -0.002 A 
ATOM     16  C   UNL     1       3.542   1.131   0.012  0.00  0.00    +0.007 A 
ATOM     17  C   UNL     1       3.914   2.471   0.032  0.00  0.00    +0.000 A 
ATOM     18  C   UNL     1       2.971   3.479   0.064  0.00  0.00    +0.002 A 
ATOM     19  C   UNL     1       1.611   3.211   0.077  0.00  0.00    +0.023 A 
ATOM     20  C   UNL     1       1.224   1.870   0.058  0.00  0.00    +0.038 A 
ATOM     21  N   UNL     1      -0.046   1.321   0.065  0.00  0.00    -0.284 N 
ATOM     22  C   UNL     1      -0.015  -0.027   0.038  0.00  0.00    +0.238 C 
ATOM     23  O   UNL     1      -0.975  -0.769   0.038  0.00  0.00    -0.274 OA
ATOM     24  C   UNL     1       1.767  -1.260   1.220  0.00  0.00    +0.089 C 
ATOM     25  C   UNL     1       2.561  -2.359   1.129  0.00  0.00    +0.109 C 
ATOM     26  H   UNL     1      -0.862   1.845   0.084  0.00  0.00    +0.155 HD
ENDROOT
BRANCH  25  27
ATOM     27  N   UNL     1       2.851  -3.092   2.254  0.00  0.00    -0.345 N 
ATOM     28  H   UNL     1       2.553  -2.784   3.124  0.00  0.00    +0.144 HD
ATOM     29  H   UNL     1       3.353  -3.919   2.179  0.00  0.00    +0.144 HD
ENDBRANCH  25  27
BRANCH  24  30
ATOM     30  C   UNL     1       1.232  -0.880   2.493  0.00  0.00    +0.100 C 
ATOM     31  N   UNL     1       0.807  -0.579   3.503  0.00  0.00    -0.191 NA
ENDBRANCH  24  30
BRANCH   1  32
ATOM     32  S   UNL     1       8.134  -5.549  -0.201  0.00  0.00    -0.092 S 
BRANCH  32  33
ATOM     33  C   UNL     1       7.898  -7.338  -0.386  0.00  0.00    +0.111 C 
BRANCH  33  37
ATOM     34  C   UNL     1      11.703  -9.278  -0.452  0.00  0.00    +0.000 A 
ATOM     35  C   UNL     1      11.048  -9.082   0.750  0.00  0.00    +0.000 A 
ATOM     36  C   UNL     1       9.817  -8.454   0.771  0.00  0.00    +0.004 A 
ATOM     37  C   UNL     1       9.241  -8.022  -0.409  0.00  0.00    -0.037 A 
ATOM     38  C   UNL     1       9.893  -8.223  -1.611  0.00  0.00    +0.004 A 
ATOM     39  C   UNL     1      11.127  -8.846  -1.632  0.00  0.00    +0.000 A 
ENDBRANCH  33  37
ENDBRANCH  32  33
ENDBRANCH   1  32
TORSDOF 5
