REMARK  Name = ZINC42439273
REMARK  6 active torsions:
REMARK  status: ('A' for Active; 'I' for Inactive)
REMARK    1  A    between atoms: C_1  and  C_2
REMARK    2  A    between atoms: C_6  and  C_21
REMARK    3  A    between atoms: C_13  and  C_15
REMARK    4  A    between atoms: C_15  and  C_16
REMARK    5  A    between atoms: C_16  and  C_17
REMARK    6  A    between atoms: C_17  and  C_18
REMARK                            x       y       z     vdW  Elec       q    Type
REMARK                         _______ _______ _______ _____ _____    ______ ____
ROOT
ATOM      1  C   UNL     1       0.015   1.527  -0.010  0.00  0.00    +0.028 C 
ATOM      2  C   UNL     1       0.015  -0.003  -0.006  0.00  0.00    +0.075 C 
ATOM      3  C   UNL     1       0.630  -0.520  -1.310  0.00  0.00    +0.023 C 
ATOM      4  C   UNL     1       0.755  -2.044  -1.242  0.00  0.00    +0.016 C 
ATOM      5  C   UNL     1       1.679  -2.430  -0.085  0.00  0.00    +0.092 C 
ATOM      6  C   UNL     1       1.076  -1.935   1.233  0.00  0.00    +0.122 C 
ATOM      7  N   UNL     1       0.815  -0.493   1.124  0.00  0.00    -0.282 N 
ATOM      8  C   UNL     1       1.304   0.365   2.042  0.00  0.00    +0.309 C 
ATOM      9  O   UNL     1       0.996   1.540   2.000  0.00  0.00    -0.252 OA
ATOM     10  N   UNL     1       2.134  -0.080   3.006  0.00  0.00    -0.240 N 
ATOM     11  C   UNL     1       2.539   0.753   3.985  0.00  0.00    +0.220 C 
ATOM     12  O   UNL     1       2.156   1.903   3.998  0.00  0.00    -0.275 OA
ATOM     13  H   UNL     1       2.440  -1.001   2.995  0.00  0.00    +0.159 HD
ENDROOT
BRANCH   5  14
ATOM     14  C   UNL     1       3.032  -1.798  -0.289  0.00  0.00    +0.215 C 
ATOM     15  O   UNL     1       3.236  -1.106  -1.264  0.00  0.00    -0.276 OA
ATOM     16  N   UNL     1       4.014  -2.001   0.611  0.00  0.00    -0.329 N 
ATOM     17  H   UNL     1       3.850  -2.554   1.391  0.00  0.00    +0.145 HD
ATOM     18  H   UNL     1       4.884  -1.593   0.480  0.00  0.00    +0.145 HD
ENDBRANCH   5  14
BRANCH  11  19
ATOM     19  C   UNL     1       3.467   0.255   5.062  0.00  0.00    +0.097 C 
BRANCH  19  20
ATOM     20  C   UNL     1       3.769   1.392   6.041  0.00  0.00    +0.020 C 
BRANCH  20  21
ATOM     21  C   UNL     1       4.711   0.886   7.135  0.00  0.00    +0.125 C 
BRANCH  21  22
ATOM     22  C   UNL     1       5.008   2.006   8.099  0.00  0.00    +0.356 C 
ATOM     23  O   UNL     1       4.512   3.106   7.927  0.00  0.00    -0.246 OA
ATOM     24  O   UNL     1       5.745   1.812   9.051  0.00  0.00    -0.246 OA
ENDBRANCH  21  22
ENDBRANCH  20  21
ENDBRANCH  19  20
ENDBRANCH  11  19
TORSDOF 5
