REMARK  Name = ZINC44214876
REMARK  6 active torsions:
REMARK  status: ('A' for Active; 'I' for Inactive)
REMARK    1  A    between atoms: C_1  and  C_2
REMARK    2  A    between atoms: C_2  and  C_3
REMARK    3  A    between atoms: C_2  and  C_4
REMARK    4  A    between atoms: C_9  and  O_10
REMARK    5  A    between atoms: O_10  and  C_11
REMARK    6  A    between atoms: C_17  and  O_19
REMARK                            x       y       z     vdW  Elec       q    Type
REMARK                         _______ _______ _______ _____ _____    ______ ____
ROOT
ATOM      1  C   UNL     1       3.440  -2.500   0.142  0.00  0.00    +0.207 C 
ATOM      2  C   UNL     1       3.319  -3.406   1.369  0.00  0.00    +0.112 C 
ATOM      3  C   UNL     1       4.511  -4.363   1.415  0.00  0.00    +0.174 C 
ATOM      4  C   UNL     1       5.814  -3.565   1.494  0.00  0.00    +0.068 C 
ATOM      5  C   UNL     1       5.931  -2.659   0.266  0.00  0.00    +0.040 C 
ATOM      6  C   UNL     1       4.741  -1.698   0.226  0.00  0.00    +0.155 C 
ATOM      7  O   UNL     1       4.399  -5.211   2.569  0.00  0.00    -0.346 OA
ATOM      8  C   UNL     1       3.768  -6.419   2.081  0.00  0.00    +0.191 C 
ATOM      9  C   UNL     1       4.392  -6.551   0.669  0.00  0.00    +0.191 C 
ATOM     10  O   UNL     1       4.518  -5.181   0.238  0.00  0.00    -0.346 OA
ENDROOT
BRANCH   6  11
ATOM     11  O   UNL     1       4.733  -0.901   1.412  0.00  0.00    -0.388 OA
ATOM     12  H   UNL     1       5.529  -0.365   1.531  0.00  0.00    +0.210 HD
ENDBRANCH   6  11
BRANCH   1  13
ATOM     13  O   UNL     1       2.329  -1.602   0.101  0.00  0.00    -0.486 OA
BRANCH  13  19
ATOM     14  C   UNL     1       0.842  -0.326  -1.248  0.00  0.00    -0.003 A 
ATOM     15  C   UNL     1       0.493   0.181  -2.485  0.00  0.00    +0.007 A 
ATOM     16  C   UNL     1       1.273  -0.096  -3.592  0.00  0.00    +0.001 A 
ATOM     17  C   UNL     1       2.405  -0.880  -3.464  0.00  0.00    +0.004 A 
ATOM     18  C   UNL     1       2.759  -1.388  -2.230  0.00  0.00    +0.046 A 
ATOM     19  C   UNL     1       1.980  -1.108  -1.116  0.00  0.00    +0.124 A 
BRANCH  14  21
ATOM     20  C   UNL     1      -0.067   1.489   0.176  0.00  0.00    +0.012 C 
ATOM     21  C   UNL     1      -0.009  -0.024  -0.041  0.00  0.00    +0.016 C 
ATOM     22  C   UNL     1      -1.424  -0.561  -0.268  0.00  0.00    +0.012 C 
ENDBRANCH  14  21
ENDBRANCH  13  19
ENDBRANCH   1  13
TORSDOF 4
