REMARK  Name = ZINC08844374
REMARK  11 active torsions:
REMARK  status: ('A' for Active; 'I' for Inactive)
REMARK    1  A    between atoms: C_1  and  O_2
REMARK    2  A    between atoms: O_2  and  C_3
REMARK    3  A    between atoms: C_6  and  O_9
REMARK    4  A    between atoms: O_9  and  C_10
REMARK    5  A    between atoms: C_15  and  O_21
REMARK    6  A    between atoms: O_21  and  C_22
REMARK    7  A    between atoms: C_24  and  O_37
REMARK    8  A    between atoms: C_26  and  O_36
REMARK    9  A    between atoms: C_28  and  O_35
REMARK   10  A    between atoms: C_30  and  C_33
REMARK   11  A    between atoms: C_33  and  O_34
REMARK                            x       y       z     vdW  Elec       q    Type
REMARK                         _______ _______ _______ _____ _____    ______ ____
ROOT
ATOM      1  C   UNL     1       3.625   3.213   0.294  0.00  0.00    +0.210 A 
ATOM      2  C   UNL     1       3.561   1.928   0.695  0.00  0.00    +0.245 A 
ATOM      3  O   UNL     1       2.409   1.326   1.018  0.00  0.00    -0.459 OA
ATOM      4  C   UNL     1       1.221   1.963   0.965  0.00  0.00    +0.142 A 
ATOM      5  C   UNL     1       0.045   1.310   1.307  0.00  0.00    +0.092 A 
ATOM      6  C   UNL     1      -1.161   1.986   1.239  0.00  0.00    +0.128 A 
ATOM      7  C   UNL     1      -1.204   3.321   0.841  0.00  0.00    +0.047 A 
ATOM      8  C   UNL     1      -0.056   3.978   0.501  0.00  0.00    +0.019 A 
ATOM      9  C   UNL     1       1.168   3.308   0.559  0.00  0.00    +0.068 A 
ATOM     10  C   UNL     1       2.429   3.981   0.202  0.00  0.00    +0.234 A 
ATOM     11  O   UNL     1       2.447   5.146  -0.157  0.00  0.00    -0.283 OA
ENDROOT
BRANCH   1  12
ATOM     12  O   UNL     1       4.824   3.774  -0.021  0.00  0.00    -0.449 OA
BRANCH  12  16
ATOM     13  C   UNL     1       8.199   1.414   0.256  0.00  0.00    +0.120 A 
ATOM     14  C   UNL     1       7.490   1.472  -0.934  0.00  0.00    +0.049 A 
ATOM     15  C   UNL     1       6.361   2.262  -1.027  0.00  0.00    +0.050 A 
ATOM     16  C   UNL     1       5.936   2.997   0.070  0.00  0.00    +0.129 A 
ATOM     17  C   UNL     1       6.649   2.943   1.259  0.00  0.00    +0.050 A 
ATOM     18  C   UNL     1       7.775   2.148   1.353  0.00  0.00    +0.049 A 
BRANCH  13  20
ATOM     19  C   UNL     1       9.993   0.623   1.603  0.00  0.00    +0.277 C 
ATOM     20  O   UNL     1       9.311   0.636   0.347  0.00  0.00    -0.495 OA
ENDBRANCH  13  20
ENDBRANCH  12  16
ENDBRANCH   1  12
BRANCH   6  21
ATOM     21  O   UNL     1      -2.311   1.345   1.568  0.00  0.00    -0.461 OA
BRANCH  21  22
ATOM     22  C   UNL     1      -3.522   2.098   1.477  0.00  0.00    +0.339 C 
ATOM     23  C   UNL     1      -4.666   1.305   2.115  0.00  0.00    +0.214 C 
ATOM     24  C   UNL     1      -5.971   2.092   1.960  0.00  0.00    +0.180 C 
ATOM     25  C   UNL     1      -6.214   2.368   0.474  0.00  0.00    +0.177 C 
ATOM     26  C   UNL     1      -5.011   3.121  -0.101  0.00  0.00    +0.179 C 
ATOM     27  O   UNL     1      -3.826   2.348   0.103  0.00  0.00    -0.331 OA
BRANCH  25  28
ATOM     28  O   UNL     1      -6.382   1.131  -0.221  0.00  0.00    -0.386 OA
ATOM     29  H   UNL     1      -7.125   0.600   0.095  0.00  0.00    +0.210 HD
ENDBRANCH  25  28
BRANCH  24  30
ATOM     30  O   UNL     1      -7.056   1.327   2.490  0.00  0.00    -0.386 OA
ATOM     31  H   UNL     1      -6.964   1.110   3.428  0.00  0.00    +0.210 HD
ENDBRANCH  24  30
BRANCH  23  32
ATOM     32  O   UNL     1      -4.791   0.040   1.464  0.00  0.00    -0.383 OA
ATOM     33  H   UNL     1      -3.998  -0.511   1.518  0.00  0.00    +0.210 HD
ENDBRANCH  23  32
BRANCH  26  34
ATOM     34  C   UNL     1      -5.220   3.348  -1.599  0.00  0.00    +0.190 C 
BRANCH  34  35
ATOM     35  O   UNL     1      -4.154   4.150  -2.112  0.00  0.00    -0.392 OA
ATOM     36  H   UNL     1      -4.221   4.335  -3.059  0.00  0.00    +0.210 HD
ENDBRANCH  34  35
ENDBRANCH  26  34
ENDBRANCH  21  22
ENDBRANCH   6  21
TORSDOF 10
