REMARK  Name = ZINC33897184
REMARK  8 active torsions:
REMARK  status: ('A' for Active; 'I' for Inactive)
REMARK    1  A    between atoms: C_1  and  C_2
REMARK    2  A    between atoms: C_2  and  C_3
REMARK    3  A    between atoms: C_2  and  C_4
REMARK    4  A    between atoms: C_2  and  N_5
REMARK    5  A    between atoms: C_10  and  C_23
REMARK    6  A    between atoms: C_13  and  C_18
REMARK    7  A    between atoms: C_13  and  C_20
REMARK    8  A    between atoms: C_18  and  O_19
REMARK                            x       y       z     vdW  Elec       q    Type
REMARK                         _______ _______ _______ _____ _____    ______ ____
ROOT
ATOM      1  N   UNL     1       0.896  -0.559  -1.114  0.00  0.00    -0.236 N 
ATOM      2  C   UNL     1       0.241  -1.329  -2.043  0.00  0.00    +0.225 C 
ATOM      3  O   UNL     1      -0.945  -1.576  -2.095  0.00  0.00    -0.275 OA
ATOM      4  C   UNL     1       1.274  -1.779  -2.942  0.00  0.00    +0.077 C 
ATOM      5  C   UNL     1       1.444  -2.302  -4.308  0.00  0.00    -0.025 C 
ATOM      6  N   UNL     1       2.938  -2.260  -4.478  0.00  0.00    +0.397 N 
ATOM      7  C   UNL     1       3.478  -1.247  -3.523  0.00  0.00    +0.071 C 
ATOM      8  C   UNL     1       2.239  -0.527  -2.969  0.00  0.00    +0.088 C 
ATOM      9  C   UNL     1       2.168  -0.240  -1.495  0.00  0.00    +0.225 C 
ATOM     10  O   UNL     1       3.059   0.183  -0.790  0.00  0.00    -0.275 OA
ATOM     11  H   UNL     1       3.330  -3.167  -4.273  0.00  0.00    -0.083 HD
ATOM     12  H   UNL     1       3.166  -1.994  -5.424  0.00  0.00    -0.083 HD
ENDROOT
BRANCH   5  13
ATOM     13  C   UNL     1       0.930  -3.715  -4.411  0.00  0.00    -0.039 A 
ATOM     14  C   UNL     1       0.697  -4.451  -3.264  0.00  0.00    +0.023 A 
ATOM     15  C   UNL     1       0.226  -5.748  -3.358  0.00  0.00    +0.043 A 
ATOM     16  C   UNL     1      -0.013  -6.310  -4.599  0.00  0.00    +0.041 A 
ATOM     17  C   UNL     1       0.219  -5.574  -5.747  0.00  0.00    +0.061 A 
ATOM     18  C   UNL     1       0.686  -4.274  -5.652  0.00  0.00    +0.061 A 
ATOM     19 CL   UNL     1       0.972  -3.347  -7.093  0.00  0.00    -0.082 Cl
ATOM     20 CL   UNL     1      -0.080  -6.278  -7.305  0.00  0.00    -0.082 Cl
ATOM     21 CL   UNL     1      -0.066  -6.672  -1.917  0.00  0.00    -0.083 Cl
ENDBRANCH   5  13
BRANCH   1  23
ATOM     22  C   UNL     1       0.266   1.409   0.196  0.00  0.00    +0.031 C 
ATOM     23  C   UNL     1       0.293  -0.120   0.147  0.00  0.00    +0.036 C 
ATOM     24  C   UNL     1       1.118  -0.653   1.320  0.00  0.00    +0.031 C 
ATOM     25  C   UNL     1      -1.136  -0.658   0.244  0.00  0.00    +0.031 C 
ENDBRANCH   1  23
BRANCH   7  26
ATOM     26  C   UNL     1       4.357  -0.262  -4.250  0.00  0.00    +0.348 C 
ATOM     27  O   UNL     1       4.554  -0.388  -5.446  0.00  0.00    -0.248 OA
ATOM     28  O   UNL     1       4.871   0.661  -3.641  0.00  0.00    -0.248 OA
ENDBRANCH   7  26
BRANCH   7  29
ATOM     29  C   UNL     1       4.264  -1.937  -2.407  0.00  0.00    +0.155 C 
BRANCH  29  30
ATOM     30  O   UNL     1       5.371  -2.643  -2.970  0.00  0.00    -0.396 OA
ATOM     31  H   UNL     1       5.915  -3.106  -2.319  0.00  0.00    +0.209 HD
ENDBRANCH  29  30
ENDBRANCH   7  29
TORSDOF 5
