REMARK  Name = ZINC00045683
REMARK  4 active torsions:
REMARK  status: ('A' for Active; 'I' for Inactive)
REMARK    1  A    between atoms: C_4  and  N_7
REMARK    2  A    between atoms: C_10  and  C_17
REMARK    3  A    between atoms: N_18  and  C_19
REMARK    4  A    between atoms: C_23  and  O_25
REMARK                            x       y       z     vdW  Elec       q    Type
REMARK                         _______ _______ _______ _____ _____    ______ ____
ROOT
ATOM      1  N   UNL     1       6.753   3.155   1.017  0.00  0.00    -0.221 N 
ATOM      2  C   UNL     1       5.970   3.800   0.127  0.00  0.00    +0.243 C 
ATOM      3  O   UNL     1       6.137   3.670  -1.067  0.00  0.00    -0.274 OA
ATOM      4  C   UNL     1       4.873   4.693   0.675  0.00  0.00    +0.203 C 
ATOM      5  C   UNL     1       4.766   4.772   2.186  0.00  0.00    +0.236 C 
ATOM      6  O   UNL     1       3.922   5.459   2.721  0.00  0.00    -0.274 OA
ATOM      7  N   UNL     1       5.645   4.050   2.913  0.00  0.00    -0.266 N 
ATOM      8  C   UNL     1       6.582   3.288   2.337  0.00  0.00    +0.150 C 
ATOM      9  S   UNL     1       7.639   2.418   3.366  0.00  0.00    -0.018 S 
ATOM     10  H   UNL     1       5.596   4.085   3.881  0.00  0.00    +0.157 HD
ENDROOT
BRANCH   1  14
ATOM     11  C   UNL     1       9.793   0.674  -0.388  0.00  0.00    +0.000 A 
ATOM     12  C   UNL     1       8.530   0.158  -0.163  0.00  0.00    +0.002 A 
ATOM     13  C   UNL     1       7.521   0.977   0.302  0.00  0.00    +0.024 A 
ATOM     14  C   UNL     1       7.775   2.320   0.544  0.00  0.00    +0.043 A 
ATOM     15  C   UNL     1       9.043   2.837   0.312  0.00  0.00    +0.024 A 
ATOM     16  C   UNL     1      10.050   2.011  -0.148  0.00  0.00    +0.002 A 
ENDBRANCH   1  14
BRANCH   4  17
ATOM     17  C   UNL     1       3.555   4.200   0.136  0.00  0.00    +0.106 C 
ATOM     18  N   UNL     1       2.879   4.932  -0.685  0.00  0.00    -0.258 NA
BRANCH  18  19
ATOM     19  C   UNL     1       1.677   4.484  -1.176  0.00  0.00    +0.067 A 
ATOM     20  C   UNL     1       1.554   3.171  -1.632  0.00  0.00    +0.028 A 
ATOM     21  C   UNL     1       0.345   2.723  -2.124  0.00  0.00    +0.006 A 
ATOM     22  C   UNL     1      -0.744   3.572  -2.172  0.00  0.00    +0.045 A 
ATOM     23  C   UNL     1      -0.632   4.878  -1.715  0.00  0.00    +0.119 A 
ATOM     24  C   UNL     1       0.577   5.338  -1.219  0.00  0.00    +0.073 A 
BRANCH  23  25
ATOM     25  O   UNL     1      -1.708   5.708  -1.758  0.00  0.00    -0.507 OA
ATOM     26  H   UNL     1      -1.785   6.208  -2.582  0.00  0.00    +0.292 HD
ENDBRANCH  23  25
ENDBRANCH  18  19
ENDBRANCH   4  17
TORSDOF 4
