REMARK  Name = ZINC61693045
REMARK  3 active torsions:
REMARK  status: ('A' for Active; 'I' for Inactive)
REMARK    1  A    between atoms: C_4  and  N_8
REMARK    2  A    between atoms: N_8  and  S_9
REMARK    3  A    between atoms: S_9  and  N_12
REMARK                            x       y       z     vdW  Elec       q    Type
REMARK                         _______ _______ _______ _____ _____    ______ ____
ROOT
ATOM      1  N   UNL     1       3.621  -0.651  -0.036  0.00  0.00    -0.086 NA
ENDROOT
BRANCH   1   5
ATOM      2  C   UNL     1      -0.017   1.379   0.010  0.00  0.00    +0.017 A 
ATOM      3  C   UNL     1       1.170   2.090   0.002  0.00  0.00    +0.023 A 
ATOM      4  C   UNL     1       2.378   1.420  -0.013  0.00  0.00    +0.065 A 
ATOM      5  C   UNL     1       2.400   0.030  -0.021  0.00  0.00    +0.095 A 
ATOM      6  C   UNL     1       1.208  -0.680  -0.013  0.00  0.00    +0.043 A 
ATOM      7  C   UNL     1       0.002  -0.004   0.002  0.00  0.00    +0.020 A 
ATOM      8 BR   UNL     1      -1.623  -0.971   0.013  0.00  0.00    -0.050 Br
ATOM      9 CL   UNL     1       3.867   2.313  -0.023  0.00  0.00    -0.082 Cl
ENDBRANCH   1   5
BRANCH   1  10
ATOM     10  S   UNL     1       3.645  -2.307  -0.045  0.00  0.00    +0.131 S 
ATOM     11  O   UNL     1       3.113  -2.728   1.203  0.00  0.00    -0.136 OA
ATOM     12  O   UNL     1       3.088  -2.714  -1.288  0.00  0.00    -0.136 OA
BRANCH  10  13
ATOM     13  N   UNL     1       5.234  -2.773  -0.064  0.00  0.00    -0.162 NA
ATOM     14  C   UNL     1       6.046  -3.001  -1.268  0.00  0.00    +0.111 C 
ATOM     15  C   UNL     1       7.448  -3.444  -0.798  0.00  0.00    +0.018 C 
ATOM     16  C   UNL     1       7.180  -3.986   0.631  0.00  0.00    +0.018 C 
ATOM     17  C   UNL     1       6.071  -3.021   1.125  0.00  0.00    +0.111 C 
ENDBRANCH  10  13
ENDBRANCH   1  10
TORSDOF 3
