REMARK  Name = ZINC22583667
REMARK  10 active torsions:
REMARK  status: ('A' for Active; 'I' for Inactive)
REMARK    1  A    between atoms: C_1  and  C_2
REMARK    2  A    between atoms: C_2  and  C_3
REMARK    3  A    between atoms: C_2  and  N_4
REMARK    4  A    between atoms: N_7  and  C_8
REMARK    5  A    between atoms: N_7  and  C_16
REMARK    6  A    between atoms: C_8  and  C_9
REMARK    7  A    between atoms: C_9  and  N_10
REMARK    8  A    between atoms: C_16  and  C_17
REMARK    9  A    between atoms: C_25  and  C_26
REMARK   10  A    between atoms: C_25  and  C_27
REMARK                            x       y       z     vdW  Elec       q    Type
REMARK                         _______ _______ _______ _____ _____    ______ ____
ROOT
ATOM      1  N   UNL     1      -2.360   1.279  -2.816  0.00  0.00    -0.297 N 
ATOM      2  C   UNL     1      -1.708   0.832  -1.724  0.00  0.00    +0.303 C 
ATOM      3  O   UNL     1      -2.010  -0.237  -1.230  0.00  0.00    -0.253 OA
ATOM      4  N   UNL     1      -0.721   1.571  -1.179  0.00  0.00    -0.280 N 
ATOM      5  H   UNL     1      -2.087   2.246  -3.262  0.00  0.00    +0.150 HD
ENDROOT
BRANCH   1   7
ATOM      6  C   UNL     1      -4.390   1.390  -4.174  0.00  0.00    +0.027 C 
ATOM      7  C   UNL     1      -3.433   0.476  -3.408  0.00  0.00    +0.068 C 
ATOM      8  C   UNL     1      -2.830  -0.552  -4.368  0.00  0.00    +0.027 C 
ENDBRANCH   1   7
BRANCH   4   9
ATOM      9  C   UNL     1      -0.357   2.860  -1.774  0.00  0.00    +0.125 C 
BRANCH   9  10
ATOM     10  C   UNL     1       0.732   2.646  -2.826  0.00  0.00    +0.103 C 
BRANCH  10  11
ATOM     11  N   UNL     1       1.097   3.938  -3.422  0.00  0.00    -0.304 NA
ATOM     12  C   UNL     1       1.290   4.961  -2.385  0.00  0.00    +0.065 C 
ATOM     13  C   UNL     1       1.590   6.307  -3.050  0.00  0.00    -0.067 C 
ATOM     14  N   UNL     1       2.790   6.179  -3.888  0.00  0.00    +0.381 N 
ATOM     15  C   UNL     1       2.597   5.156  -4.926  0.00  0.00    -0.067 C 
ATOM     16  C   UNL     1       2.297   3.810  -4.261  0.00  0.00    +0.065 C 
ATOM     17  H   UNL     1       3.000   7.143  -4.376  0.00  0.00    -0.086 HD
ATOM     18  H   UNL     1       3.646   5.891  -3.261  0.00  0.00    -0.086 HD
ENDBRANCH  10  11
ENDBRANCH   9  10
ENDBRANCH   4   9
BRANCH   4  19
ATOM     19  C   UNL     1      -0.013   1.086   0.008  0.00  0.00    +0.140 C 
BRANCH  19  20
ATOM     20  C   UNL     1      -0.718   1.572   1.248  0.00  0.00    -0.053 C 
ATOM     21  C   UNL     1      -1.608   0.827   1.863  0.00  0.00    -0.025 C 
ATOM     22  C   UNL     1      -2.252   1.326   3.153  0.00  0.00    +0.031 C 
ATOM     23  C   UNL     1      -1.797   2.770   3.406  0.00  0.00    -0.000 C 
ATOM     24  C   UNL     1      -1.780   3.652   2.117  0.00  0.00    +0.012 C 
ATOM     25  C   UNL     1      -0.432   2.945   1.831  0.00  0.00    +0.022 C 
ATOM     26  C   UNL     1      -0.259   2.876   3.360  0.00  0.00    -0.025 C 
ATOM     27  C   UNL     1       0.464   1.618   3.846  0.00  0.00    +0.012 C 
ATOM     28  C   UNL     1       0.295   4.161   3.979  0.00  0.00    +0.012 C 
ENDBRANCH  19  20
ENDBRANCH   4  19
TORSDOF 6
