REMARK  Name = ZINC04623632
REMARK  6 active torsions:
REMARK  status: ('A' for Active; 'I' for Inactive)
REMARK    1  A    between atoms: C_1  and  C_2
REMARK    2  A    between atoms: C_7  and  C_8
REMARK    3  A    between atoms: C_19  and  C_24
REMARK    4  A    between atoms: N_26  and  C_27
REMARK    5  A    between atoms: C_27  and  C_28
REMARK    6  A    between atoms: C_28  and  C_29
REMARK                            x       y       z     vdW  Elec       q    Type
REMARK                         _______ _______ _______ _____ _____    ______ ____
ROOT
ATOM      1  C   UNL     1       1.336  -0.263  -2.135  0.00  0.00    +0.105 C 
ATOM      2  C   UNL     1       0.892  -0.723  -0.744  0.00  0.00    +0.029 C 
ATOM      3  C   UNL     1      -0.663  -0.658  -0.707  0.00  0.00    +0.033 C 
ATOM      4  C   UNL     1      -0.946   0.798  -0.390  0.00  0.00    -0.030 C 
ATOM      5  C   UNL     1       0.097   1.355   0.178  0.00  0.00    -0.023 C 
ATOM      6  C   UNL     1       1.217   0.351   0.312  0.00  0.00    +0.049 C 
ATOM      7  C   UNL     1       2.545   1.004   0.090  0.00  0.00    -0.019 A 
ATOM      8  C   UNL     1       3.067   1.800   1.094  0.00  0.00    +0.019 A 
ATOM      9  C   UNL     1       4.301   2.428   0.928  0.00  0.00    +0.037 A 
ATOM     10  C   UNL     1       5.019   2.256  -0.259  0.00  0.00    +0.015 A 
ATOM     11  C   UNL     1       4.500   1.465  -1.257  0.00  0.00    +0.024 A 
ATOM     12  C   UNL     1       3.267   0.839  -1.086  0.00  0.00    +0.031 A 
ATOM     13  N   UNL     1       2.761   0.044  -2.112  0.00  0.00    -0.336 N 
ATOM     14  H   UNL     1       3.346  -0.314  -2.798  0.00  0.00    +0.147 HD
ENDROOT
BRANCH   1  21
ATOM     15  C   UNL     1      -1.030  -0.426  -3.786  0.00  0.00    +0.044 C 
ATOM     16  C   UNL     1      -0.540   0.914  -3.302  0.00  0.00    -0.045 A 
ATOM     17  C   UNL     1      -1.222   2.066  -3.647  0.00  0.00    +0.004 A 
ATOM     18  C   UNL     1      -0.773   3.295  -3.203  0.00  0.00    +0.000 A 
ATOM     19  C   UNL     1       0.359   3.373  -2.414  0.00  0.00    +0.000 A 
ATOM     20  C   UNL     1       1.038   2.221  -2.064  0.00  0.00    +0.006 A 
ATOM     21  C   UNL     1       0.592   0.992  -2.512  0.00  0.00    -0.024 A 
ENDBRANCH   1  21
BRANCH   9  22
ATOM     22  C   UNL     1       4.849   3.275   2.005  0.00  0.00    +0.244 C 
ATOM     23  O   UNL     1       4.224   3.424   3.038  0.00  0.00    -0.270 OA
ATOM     24  N   UNL     1       6.041   3.882   1.844  0.00  0.00    -0.311 N 
ATOM     25  H   UNL     1       6.539   3.763   1.020  0.00  0.00    +0.149 HD
BRANCH  24  26
ATOM     26  C   UNL     1       6.585   4.723   2.914  0.00  0.00    +0.116 C 
BRANCH  26  27
ATOM     27  C   UNL     1       7.938   5.289   2.479  0.00  0.00    +0.144 C 
BRANCH  27  28
ATOM     28  C   UNL     1       8.497   6.154   3.579  0.00  0.00    +0.357 C 
ATOM     29  O   UNL     1       7.877   6.303   4.606  0.00  0.00    -0.246 OA
ATOM     30  O   UNL     1       9.685   6.759   3.420  0.00  0.00    -0.246 OA
ENDBRANCH  27  28
ENDBRANCH  26  27
ENDBRANCH  24  26
ENDBRANCH   9  22
TORSDOF 5
