REMARK  Name = ZINC44785306
REMARK  7 active torsions:
REMARK  status: ('A' for Active; 'I' for Inactive)
REMARK    1  A    between atoms: C_1  and  C_2
REMARK    2  A    between atoms: C_2  and  C_4
REMARK    3  A    between atoms: C_2  and  N_7
REMARK    4  A    between atoms: N_7  and  C_8
REMARK    5  A    between atoms: C_9  and  C_11
REMARK    6  A    between atoms: C_11  and  C_17
REMARK    7  A    between atoms: N_18  and  O_19
REMARK                            x       y       z     vdW  Elec       q    Type
REMARK                         _______ _______ _______ _____ _____    ______ ____
ROOT
ATOM      1  C   UNL     1       0.625  -1.767  -3.335  0.00  0.00    +0.109 C 
ATOM      2  C   UNL     1       1.175  -0.735  -4.325  0.00  0.00    +0.052 C 
ATOM      3  C   UNL     1       0.071   0.269  -4.669  0.00  0.00    +0.161 C 
ATOM      4  O   UNL     1      -1.054  -0.428  -5.207  0.00  0.00    -0.380 OA
ATOM      5  C   UNL     1      -1.639  -1.373  -4.308  0.00  0.00    +0.161 C 
ATOM      6  C   UNL     1      -0.604  -2.443  -3.950  0.00  0.00    +0.052 C 
ENDROOT
BRANCH   1   7
ATOM      7  C   UNL     1       1.680  -2.804  -3.048  0.00  0.00    +0.147 C 
ATOM      8  N   UNL     1       1.504  -4.027  -3.426  0.00  0.00    -0.076 NA
ATOM      9  N   UNL     1       2.833  -2.448  -2.383  0.00  0.00    -0.343 N 
ATOM     10  H   UNL     1       2.933  -1.549  -2.034  0.00  0.00    +0.144 HD
ATOM     11  H   UNL     1       3.544  -3.097  -2.264  0.00  0.00    +0.144 HD
BRANCH   8  12
ATOM     12  O   UNL     1       2.495  -5.001  -3.156  0.00  0.00    -0.408 OA
ATOM     13  H   UNL     1       2.274  -5.886  -3.476  0.00  0.00    +0.328 HD
ENDBRANCH   8  12
ENDBRANCH   1   7
BRANCH   1  16
ATOM     14  N   UNL     1      -0.353  -1.779  -1.063  0.00  0.00    -0.301 N 
ATOM     15  C   UNL     1      -0.503  -3.232  -1.184  0.00  0.00    +0.132 C 
ATOM     16  C   UNL     1       0.234  -1.078  -2.054  0.00  0.00    +0.229 C 
ATOM     17  O   UNL     1       0.446   0.108  -1.913  0.00  0.00    -0.275 OA
BRANCH  14  19
ATOM     18  C   UNL     1      -0.120  -1.639   1.367  0.00  0.00    +0.028 C 
ATOM     19  C   UNL     1      -0.840  -1.090   0.134  0.00  0.00    +0.076 C 
BRANCH  19  20
ATOM     20  C   UNL     1      -2.346  -1.319   0.277  0.00  0.00    +0.009 C 
ATOM     21  C   UNL     1      -3.266  -0.115   0.068  0.00  0.00    +0.005 C 
ATOM     22  C   UNL     1      -3.047  -0.675   1.475  0.00  0.00    +0.005 C 
ENDBRANCH  19  20
ENDBRANCH  14  19
ENDBRANCH   1  16
TORSDOF 5
