REMARK  Name = ZINC35668700
REMARK  8 active torsions:
REMARK  status: ('A' for Active; 'I' for Inactive)
REMARK    1  A    between atoms: C_1  and  C_2
REMARK    2  A    between atoms: C_3  and  C_17
REMARK    3  A    between atoms: C_4  and  C_10
REMARK    4  A    between atoms: N_19  and  C_20
REMARK    5  A    between atoms: C_22  and  O_29
REMARK    6  A    between atoms: C_25  and  O_26
REMARK    7  A    between atoms: O_26  and  C_27
REMARK    8  A    between atoms: O_29  and  C_30
REMARK                            x       y       z     vdW  Elec       q    Type
REMARK                         _______ _______ _______ _____ _____    ______ ____
ROOT
ATOM      1  C   UNL     1       0.076   1.141   0.330  0.00  0.00    +0.061 C 
ATOM      2  C   UNL     1       0.024  -0.330   0.009  0.00  0.00    +0.019 C 
ATOM      3  C   UNL     1      -1.171  -0.956  -0.043  0.00  0.00    +0.056 C 
ATOM      4  C   UNL     1      -1.179  -2.435  -0.369  0.00  0.00    +0.142 C 
ATOM      5  N   UNL     1       0.127  -3.074  -0.604  0.00  0.00    -0.288 N 
ATOM      6  C   UNL     1       1.238  -2.315  -0.516  0.00  0.00    +0.304 C 
ATOM      7  O   UNL     1       2.320  -2.833  -0.709  0.00  0.00    -0.252 OA
ATOM      8  N   UNL     1       1.186  -1.008  -0.230  0.00  0.00    -0.273 N 
ATOM      9  H   UNL     1       0.187  -4.019  -0.817  0.00  0.00    +0.151 HD
ATOM     10  H   UNL     1       2.021  -0.516  -0.185  0.00  0.00    +0.156 HD
ENDROOT
BRANCH   4  11
ATOM     11  C   UNL     1      -2.021  -2.635  -1.602  0.00  0.00    -0.022 A 
ATOM     12  C   UNL     1      -1.444  -2.546  -2.855  0.00  0.00    +0.008 A 
ATOM     13  C   UNL     1      -2.215  -2.729  -3.987  0.00  0.00    +0.038 A 
ATOM     14  C   UNL     1      -3.567  -3.001  -3.866  0.00  0.00    +0.123 A 
ATOM     15  C   UNL     1      -4.145  -3.090  -2.610  0.00  0.00    +0.038 A 
ATOM     16  C   UNL     1      -3.370  -2.912  -1.480  0.00  0.00    +0.008 A 
ATOM     17  F   UNL     1      -4.323  -3.180  -4.971  0.00  0.00    -0.205 F 
ENDBRANCH   4  11
BRANCH   3  18
ATOM     18  C   UNL     1      -2.377  -0.253   0.200  0.00  0.00    +0.248 C 
ATOM     19  O   UNL     1      -2.971  -0.408   1.252  0.00  0.00    -0.270 OA
ATOM     20  N   UNL     1      -2.867   0.587  -0.733  0.00  0.00    -0.279 N 
ATOM     21  H   UNL     1      -2.414   0.683  -1.585  0.00  0.00    +0.155 HD
BRANCH  20  22
ATOM     22  C   UNL     1      -4.030   1.323  -0.472  0.00  0.00    +0.079 A 
ATOM     23  C   UNL     1      -4.597   1.300   0.794  0.00  0.00    +0.074 A 
ATOM     24  C   UNL     1      -5.748   2.028   1.050  0.00  0.00    +0.140 A 
ATOM     25  C   UNL     1      -6.333   2.781   0.041  0.00  0.00    +0.086 A 
ATOM     26  C   UNL     1      -5.769   2.805  -1.222  0.00  0.00    +0.071 A 
ATOM     27  C   UNL     1      -4.616   2.083  -1.481  0.00  0.00    +0.143 A 
ATOM     28 CL   UNL     1      -7.774   3.692   0.364  0.00  0.00    -0.080 Cl
BRANCH  27  29
ATOM     29  O   UNL     1      -4.059   2.112  -2.722  0.00  0.00    -0.493 OA
ATOM     30  C   UNL     1      -4.713   2.913  -3.708  0.00  0.00    +0.277 C 
ENDBRANCH  27  29
BRANCH  24  31
ATOM     31  O   UNL     1      -6.304   2.006   2.291  0.00  0.00    -0.494 OA
ATOM     32  C   UNL     1      -5.650   1.211   3.281  0.00  0.00    +0.277 C 
ENDBRANCH  24  31
ENDBRANCH  20  22
ENDBRANCH   3  18
TORSDOF 5
