REMARK  Name = ZINC09402885
REMARK  6 active torsions:
REMARK  status: ('A' for Active; 'I' for Inactive)
REMARK    1  A    between atoms: C_1  and  C_2
REMARK    2  A    between atoms: C_3  and  C_19
REMARK    3  A    between atoms: C_4  and  C_10
REMARK    4  A    between atoms: C_13  and  N_16
REMARK    5  A    between atoms: N_21  and  C_22
REMARK    6  A    between atoms: C_27  and  C_28
REMARK                            x       y       z     vdW  Elec       q    Type
REMARK                         _______ _______ _______ _____ _____    ______ ____
ROOT
ATOM      1  C   UNL     1      -2.137   0.940   1.610  0.00  0.00    +0.061 C 
ATOM      2  C   UNL     1      -0.998   1.630   0.904  0.00  0.00    +0.019 C 
ATOM      3  C   UNL     1      -1.230   2.780   0.237  0.00  0.00    +0.056 C 
ATOM      4  C   UNL     1      -0.058   3.437  -0.463  0.00  0.00    +0.142 C 
ATOM      5  N   UNL     1       1.248   2.766  -0.352  0.00  0.00    -0.288 N 
ATOM      6  C   UNL     1       1.323   1.622   0.356  0.00  0.00    +0.304 C 
ATOM      7  O   UNL     1       2.397   1.060   0.453  0.00  0.00    -0.252 OA
ATOM      8  N   UNL     1       0.254   1.084   0.955  0.00  0.00    -0.273 N 
ATOM      9  H   UNL     1       2.036   3.139  -0.778  0.00  0.00    +0.151 HD
ATOM     10  H   UNL     1       0.373   0.258   1.450  0.00  0.00    +0.156 HD
ENDROOT
BRANCH   4  11
ATOM     11  C   UNL     1       0.089   4.832   0.088  0.00  0.00    -0.022 A 
ATOM     12  C   UNL     1       0.741   5.036   1.290  0.00  0.00    +0.008 A 
ATOM     13  C   UNL     1       0.880   6.316   1.793  0.00  0.00    +0.033 A 
ATOM     14  C   UNL     1       0.357   7.391   1.100  0.00  0.00    +0.126 A 
ATOM     15  C   UNL     1      -0.300   7.187  -0.099  0.00  0.00    +0.033 A 
ATOM     16  C   UNL     1      -0.434   5.908  -0.605  0.00  0.00    +0.008 A 
BRANCH  14  17
ATOM     17  N   UNL     1       0.500   8.761   1.641  0.00  0.00    +0.056 N 
ATOM     18  O   UNL     1       0.040   9.709   1.030  0.00  0.00    -0.126 OA
ATOM     19  O   UNL     1       1.079   8.941   2.698  0.00  0.00    -0.126 OA
ENDBRANCH  14  17
ENDBRANCH   4  11
BRANCH   3  20
ATOM     20  C   UNL     1      -2.526   3.350   0.188  0.00  0.00    +0.248 C 
ATOM     21  O   UNL     1      -3.171   3.308  -0.844  0.00  0.00    -0.270 OA
ATOM     22  N   UNL     1      -3.045   3.938   1.284  0.00  0.00    -0.281 N 
ATOM     23  H   UNL     1      -2.498   4.056   2.076  0.00  0.00    +0.155 HD
BRANCH  22  24
ATOM     24  C   UNL     1      -4.372   4.379   1.278  0.00  0.00    +0.045 A 
ATOM     25  C   UNL     1      -4.973   4.763   0.086  0.00  0.00    +0.024 A 
ATOM     26  C   UNL     1      -6.283   5.199   0.084  0.00  0.00    +0.002 A 
ATOM     27  C   UNL     1      -6.998   5.251   1.267  0.00  0.00    +0.001 A 
ATOM     28  C   UNL     1      -6.403   4.869   2.455  0.00  0.00    +0.014 A 
ATOM     29  C   UNL     1      -5.094   4.428   2.464  0.00  0.00    +0.076 A 
BRANCH  29  30
ATOM     30  C   UNL     1      -4.448   4.005   3.758  0.00  0.00    +0.419 C 
ATOM     31  F   UNL     1      -5.372   4.129   4.802  0.00  0.00    -0.166 F 
ATOM     32  F   UNL     1      -4.033   2.673   3.659  0.00  0.00    -0.166 F 
ATOM     33  F   UNL     1      -3.341   4.821   4.015  0.00  0.00    -0.166 F 
ENDBRANCH  29  30
ENDBRANCH  22  24
ENDBRANCH   3  20
TORSDOF 5
