REMARK  Name = ZINC65101206
REMARK  10 active torsions:
REMARK  status: ('A' for Active; 'I' for Inactive)
REMARK    1  A    between atoms: C_1  and  C_2
REMARK    2  A    between atoms: C_2  and  C_3
REMARK    3  A    between atoms: C_3  and  N_4
REMARK    4  A    between atoms: C_5  and  C_7
REMARK    5  A    between atoms: N_20  and  C_23
REMARK    6  A    between atoms: C_23  and  C_24
REMARK    7  A    between atoms: N_26  and  C_27
REMARK    8  A    between atoms: C_27  and  C_29
REMARK    9  A    between atoms: C_27  and  C_30
REMARK   10  A    between atoms: C_30  and  C_31
REMARK                            x       y       z     vdW  Elec       q    Type
REMARK                         _______ _______ _______ _____ _____    ______ ____
ROOT
ATOM      1  C   UNL     1       1.341  -4.130  -2.293  0.00  0.00    +0.078 C 
ATOM      2  C   UNL     1       2.080  -4.636  -1.052  0.00  0.00    +0.032 C 
ATOM      3  C   UNL     1       2.069  -6.168  -1.046  0.00  0.00    +0.108 C 
ATOM      4  N   UNL     1       2.625  -6.650  -2.318  0.00  0.00    -0.309 N 
ATOM      5  C   UNL     1       2.046  -6.155  -3.575  0.00  0.00    +0.108 C 
ATOM      6  C   UNL     1       2.058  -4.623  -3.552  0.00  0.00    +0.032 C 
ATOM      7  C   UNL     1       3.668  -7.550  -2.332  0.00  0.00    +0.164 A 
ATOM      8  N   UNL     1       4.287  -8.088  -1.304  0.00  0.00    -0.205 NA
ATOM      9  C   UNL     1       5.291  -8.952  -1.454  0.00  0.00    +0.176 A 
ATOM     10  C   UNL     1       5.612  -9.222  -2.796  0.00  0.00    +0.124 A 
ATOM     11  S   UNL     1       4.441  -8.219  -3.670  0.00  0.00    -0.045 S 
ATOM     12  C   UNL     1       6.632 -10.100  -3.135  0.00  0.00    +0.270 A 
ATOM     13  O   UNL     1       6.904 -10.328  -4.303  0.00  0.00    -0.266 OA
ATOM     14  N   UNL     1       7.318 -10.697  -2.128  0.00  0.00    -0.289 N 
ATOM     15  C   UNL     1       6.987 -10.418  -0.842  0.00  0.00    +0.204 A 
ATOM     16  N   UNL     1       6.037  -9.599  -0.514  0.00  0.00    -0.217 NA
ENDROOT
BRANCH   1  18
ATOM     17  N   UNL     1       0.738  -1.962  -1.265  0.00  0.00    -0.315 N 
ATOM     18  C   UNL     1       1.321  -2.623  -2.285  0.00  0.00    +0.216 C 
ATOM     19  O   UNL     1       1.829  -2.004  -3.196  0.00  0.00    -0.276 OA
ATOM     20  H   UNL     1       0.332  -2.457  -0.536  0.00  0.00    +0.149 HD
BRANCH  17  21
ATOM     21  C   UNL     1       0.718  -0.497  -1.257  0.00  0.00    +0.104 C 
BRANCH  21  23
ATOM     22  C   UNL     1      -0.019   1.526   0.010  0.00  0.00    +0.005 C 
ATOM     23  C   UNL     1       0.002  -0.004   0.002  0.00  0.00    +0.015 C 
ENDBRANCH  21  23
ENDBRANCH  17  21
ENDBRANCH   1  18
BRANCH  14  24
ATOM     24  C   UNL     1       8.405 -11.633  -2.427  0.00  0.00    +0.222 C 
BRANCH  24  25
ATOM     25  C   UNL     1       9.705 -10.878  -2.524  0.00  0.00    +0.233 C 
ATOM     26  O   UNL     1       9.723  -9.676  -2.361  0.00  0.00    -0.274 OA
ATOM     27  N   UNL     1      10.849 -11.538  -2.793  0.00  0.00    -0.311 N 
ATOM     28  H   UNL     1      10.835 -12.499  -2.924  0.00  0.00    +0.149 HD
BRANCH  27  29
ATOM     29  C   UNL     1      12.114 -10.804  -2.888  0.00  0.00    +0.070 C 
ATOM     30  C   UNL     1      12.712 -10.636  -1.490  0.00  0.00    +0.028 C 
BRANCH  29  31
ATOM     31  C   UNL     1      13.091 -11.584  -3.771  0.00  0.00    +0.018 C 
ATOM     32  C   UNL     1      12.550 -11.644  -5.200  0.00  0.00    +0.005 C 
ENDBRANCH  29  31
ENDBRANCH  27  29
ENDBRANCH  24  25
ENDBRANCH  14  24
TORSDOF 7
