REMARK  Name = ZINC05514501
REMARK  5 active torsions:
REMARK  status: ('A' for Active; 'I' for Inactive)
REMARK    1  A    between atoms: C_1  and  O_2
REMARK    2  A    between atoms: O_2  and  C_3
REMARK    3  A    between atoms: C_10  and  N_22
REMARK    4  A    between atoms: C_11  and  C_20
REMARK    5  A    between atoms: C_12  and  C_14
REMARK                            x       y       z     vdW  Elec       q    Type
REMARK                         _______ _______ _______ _____ _____    ______ ____
ROOT
ATOM      1  C   UNL     1      -1.222   1.752   0.017  0.00  0.00    +0.124 A 
ATOM      2  C   UNL     1      -1.239   3.139   0.030  0.00  0.00    +0.046 A 
ATOM      3  C   UNL     1      -0.051   3.844   0.023  0.00  0.00    +0.012 A 
ATOM      4  C   UNL     1       1.158   3.172   0.008  0.00  0.00    +0.008 A 
ATOM      5  C   UNL     1       1.181   1.786   0.000  0.00  0.00    +0.138 A 
ATOM      6  C   UNL     1      -0.013   1.076   0.008  0.00  0.00    +0.092 A 
ATOM      7  O   UNL     1       2.356   1.110  -0.014  0.00  0.00    -0.441 OA
ATOM      8  C   UNL     1       3.482   1.731  -0.404  0.00  0.00    +0.199 C 
ATOM      9  C   UNL     1       3.587   3.081  -0.418  0.00  0.00    +0.098 C 
ATOM     10  C   UNL     1       2.442   3.959   0.002  0.00  0.00    +0.098 C 
ENDROOT
BRANCH  10  11
ATOM     11  C   UNL     1       2.708   4.492   1.386  0.00  0.00    -0.035 A 
ATOM     12  C   UNL     1       2.849   3.618   2.448  0.00  0.00    +0.004 A 
ATOM     13  C   UNL     1       3.097   4.107   3.717  0.00  0.00    +0.000 A 
ATOM     14  C   UNL     1       3.195   5.470   3.925  0.00  0.00    +0.000 A 
ATOM     15  C   UNL     1       3.048   6.344   2.865  0.00  0.00    +0.000 A 
ATOM     16  C   UNL     1       2.805   5.855   1.595  0.00  0.00    +0.004 A 
ENDBRANCH  10  11
BRANCH   8  17
ATOM     17  N   UNL     1       4.558   0.975  -0.797  0.00  0.00    -0.328 N 
ATOM     18  H   UNL     1       5.378   1.408  -1.080  0.00  0.00    +0.145 HD
ATOM     19  H   UNL     1       4.498   0.006  -0.792  0.00  0.00    +0.145 HD
ENDBRANCH   8  17
BRANCH   1  21
ATOM     20  C   UNL     1      -3.598   1.819   0.029  0.00  0.00    +0.277 C 
ATOM     21  O   UNL     1      -2.390   1.057   0.019  0.00  0.00    -0.495 OA
ENDBRANCH   1  21
BRANCH   9  22
ATOM     22  C   UNL     1       4.815   3.684  -0.843  0.00  0.00    +0.101 C 
ATOM     23  N   UNL     1       5.788   4.162  -1.180  0.00  0.00    -0.191 NA
ENDBRANCH   9  22
TORSDOF 4
