REMARK  Name = ZINC35751119
REMARK  9 active torsions:
REMARK  status: ('A' for Active; 'I' for Inactive)
REMARK    1  A    between atoms: C_1  and  C_2
REMARK    2  A    between atoms: C_5  and  C_8
REMARK    3  A    between atoms: N_10  and  C_11
REMARK    4  A    between atoms: C_14  and  C_17
REMARK    5  A    between atoms: C_19  and  C_32
REMARK    6  A    between atoms: N_21  and  C_25
REMARK    7  A    between atoms: C_25  and  C_26
REMARK    8  A    between atoms: N_34  and  C_35
REMARK    9  A    between atoms: C_35  and  C_36
REMARK                            x       y       z     vdW  Elec       q    Type
REMARK                         _______ _______ _______ _____ _____    ______ ____
ROOT
ATOM      1  C   UNL     1       0.526 -10.583   1.315  0.00  0.00    +0.238 C 
ATOM      2  C   UNL     1       1.958 -11.011   1.716  0.00  0.00    +0.210 C 
ATOM      3  N   UNL     1       1.704 -12.188   2.570  0.00  0.00    -0.248 N 
ATOM      4  C   UNL     1       0.398 -12.185   2.894  0.00  0.00    +0.405 C 
ATOM      5  O   UNL     1      -0.129 -13.046   3.572  0.00  0.00    -0.226 OA
ATOM      6  O   UNL     1      -0.263 -11.129   2.390  0.00  0.00    -0.440 OA
ENDROOT
BRANCH   1  10
ATOM      7  C   UNL     1       0.185  -6.324   1.185  0.00  0.00    +0.034 A 
ATOM      8  C   UNL     1       0.295  -7.050   0.006  0.00  0.00    +0.024 A 
ATOM      9  C   UNL     1       0.405  -8.426   0.051  0.00  0.00    +0.009 A 
ATOM     10  C   UNL     1       0.406  -9.081   1.269  0.00  0.00    -0.005 A 
ATOM     11  C   UNL     1       0.297  -8.362   2.445  0.00  0.00    +0.009 A 
ATOM     12  C   UNL     1       0.192  -6.985   2.406  0.00  0.00    +0.024 A 
BRANCH   7  15
ATOM     13  C   UNL     1      -0.656  -4.285   2.072  0.00  0.00    +0.248 C 
ATOM     14  O   UNL     1      -1.296  -4.917   2.890  0.00  0.00    -0.270 OA
ATOM     15  N   UNL     1       0.074  -4.931   1.142  0.00  0.00    -0.282 N 
ATOM     16  H   UNL     1       0.522  -4.430   0.443  0.00  0.00    +0.155 HD
BRANCH  13  21
ATOM     17  C   UNL     1      -0.746   1.468   2.173  0.00  0.00    +0.044 C 
ATOM     18  C   UNL     1      -0.723  -0.038   2.146  0.00  0.00    -0.050 A 
ATOM     19  C   UNL     1      -1.452  -0.755   3.078  0.00  0.00    +0.004 A 
ATOM     20  C   UNL     1      -1.435  -2.134   3.060  0.00  0.00    +0.013 A 
ATOM     21  C   UNL     1      -0.680  -2.807   2.098  0.00  0.00    +0.037 A 
ATOM     22  C   UNL     1       0.054  -2.078   1.160  0.00  0.00    +0.013 A 
ATOM     23  C   UNL     1       0.024  -0.699   1.187  0.00  0.00    +0.004 A 
ENDBRANCH  13  21
ENDBRANCH   7  15
ENDBRANCH   1  10
BRANCH   2  24
ATOM     24  C   UNL     1       2.647  -9.918   2.491  0.00  0.00    +0.238 C 
ATOM     25  O   UNL     1       2.708  -9.979   3.701  0.00  0.00    -0.274 OA
ATOM     26  N   UNL     1       3.196  -8.873   1.841  0.00  0.00    -0.311 N 
ATOM     27  H   UNL     1       3.147  -8.825   0.873  0.00  0.00    +0.149 HD
BRANCH  26  28
ATOM     28  C   UNL     1       3.866  -7.811   2.594  0.00  0.00    +0.135 C 
BRANCH  28  29
ATOM     29  C   UNL     1       4.396  -6.753   1.624  0.00  0.00    +0.135 C 
ATOM     30  C   UNL     1       5.208  -5.692   2.398  0.00  0.00    +0.035 C 
ATOM     31  C   UNL     1       4.796  -4.377   1.684  0.00  0.00    +0.031 C 
ATOM     32  C   UNL     1       3.321  -4.686   1.325  0.00  0.00    +0.160 C 
ATOM     33  O   UNL     1       3.301  -6.084   0.988  0.00  0.00    -0.375 OA
ENDBRANCH  28  29
ENDBRANCH  26  28
ENDBRANCH   2  24
BRANCH   3  34
ATOM     34  C   UNL     1       2.697 -13.180   2.990  0.00  0.00    +0.147 C 
BRANCH  34  35
ATOM     35  C   UNL     1       3.325 -12.745   4.288  0.00  0.00    -0.030 A 
ATOM     36  C   UNL     1       4.457 -11.951   4.276  0.00  0.00    +0.005 A 
ATOM     37  C   UNL     1       5.033 -11.551   5.467  0.00  0.00    +0.000 A 
ATOM     38  C   UNL     1       4.478 -11.945   6.670  0.00  0.00    +0.000 A 
ATOM     39  C   UNL     1       3.346 -12.738   6.682  0.00  0.00    +0.000 A 
ATOM     40  C   UNL     1       2.767 -13.134   5.491  0.00  0.00    +0.005 A 
ENDBRANCH  34  35
ENDBRANCH   3  34
TORSDOF 8
