REMARK  Name = ZINC09413649
REMARK  6 active torsions:
REMARK  status: ('A' for Active; 'I' for Inactive)
REMARK    1  A    between atoms: C_4  and  C_7
REMARK    2  A    between atoms: C_7  and  C_30
REMARK    3  A    between atoms: N_10  and  N_14
REMARK    4  A    between atoms: C_15  and  C_17
REMARK    5  A    between atoms: C_17  and  C_18
REMARK    6  A    between atoms: C_18  and  N_19
REMARK                            x       y       z     vdW  Elec       q    Type
REMARK                         _______ _______ _______ _____ _____    ______ ____
ROOT
ATOM      1  C   UNL     1      -6.248  -4.536  -2.925  0.00  0.00    +0.165 C 
ATOM      2  C   UNL     1      -4.892  -5.035  -2.465  0.00  0.00    +0.272 C 
ATOM      3  O   UNL     1      -4.578  -6.180  -2.219  0.00  0.00    -0.270 OA
ATOM      4  N   UNL     1      -4.109  -3.941  -2.384  0.00  0.00    -0.137 N 
ATOM      5  C   UNL     1      -4.773  -2.833  -2.733  0.00  0.00    +0.327 C 
ATOM      6  O   UNL     1      -4.276  -1.723  -2.743  0.00  0.00    -0.251 OA
ATOM      7  N   UNL     1      -6.051  -3.083  -3.070  0.00  0.00    -0.276 N 
ATOM      8  H   UNL     1      -6.713  -2.434  -3.355  0.00  0.00    +0.152 HD
ENDROOT
BRANCH   1  12
ATOM      9  C   UNL     1      -9.240  -5.359   0.011  0.00  0.00    +0.000 A 
ATOM     10  C   UNL     1      -8.374  -6.358  -0.393  0.00  0.00    +0.000 A 
ATOM     11  C   UNL     1      -7.406  -6.092  -1.342  0.00  0.00    +0.006 A 
ATOM     12  C   UNL     1      -7.303  -4.826  -1.889  0.00  0.00    -0.011 A 
ATOM     13  C   UNL     1      -8.166  -3.826  -1.482  0.00  0.00    +0.006 A 
ATOM     14  C   UNL     1      -9.137  -4.093  -0.536  0.00  0.00    +0.000 A 
ENDBRANCH   1  12
BRANCH   1  15
ATOM     15  C   UNL     1      -6.619  -5.156  -4.247  0.00  0.00    -0.011 A 
ATOM     16  C   UNL     1      -6.595  -6.530  -4.397  0.00  0.00    +0.006 A 
ATOM     17  C   UNL     1      -6.940  -7.099  -5.609  0.00  0.00    +0.000 A 
ATOM     18  C   UNL     1      -7.301  -6.294  -6.673  0.00  0.00    +0.000 A 
ATOM     19  C   UNL     1      -7.320  -4.919  -6.524  0.00  0.00    +0.000 A 
ATOM     20  C   UNL     1      -6.979  -4.351  -5.311  0.00  0.00    +0.006 A 
ENDBRANCH   1  15
BRANCH   4  21
ATOM     21  N   UNL     1      -2.765  -3.962  -1.990  0.00  0.00    -0.224 N 
ATOM     22  C   UNL     1      -2.415  -3.523  -0.764  0.00  0.00    +0.231 C 
ATOM     23  O   UNL     1      -3.264  -3.110  -0.003  0.00  0.00    -0.274 OA
ATOM     24  H   UNL     1      -2.086  -4.293  -2.599  0.00  0.00    +0.174 HD
BRANCH  22  25
ATOM     25  C   UNL     1      -0.969  -3.546  -0.340  0.00  0.00    +0.116 C 
BRANCH  25  26
ATOM     26  C   UNL     1      -0.847  -2.999   1.083  0.00  0.00    +0.123 C 
BRANCH  26  27
ATOM     27  N   UNL     1       0.559  -3.021   1.495  0.00  0.00    -0.265 N 
ATOM     28  C   UNL     1       1.095  -4.147   2.137  0.00  0.00    +0.078 A 
ATOM     29  C   UNL     1       0.426  -5.360   2.114  0.00  0.00    +0.027 A 
ATOM     30  C   UNL     1       0.972  -6.458   2.754  0.00  0.00    +0.002 A 
ATOM     31  C   UNL     1       2.181  -6.347   3.416  0.00  0.00    +0.004 A 
ATOM     32  C   UNL     1       2.854  -5.139   3.441  0.00  0.00    +0.047 A 
ATOM     33  C   UNL     1       2.314  -4.036   2.803  0.00  0.00    +0.142 A 
ATOM     34  O   UNL     1       2.962  -2.840   2.817  0.00  0.00    -0.481 OA
ATOM     35  C   UNL     1       2.812  -2.014   1.660  0.00  0.00    +0.325 C 
ATOM     36  C   UNL     1       1.359  -1.958   1.263  0.00  0.00    +0.258 C 
ATOM     37  O   UNL     1       0.911  -0.963   0.732  0.00  0.00    -0.272 OA
ENDBRANCH  26  27
ENDBRANCH  25  26
ENDBRANCH  22  25
ENDBRANCH   4  21
TORSDOF 6
