REMARK  Name = ZINC00429537
REMARK  4 active torsions:
REMARK  status: ('A' for Active; 'I' for Inactive)
REMARK    1  A    between atoms: C_1  and  C_2
REMARK    2  A    between atoms: C_12  and  S_14
REMARK    3  A    between atoms: S_14  and  N_17
REMARK    4  A    between atoms: N_17  and  C_18
REMARK                            x       y       z     vdW  Elec       q    Type
REMARK                         _______ _______ _______ _____ _____    ______ ____
ROOT
ATOM      1  C   UNL     1       0.756   3.716   1.669  0.00  0.00    +0.109 C 
ATOM      2  C   UNL     1       1.768   2.995   0.816  0.00  0.00    +0.217 C 
ATOM      3  O   UNL     1       2.897   3.429   0.718  0.00  0.00    -0.276 OA
ATOM      4  N   UNL     1       1.420   1.869   0.164  0.00  0.00    -0.271 N 
ATOM      5  C   UNL     1       0.103   1.255   0.383  0.00  0.00    +0.114 C 
ATOM      6  C   UNL     1       0.311  -0.257   0.540  0.00  0.00    +0.024 C 
ATOM      7  C   UNL     1       0.877  -0.816  -0.764  0.00  0.00    +0.038 C 
ATOM      8  C   UNL     1       2.083  -0.024  -1.198  0.00  0.00    -0.024 A 
ATOM      9  C   UNL     1       2.308   1.263  -0.736  0.00  0.00    +0.040 A 
ATOM     10  C   UNL     1       3.428   1.968  -1.160  0.00  0.00    +0.026 A 
ATOM     11  C   UNL     1       4.319   1.386  -2.040  0.00  0.00    +0.030 A 
ATOM     12  C   UNL     1       4.095   0.101  -2.498  0.00  0.00    +0.106 A 
ATOM     13  C   UNL     1       2.981  -0.601  -2.079  0.00  0.00    +0.034 A 
ENDROOT
BRANCH  12  14
ATOM     14  S   UNL     1       5.233  -0.643  -3.619  0.00  0.00    +0.059 S 
ATOM     15  O   UNL     1       6.477   0.017  -3.433  0.00  0.00    -0.153 OA
ATOM     16  O   UNL     1       5.087  -2.049  -3.473  0.00  0.00    -0.153 OA
BRANCH  14  17
ATOM     17  N   UNL     1       4.725  -0.271  -5.151  0.00  0.00    -0.187 NA
ATOM     18  H   UNL     1       4.425  -0.975  -5.747  0.00  0.00    +0.148 HD
BRANCH  17  19
ATOM     19  C   UNL     1       4.729   1.122  -5.606  0.00  0.00    +0.077 C 
ATOM     20  C   UNL     1       3.343   1.732  -5.392  0.00  0.00    +0.020 C 
ATOM     21  C   UNL     1       3.347   3.187  -5.867  0.00  0.00    +0.002 C 
ATOM     22  C   UNL     1       3.701   3.236  -7.355  0.00  0.00    +0.000 C 
ATOM     23  C   UNL     1       5.088   2.625  -7.569  0.00  0.00    +0.002 C 
ATOM     24  C   UNL     1       5.083   1.171  -7.094  0.00  0.00    +0.020 C 
ENDBRANCH  17  19
ENDBRANCH  14  17
ENDBRANCH  12  14
TORSDOF 3
