REMARK  Name = ZINC36259972
REMARK  6 active torsions:
REMARK  status: ('A' for Active; 'I' for Inactive)
REMARK    1  A    between atoms: C_3  and  N_18
REMARK    2  A    between atoms: C_6  and  C_7
REMARK    3  A    between atoms: C_7  and  S_8
REMARK    4  A    between atoms: S_8  and  C_9
REMARK    5  A    between atoms: C_12  and  C_15
REMARK    6  A    between atoms: N_13  and  N_14
REMARK                            x       y       z     vdW  Elec       q    Type
REMARK                         _______ _______ _______ _____ _____    ______ ____
ROOT
ATOM      1  S   UNL     1      -1.828  -1.075  -1.697  0.00  0.00    -0.080 S 
ENDROOT
BRANCH   1   2
ATOM      2  C   UNL     1      -3.334  -1.974  -1.519  0.00  0.00    +0.209 A 
ATOM      3  N   UNL     1      -3.907  -2.321  -0.390  0.00  0.00    -0.121 NA
ATOM      4  N   UNL     1      -4.992  -2.967  -0.632  0.00  0.00    -0.132 NA
ATOM      5  C   UNL     1      -5.174  -3.070  -1.918  0.00  0.00    +0.154 A 
ATOM      6  N   UNL     1      -4.128  -2.436  -2.530  0.00  0.00    -0.228 N 
BRANCH   6   7
ATOM      7  N   UNL     1      -3.918  -2.296  -3.872  0.00  0.00    -0.295 N 
ATOM      8  H   UNL     1      -3.381  -3.069  -4.237  0.00  0.00    +0.163 HD
ATOM      9  H   UNL     1      -4.793  -2.199  -4.366  0.00  0.00    +0.163 HD
ENDBRANCH   6   7
BRANCH   5  10
ATOM     10  C   UNL     1      -6.327  -3.754  -2.605  0.00  0.00    +0.059 C 
ATOM     11  C   UNL     1      -7.287  -4.567  -1.733  0.00  0.00    +0.012 C 
ATOM     12  C   UNL     1      -7.734  -3.226  -2.318  0.00  0.00    +0.012 C 
ENDBRANCH   5  10
ENDBRANCH   1   2
BRANCH   1  13
ATOM     13  C   UNL     1      -1.293  -0.775   0.010  0.00  0.00    +0.112 C 
BRANCH  13  19
ATOM     14  C   UNL     1      -0.017   1.378   0.010  0.00  0.00    +0.007 A 
ATOM     15  C   UNL     1       1.171   2.086   0.002  0.00  0.00    +0.033 A 
ATOM     16  C   UNL     1       2.377   1.411  -0.013  0.00  0.00    +0.126 A 
ATOM     17  C   UNL     1       2.396   0.029  -0.020  0.00  0.00    +0.033 A 
ATOM     18  C   UNL     1       1.208  -0.679  -0.012  0.00  0.00    +0.007 A 
ATOM     19  C   UNL     1       0.002  -0.004   0.002  0.00  0.00    -0.037 A 
BRANCH  16  20
ATOM     20  N   UNL     1       3.649   2.168  -0.022  0.00  0.00    +0.056 N 
ATOM     21  O   UNL     1       3.633   3.377  -0.016  0.00  0.00    -0.126 OA
ATOM     22  O   UNL     1       4.704   1.578  -0.035  0.00  0.00    -0.126 OA
ENDBRANCH  16  20
ENDBRANCH  13  19
ENDBRANCH   1  13
TORSDOF 6
