REMARK  Name = ZINC12569153
REMARK  13 active torsions:
REMARK  status: ('A' for Active; 'I' for Inactive)
REMARK    1  A    between atoms: C_1  and  C_2
REMARK    2  A    between atoms: C_2  and  C_3
REMARK    3  A    between atoms: C_3  and  C_4
REMARK    4  A    between atoms: C_4  and  N_5
REMARK    5  A    between atoms: C_6  and  N_30
REMARK    6  A    between atoms: C_7  and  N_14
REMARK    7  A    between atoms: N_14  and  C_15
REMARK    8  A    between atoms: C_15  and  C_16
REMARK    9  A    between atoms: C_16  and  C_17
REMARK   10  A    between atoms: C_16  and  C_18
REMARK   11  A    between atoms: N_21  and  C_22
REMARK   12  A    between atoms: C_27  and  O_28
REMARK   13  A    between atoms: O_28  and  C_29
REMARK                            x       y       z     vdW  Elec       q    Type
REMARK                         _______ _______ _______ _____ _____    ______ ____
ROOT
ATOM      1  N   UNL     1       0.226  -2.954  -2.123  0.00  0.00    -0.248 N 
ATOM      2  C   UNL     1       0.302  -2.194  -3.233  0.00  0.00    +0.311 C 
ATOM      3  O   UNL     1       0.108  -0.995  -3.164  0.00  0.00    -0.252 OA
ATOM      4  N   UNL     1       0.593  -2.762  -4.420  0.00  0.00    -0.266 N 
ATOM      5  H   UNL     1       0.680  -3.726  -4.488  0.00  0.00    +0.156 HD
ENDROOT
BRANCH   1   8
ATOM      6  N   UNL     1       0.754  -1.795   1.325  0.00  0.00    -0.280 N 
ATOM      7  C   UNL     1       0.992  -2.391   0.108  0.00  0.00    +0.127 A 
ATOM      8  C   UNL     1       0.015  -2.348  -0.865  0.00  0.00    +0.141 A 
ATOM      9  C   UNL     1      -1.194  -1.685  -0.584  0.00  0.00    +0.277 A 
ATOM     10  O   UNL     1      -2.073  -1.628  -1.428  0.00  0.00    -0.266 OA
ATOM     11  N   UNL     1      -1.375  -1.113   0.623  0.00  0.00    -0.273 N 
ATOM     12  H   UNL     1      -2.234  -0.642   0.823  0.00  0.00    +0.173 HD
ATOM     13  C   UNL     1      -0.413  -1.169   1.561  0.00  0.00    +0.331 A 
ATOM     14  O   UNL     1      -0.602  -0.644   2.641  0.00  0.00    -0.246 OA
BRANCH   7  15
ATOM     15  N   UNL     1       2.187  -3.026  -0.134  0.00  0.00    -0.343 N 
ATOM     16  H   UNL     1       2.828  -3.144   0.584  0.00  0.00    +0.144 HD
ATOM     17  H   UNL     1       2.389  -3.357  -1.024  0.00  0.00    +0.144 HD
ENDBRANCH   7  15
BRANCH   6  18
ATOM     18  C   UNL     1       1.782  -1.838   2.369  0.00  0.00    +0.128 C 
BRANCH  18  19
ATOM     19  C   UNL     1       1.579  -3.084   3.233  0.00  0.00    +0.021 C 
BRANCH  19  21
ATOM     20  C   UNL     1       2.449  -4.375   5.188  0.00  0.00    +0.004 C 
ATOM     21  C   UNL     1       2.652  -3.128   4.324  0.00  0.00    -0.002 C 
ENDBRANCH  19  21
ENDBRANCH  18  19
ENDBRANCH   6  18
ENDBRANCH   1   8
BRANCH   4  22
ATOM     22  C   UNL     1       0.769  -1.961  -5.556  0.00  0.00    +0.077 A 
ATOM     23  C   UNL     1       0.121  -0.739  -5.653  0.00  0.00    +0.027 A 
ATOM     24  C   UNL     1       0.300   0.052  -6.772  0.00  0.00    +0.002 A 
ATOM     25  C   UNL     1       1.117  -0.376  -7.801  0.00  0.00    +0.004 A 
ATOM     26  C   UNL     1       1.763  -1.596  -7.715  0.00  0.00    +0.047 A 
ATOM     27  C   UNL     1       1.593  -2.392  -6.594  0.00  0.00    +0.141 A 
BRANCH  27  28
ATOM     28  O   UNL     1       2.227  -3.592  -6.507  0.00  0.00    -0.493 OA
ATOM     29  C   UNL     1       3.055  -3.969  -7.609  0.00  0.00    +0.277 C 
ENDBRANCH  27  28
ENDBRANCH   4  22
BRANCH   1  30
ATOM     30  C   UNL     1       0.363  -4.410  -2.220  0.00  0.00    +0.118 C 
BRANCH  30  31
ATOM     31  C   UNL     1      -1.025  -5.047  -2.316  0.00  0.00    +0.001 C 
ATOM     32  C   UNL     1      -1.696  -4.615  -3.621  0.00  0.00    +0.009 C 
ATOM     33  C   UNL     1      -0.889  -6.571  -2.292  0.00  0.00    +0.009 C 
ENDBRANCH  30  31
ENDBRANCH   1  30
TORSDOF 9
