REMARK  Name = ZINC36635771
REMARK  6 active torsions:
REMARK  status: ('A' for Active; 'I' for Inactive)
REMARK    1  A    between atoms: C_1  and  C_2
REMARK    2  A    between atoms: C_4  and  C_25
REMARK    3  A    between atoms: C_5  and  N_9
REMARK    4  A    between atoms: C_6  and  C_8
REMARK    5  A    between atoms: N_9  and  C_10
REMARK    6  A    between atoms: N_15  and  C_18
REMARK                            x       y       z     vdW  Elec       q    Type
REMARK                         _______ _______ _______ _____ _____    ______ ____
ROOT
ATOM      1  C   UNL     1      -0.849  -4.412   0.134  0.00  0.00    +0.166 C 
ATOM      2  C   UNL     1      -1.687  -5.590   0.672  0.00  0.00    +0.128 C 
ATOM      3  C   UNL     1      -1.267  -6.752  -0.202  0.00  0.00    +0.229 C 
ATOM      4  O   UNL     1      -1.691  -7.884  -0.115  0.00  0.00    -0.275 OA
ATOM      5  N   UNL     1      -0.354  -6.331  -1.086  0.00  0.00    -0.207 N 
ATOM      6  C   UNL     1      -0.041  -5.030  -0.986  0.00  0.00    +0.247 C 
ATOM      7  O   UNL     1       0.759  -4.442  -1.682  0.00  0.00    -0.273 OA
ENDROOT
BRANCH   5   8
ATOM      8  C   UNL     1       0.230  -7.181  -2.036  0.00  0.00    +0.062 A 
ATOM      9  C   UNL     1      -0.353  -7.329  -3.287  0.00  0.00    +0.025 A 
ATOM     10  C   UNL     1       0.224  -8.167  -4.222  0.00  0.00    +0.002 A 
ATOM     11  C   UNL     1       1.381  -8.858  -3.913  0.00  0.00    +0.002 A 
ATOM     12  C   UNL     1       1.964  -8.713  -2.668  0.00  0.00    +0.022 A 
ATOM     13  C   UNL     1       1.395  -7.871  -1.730  0.00  0.00    +0.063 A 
ATOM     14 CL   UNL     1       2.133  -7.684  -0.170  0.00  0.00    -0.082 Cl
ENDBRANCH   5   8
BRANCH   1  15
ATOM     15  N   UNL     1      -1.720  -3.353  -0.381  0.00  0.00    -0.332 N 
ATOM     16  H   UNL     1      -1.899  -3.293  -1.333  0.00  0.00    +0.147 HD
BRANCH  15  21
ATOM     17  C   UNL     1      -4.041   0.394   3.186  0.00  0.00    +0.044 C 
ATOM     18  C   UNL     1      -3.424  -0.601   2.238  0.00  0.00    -0.050 A 
ATOM     19  C   UNL     1      -4.178  -1.657   1.759  0.00  0.00    +0.008 A 
ATOM     20  C   UNL     1      -3.616  -2.571   0.890  0.00  0.00    -0.029 A 
ATOM     21  C   UNL     1      -2.292  -2.430   0.497  0.00  0.00    +0.034 A 
ATOM     22  C   UNL     1      -1.537  -1.368   0.980  0.00  0.00    -0.029 A 
ATOM     23  C   UNL     1      -2.107  -0.454   1.844  0.00  0.00    +0.008 A 
ATOM     24  C   UNL     1      -0.099  -1.211   0.556  0.00  0.00    +0.045 C 
ATOM     25  C   UNL     1      -4.439  -3.722   0.369  0.00  0.00    +0.045 C 
ENDBRANCH  15  21
ENDBRANCH   1  15
TORSDOF 3
