REMARK  Name = ZINC34779536
REMARK  10 active torsions:
REMARK  status: ('A' for Active; 'I' for Inactive)
REMARK    1  A    between atoms: C_1  and  C_2
REMARK    2  A    between atoms: C_2  and  C_3
REMARK    3  A    between atoms: C_3  and  N_4
REMARK    4  A    between atoms: C_8  and  C_30
REMARK    5  A    between atoms: C_9  and  C_26
REMARK    6  A    between atoms: N_12  and  C_15
REMARK    7  A    between atoms: C_15  and  C_16
REMARK    8  A    between atoms: N_18  and  C_19
REMARK    9  A    between atoms: C_22  and  C_25
REMARK   10  A    between atoms: N_28  and  N_29
REMARK                            x       y       z     vdW  Elec       q    Type
REMARK                         _______ _______ _______ _____ _____    ______ ____
ROOT
ATOM      1  N   UNL     1       0.737  -1.963  -1.256  0.00  0.00    -0.260 N 
ATOM      2  C   UNL     1       1.769  -2.609  -0.685  0.00  0.00    +0.265 A 
ATOM      3  O   UNL     1       2.672  -1.985  -0.160  0.00  0.00    -0.267 OA
ATOM      4  C   UNL     1       1.792  -4.092  -0.701  0.00  0.00    +0.074 A 
ATOM      5  C   UNL     1       2.757  -4.958  -0.172  0.00  0.00    -0.017 A 
ATOM      6  C   UNL     1       2.541  -6.297  -0.320  0.00  0.00    +0.081 A 
ATOM      7  S   UNL     1       0.992  -6.349  -1.199  0.00  0.00    -0.065 S 
ATOM      8  C   UNL     1       0.701  -4.709  -1.331  0.00  0.00    +0.098 A 
ATOM      9  N   UNL     1      -0.304  -3.968  -1.886  0.00  0.00    -0.278 N 
ATOM     10  C   UNL     1      -0.277  -2.623  -1.838  0.00  0.00    +0.333 A 
ATOM     11  O   UNL     1      -1.188  -1.992  -2.336  0.00  0.00    -0.246 OA
ATOM     12  C   UNL     1       3.982  -4.433   0.532  0.00  0.00    +0.046 C 
ENDROOT
BRANCH   6  13
ATOM     13  C   UNL     1       3.375  -7.414   0.130  0.00  0.00    +0.264 C 
ATOM     14  O   UNL     1       4.415  -7.196   0.723  0.00  0.00    -0.268 OA
ATOM     15  N   UNL     1       2.990  -8.683  -0.112  0.00  0.00    -0.249 N 
ATOM     16  H   UNL     1       2.161  -8.856  -0.585  0.00  0.00    +0.169 HD
BRANCH  15  17
ATOM     17  N   UNL     1       3.768  -9.724   0.307  0.00  0.00    -0.254 NA
ATOM     18  H   UNL     1       3.354 -10.609   0.056  0.00  0.00    +0.140 HD
ATOM     19  H   UNL     1       4.705  -9.646  -0.059  0.00  0.00    +0.140 HD
ENDBRANCH  15  17
ENDBRANCH   6  13
BRANCH   1  20
ATOM     20  C   UNL     1       0.716  -0.498  -1.238  0.00  0.00    +0.130 C 
BRANCH  20  22
ATOM     21  C   UNL     1      -0.018   1.516   0.045  0.00  0.00    +0.005 C 
ATOM     22  C   UNL     1       0.004  -0.014   0.026  0.00  0.00    +0.018 C 
ENDBRANCH  20  22
ENDBRANCH   1  20
BRANCH   9  23
ATOM     23  C   UNL     1      -1.428  -4.646  -2.536  0.00  0.00    +0.223 C 
BRANCH  23  24
ATOM     24  C   UNL     1      -2.514  -4.903  -1.523  0.00  0.00    +0.237 C 
ATOM     25  O   UNL     1      -2.364  -4.554  -0.371  0.00  0.00    -0.274 OA
ATOM     26  N   UNL     1      -3.652  -5.521  -1.897  0.00  0.00    -0.284 N 
ATOM     27  H   UNL     1      -3.801  -5.740  -2.830  0.00  0.00    +0.155 HD
BRANCH  26  28
ATOM     28  C   UNL     1      -4.619  -5.846  -0.939  0.00  0.00    +0.033 A 
ATOM     29  C   UNL     1      -5.361  -7.013  -1.067  0.00  0.00    +0.023 A 
ATOM     30  C   UNL     1      -6.314  -7.331  -0.120  0.00  0.00    +0.005 A 
ATOM     31  C   UNL     1      -6.530  -6.489   0.956  0.00  0.00    -0.050 A 
ATOM     32  C   UNL     1      -5.794  -5.326   1.086  0.00  0.00    +0.005 A 
ATOM     33  C   UNL     1      -4.834  -5.005   0.145  0.00  0.00    +0.023 A 
ATOM     34  C   UNL     1      -7.571  -6.839   1.987  0.00  0.00    +0.044 C 
ENDBRANCH  26  28
ENDBRANCH  23  24
ENDBRANCH   9  23
TORSDOF 7
