REMARK  Name = ZINC08790905
REMARK  5 active torsions:
REMARK  status: ('A' for Active; 'I' for Inactive)
REMARK    1  A    between atoms: C_16  and  C_18
REMARK    2  A    between atoms: C_18  and  C_19
REMARK    3  A    between atoms: C_19  and  C_20
REMARK    4  A    between atoms: N_25  and  C_28
REMARK    5  A    between atoms: C_28  and  C_29
REMARK                            x       y       z     vdW  Elec       q    Type
REMARK                         _______ _______ _______ _____ _____    ______ ____
ROOT
ATOM      1  C   UNL     1       6.234   5.563   1.012  0.00  0.00    +0.002 A 
ATOM      2  C   UNL     1       5.732   4.333   0.625  0.00  0.00    +0.004 A 
ATOM      3  C   UNL     1       5.835   3.928  -0.687  0.00  0.00    -0.026 A 
ATOM      4  C   UNL     1       6.442   4.746  -1.635  0.00  0.00    +0.054 A 
ATOM      5  C   UNL     1       6.946   5.983  -1.237  0.00  0.00    +0.062 A 
ATOM      6  C   UNL     1       6.840   6.385   0.080  0.00  0.00    +0.022 A 
ATOM      7 CL   UNL     1       7.708   7.022  -2.400  0.00  0.00    -0.082 Cl
ATOM      8  N   UNL     1       6.428   4.126  -2.887  0.00  0.00    -0.285 N 
ATOM      9  C   UNL     1       5.837   2.917  -2.849  0.00  0.00    +0.211 C 
ATOM     10  O   UNL     1       5.682   2.157  -3.781  0.00  0.00    -0.277 OA
ATOM     11  C   UNL     1       5.409   2.691  -1.424  0.00  0.00    +0.050 C 
ATOM     12  C   UNL     1       6.060   1.432  -0.839  0.00  0.00    +0.088 C 
ATOM     13  C   UNL     1       4.971   0.820   0.085  0.00  0.00    +0.073 C 
ATOM     14  C   UNL     1       3.771   1.784  -0.024  0.00  0.00    -0.057 C 
ATOM     15  C   UNL     1       4.628  -0.485  -0.596  0.00  0.00    +0.224 C 
ATOM     16  O   UNL     1       3.802  -1.283  -0.206  0.00  0.00    -0.275 OA
ATOM     17  N   UNL     1       5.377  -0.623  -1.695  0.00  0.00    -0.237 N 
ATOM     18  C   UNL     1       6.218   0.392  -1.926  0.00  0.00    +0.225 C 
ATOM     19  O   UNL     1       6.986   0.466  -2.861  0.00  0.00    -0.275 OA
ATOM     20  H   UNL     1       6.800   4.522  -3.691  0.00  0.00    +0.155 HD
ATOM     21  N   UNL     1       3.979   2.466  -1.304  0.00  0.00    +0.394 N 
ATOM     22  H   UNL     1       3.646   1.877  -2.077  0.00  0.00    -0.083 HD
ATOM     23  H   UNL     1       3.477   3.361  -1.315  0.00  0.00    -0.083 HD
ENDROOT
BRANCH  14  24
ATOM     24  C   UNL     1       2.457   1.002  -0.016  0.00  0.00    -0.006 C 
BRANCH  24  25
ATOM     25  C   UNL     1       1.280   1.980   0.001  0.00  0.00    +0.094 C 
BRANCH  25  26
ATOM     26  C   UNL     1      -0.014   1.209   0.009  0.00  0.00    +0.210 C 
ATOM     27  O   UNL     1       0.002  -0.004   0.002  0.00  0.00    -0.276 OA
ATOM     28  N   UNL     1      -1.191   1.867   0.018  0.00  0.00    -0.329 N 
ATOM     29  H   UNL     1      -2.024   1.370   0.019  0.00  0.00    +0.145 HD
ATOM     30  H   UNL     1      -1.204   2.837   0.023  0.00  0.00    +0.145 HD
ENDBRANCH  25  26
ENDBRANCH  24  25
ENDBRANCH  14  24
BRANCH  17  31
ATOM     31  C   UNL     1       5.285  -1.791  -2.575  0.00  0.00    +0.151 C 
BRANCH  31  32
ATOM     32  C   UNL     1       6.255  -2.847  -2.111  0.00  0.00    -0.026 A 
ATOM     33  C   UNL     1       7.544  -2.867  -2.611  0.00  0.00    +0.009 A 
ATOM     34  C   UNL     1       8.438  -3.831  -2.185  0.00  0.00    +0.050 A 
ATOM     35  C   UNL     1       8.042  -4.786  -1.263  0.00  0.00    +0.166 A 
ATOM     36  C   UNL     1       6.742  -4.769  -0.763  0.00  0.00    +0.167 A 
ATOM     37  C   UNL     1       5.852  -3.797  -1.191  0.00  0.00    +0.054 A 
ATOM     38  O   UNL     1       6.600  -5.801   0.119  0.00  0.00    -0.453 OA
ATOM     39  C   UNL     1       7.940  -6.200   0.462  0.00  0.00    +0.466 C 
ATOM     40  O   UNL     1       8.715  -5.829  -0.694  0.00  0.00    -0.453 OA
ENDBRANCH  31  32
ENDBRANCH  17  31
TORSDOF 5
