REMARK  Name = ZINC55243568
REMARK  6 active torsions:
REMARK  status: ('A' for Active; 'I' for Inactive)
REMARK    1  A    between atoms: C_1  and  C_2
REMARK    2  A    between atoms: C_2  and  C_3
REMARK    3  A    between atoms: C_5  and  S_9
REMARK    4  A    between atoms: S_9  and  C_10
REMARK    5  A    between atoms: C_10  and  C_11
REMARK    6  A    between atoms: C_22  and  C_24
REMARK                            x       y       z     vdW  Elec       q    Type
REMARK                         _______ _______ _______ _____ _____    ______ ____
ROOT
ATOM      1  C   UNL     1       9.645   0.348   2.390  0.00  0.00    +0.227 C 
ATOM      2  O   UNL     1       9.647  -0.174   3.485  0.00  0.00    -0.275 OA
ATOM      3  N   UNL     1       9.204  -0.338   1.317  0.00  0.00    -0.285 N 
ATOM      4  C   UNL     1       9.078   0.301   0.003  0.00  0.00    +0.144 C 
ATOM      5  C   UNL     1       9.632  -0.613  -1.061  0.00  0.00    -0.027 A 
ATOM      6  C   UNL     1       9.822  -0.086  -2.332  0.00  0.00    +0.005 A 
ATOM      7  C   UNL     1      10.316  -0.876  -3.350  0.00  0.00    +0.000 A 
ATOM      8  C   UNL     1      10.623  -2.201  -3.103  0.00  0.00    +0.000 A 
ATOM      9  C   UNL     1      10.437  -2.724  -1.840  0.00  0.00    +0.004 A 
ATOM     10  C   UNL     1       9.945  -1.929  -0.811  0.00  0.00    -0.040 A 
ATOM     11  C   UNL     1       9.795  -2.561   0.548  0.00  0.00    +0.067 C 
ATOM     12  C   UNL     1       8.835  -1.759   1.416  0.00  0.00    +0.166 C 
ENDROOT
BRANCH  12  13
ATOM     13  C   UNL     1       8.944  -2.216   2.848  0.00  0.00    +0.231 C 
ATOM     14  O   UNL     1       7.941  -2.434   3.493  0.00  0.00    -0.274 OA
ATOM     15  N   UNL     1      10.158  -2.382   3.411  0.00  0.00    -0.328 N 
ATOM     16  H   UNL     1      10.960  -2.208   2.894  0.00  0.00    +0.145 HD
ATOM     17  H   UNL     1      10.228  -2.677   4.332  0.00  0.00    +0.145 HD
ENDBRANCH  12  13
BRANCH   1  18
ATOM     18  C   UNL     1      10.136   1.764   2.230  0.00  0.00    +0.173 C 
BRANCH  18  19
ATOM     19  S   UNL     1      10.658   2.409   3.843  0.00  0.00    -0.077 S 
BRANCH  19  22
ATOM     20  C   UNL     1      11.675   5.869   2.418  0.00  0.00    +0.152 A 
ATOM     21  N   UNL     1      11.201   4.628   2.310  0.00  0.00    -0.206 NA
ATOM     22  C   UNL     1      11.198   4.049   3.492  0.00  0.00    +0.185 A 
ATOM     23  N   UNL     1      11.682   4.936   4.388  0.00  0.00    -0.254 N 
ATOM     24  H   UNL     1      11.799   4.796   5.341  0.00  0.00    +0.191 HD
ATOM     25  N   UNL     1      11.987   6.101   3.665  0.00  0.00    -0.157 NA
BRANCH  20  27
ATOM     26  C   UNL     1      13.220   6.684   0.657  0.00  0.00    +0.012 C 
ATOM     27  C   UNL     1      11.833   6.847   1.282  0.00  0.00    +0.075 C 
ENDBRANCH  20  27
ENDBRANCH  19  22
ENDBRANCH  18  19
ENDBRANCH   1  18
TORSDOF 5
