REMARK  Name = ZINC03468278
REMARK  10 active torsions:
REMARK  status: ('A' for Active; 'I' for Inactive)
REMARK    1  A    between atoms: C_1  and  C_2
REMARK    2  A    between atoms: C_2  and  N_3
REMARK    3  A    between atoms: N_3  and  C_4
REMARK    4  A    between atoms: N_3  and  S_10
REMARK    5  A    between atoms: S_10  and  C_13
REMARK    6  A    between atoms: C_16  and  C_19
REMARK    7  A    between atoms: C_19  and  O_21
REMARK    8  A    between atoms: O_21  and  C_22
REMARK    9  A    between atoms: C_22  and  C_24
REMARK   10  A    between atoms: C_22  and  C_25
REMARK                            x       y       z     vdW  Elec       q    Type
REMARK                         _______ _______ _______ _____ _____    ______ ____
ROOT
ATOM      1  C   UNL     1       5.859   0.859   0.496  0.00  0.00    +0.109 A 
ATOM      2  C   UNL     1       5.525   2.151   0.860  0.00  0.00    +0.029 A 
ATOM      3  C   UNL     1       6.236   2.799   1.849  0.00  0.00    +0.017 A 
ATOM      4  C   UNL     1       7.303   2.151   2.475  0.00  0.00    +0.059 A 
ATOM      5  C   UNL     1       7.638   0.848   2.099  0.00  0.00    +0.017 A 
ATOM      6  C   UNL     1       6.915   0.211   1.113  0.00  0.00    +0.029 A 
ENDROOT
BRANCH   1   7
ATOM      7  S   UNL     1       4.941   0.036  -0.763  0.00  0.00    +0.075 S 
ATOM      8  O   UNL     1       5.840  -0.857  -1.404  0.00  0.00    -0.150 OA
ATOM      9  O   UNL     1       4.232   1.044  -1.472  0.00  0.00    -0.150 OA
BRANCH   7  10
ATOM     10  N   UNL     1       3.802  -0.899  -0.007  0.00  0.00    -0.203 N 
BRANCH  10  11
ATOM     11  C   UNL     1       2.534  -0.378   0.259  0.00  0.00    +0.051 A 
ATOM     12  C   UNL     1       1.443  -1.229   0.381  0.00  0.00    +0.025 A 
ATOM     13  C   UNL     1       0.190  -0.710   0.643  0.00  0.00    +0.002 A 
ATOM     14  C   UNL     1       0.022   0.655   0.784  0.00  0.00    +0.000 A 
ATOM     15  C   UNL     1       1.106   1.505   0.664  0.00  0.00    +0.002 A 
ATOM     16  C   UNL     1       2.361   0.993   0.402  0.00  0.00    +0.025 A 
ENDBRANCH  10  11
BRANCH  10  18
ATOM     17  C   UNL     1       3.661  -3.237  -0.711  0.00  0.00    +0.026 C 
ATOM     18  C   UNL     1       4.126  -2.274   0.384  0.00  0.00    +0.128 C 
ENDBRANCH  10  18
ENDBRANCH   7  10
ENDBRANCH   1   7
BRANCH   4  19
ATOM     19  C   UNL     1       8.072   2.840   3.531  0.00  0.00    +0.340 C 
ATOM     20  O   UNL     1       9.000   2.273   4.074  0.00  0.00    -0.245 OA
BRANCH  19  21
ATOM     21  O   UNL     1       7.746   4.096   3.891  0.00  0.00    -0.449 OA
BRANCH  21  22
ATOM     22  C   UNL     1       8.546   4.711   4.936  0.00  0.00    +0.259 C 
ATOM     23  C   UNL     1       7.924   4.407   6.300  0.00  0.00    +0.062 C 
BRANCH  22  24
ATOM     24  C   UNL     1       8.588   6.202   4.724  0.00  0.00    +0.261 C 
ATOM     25  O   UNL     1       7.929   6.708   3.841  0.00  0.00    -0.271 OA
ATOM     26  N   UNL     1       9.357   6.974   5.516  0.00  0.00    -0.237 N 
ATOM     27  C   UNL     1       9.394   8.308   5.327  0.00  0.00    +0.303 C 
ATOM     28  O   UNL     1       8.734   8.815   4.442  0.00  0.00    -0.253 OA
ATOM     29  N   UNL     1      10.164   9.080   6.120  0.00  0.00    -0.313 N 
ATOM     30  H   UNL     1       9.884   6.570   6.223  0.00  0.00    +0.159 HD
ATOM     31  H   UNL     1      10.691   8.676   6.826  0.00  0.00    +0.146 HD
ATOM     32  H   UNL     1      10.191  10.040   5.984  0.00  0.00    +0.146 HD
ENDBRANCH  22  24
ENDBRANCH  21  22
ENDBRANCH  19  21
ENDBRANCH   4  19
TORSDOF 8
