REMARK  Name = ZINC66390199
REMARK  9 active torsions:
REMARK  status: ('A' for Active; 'I' for Inactive)
REMARK    1  A    between atoms: C_1  and  C_2
REMARK    2  A    between atoms: C_7  and  C_8
REMARK    3  A    between atoms: C_8  and  N_9
REMARK    4  A    between atoms: C_10  and  C_12
REMARK    5  A    between atoms: C_12  and  C_14
REMARK    6  A    between atoms: C_12  and  N_15
REMARK    7  A    between atoms: N_15  and  C_16
REMARK    8  A    between atoms: C_16  and  C_17
REMARK    9  A    between atoms: C_17  and  C_23
REMARK                            x       y       z     vdW  Elec       q    Type
REMARK                         _______ _______ _______ _____ _____    ______ ____
ROOT
ATOM      1  N   UNL     1      -2.700   2.913   5.576  0.00  0.00    +0.387 N 
ATOM      2  H   UNL     1      -2.158   2.432   6.277  0.00  0.00    -0.085 HD
ATOM      3  H   UNL     1      -2.434   3.887   5.555  0.00  0.00    -0.085 HD
ENDROOT
BRANCH   1   4
ATOM      4  C   UNL     1      -2.450   2.308   4.261  0.00  0.00    +0.013 C 
ATOM      5  C   UNL     1      -3.174   3.115   3.182  0.00  0.00    -0.004 C 
BRANCH   4   7
ATOM      6  N   UNL     1      -0.501   1.801   2.825  0.00  0.00    -0.313 N 
ATOM      7  C   UNL     1      -0.969   2.311   3.981  0.00  0.00    +0.199 C 
ATOM      8  O   UNL     1      -0.198   2.771   4.797  0.00  0.00    -0.278 OA
ATOM      9  H   UNL     1      -1.117   1.433   2.172  0.00  0.00    +0.149 HD
BRANCH   6  10
ATOM     10  C   UNL     1       0.939   1.803   2.553  0.00  0.00    +0.139 C 
BRANCH  10  17
ATOM     11  C   UNL     1       0.555   3.360   0.149  0.00  0.00    +0.044 C 
ATOM     12  C   UNL     1       1.012   1.927   0.054  0.00  0.00    -0.046 A 
ATOM     13  C   UNL     1       1.254   1.359  -1.183  0.00  0.00    +0.003 A 
ATOM     14  C   UNL     1       1.673   0.045  -1.271  0.00  0.00    +0.000 A 
ATOM     15  C   UNL     1       1.851  -0.701  -0.121  0.00  0.00    +0.000 A 
ATOM     16  C   UNL     1       1.611  -0.134   1.116  0.00  0.00    +0.005 A 
ATOM     17  C   UNL     1       1.196   1.182   1.204  0.00  0.00    -0.027 A 
ENDBRANCH  10  17
ENDBRANCH   6  10
ENDBRANCH   4   7
ENDBRANCH   1   4
BRANCH   1  18
ATOM     18  C   UNL     1      -4.129   2.804   5.902  0.00  0.00    -0.070 C 
BRANCH  18  19
ATOM     19  C   UNL     1      -4.368   3.314   7.324  0.00  0.00    -0.015 C 
ATOM     20  C   UNL     1      -5.872   3.340   7.612  0.00  0.00    +0.038 C 
ATOM     21  C   UNL     1      -6.550   4.326   6.657  0.00  0.00    +0.160 C 
ATOM     22  O   UNL     1      -5.962   5.619   6.814  0.00  0.00    -0.380 OA
ATOM     23  C   UNL     1      -4.566   5.665   6.511  0.00  0.00    +0.160 C 
ATOM     24  C   UNL     1      -3.809   4.733   7.460  0.00  0.00    +0.038 C 
BRANCH  19  25
ATOM     25  C   UNL     1      -3.680   2.404   8.309  0.00  0.00    -0.040 A 
ATOM     26  C   UNL     1      -3.068   1.245   7.868  0.00  0.00    +0.004 A 
ATOM     27  C   UNL     1      -2.437   0.409   8.770  0.00  0.00    +0.003 A 
ATOM     28  C   UNL     1      -2.417   0.731  10.114  0.00  0.00    +0.038 A 
ATOM     29  C   UNL     1      -3.029   1.891  10.556  0.00  0.00    +0.124 A 
ATOM     30  C   UNL     1      -3.656   2.731   9.651  0.00  0.00    +0.042 A 
ATOM     31  F   UNL     1      -3.010   2.206  11.870  0.00  0.00    -0.205 F 
ENDBRANCH  19  25
ENDBRANCH  18  19
ENDBRANCH   1  18
TORSDOF 7
