REMARK  Name = ZINC40558478
REMARK  6 active torsions:
REMARK  status: ('A' for Active; 'I' for Inactive)
REMARK    1  A    between atoms: C_1  and  C_2
REMARK    2  A    between atoms: C_2  and  C_3
REMARK    3  A    between atoms: C_3  and  CA_4
REMARK    4  A    between atoms: CA_4  and  C_6
REMARK    5  A    between atoms: CA_4  and  N_9
REMARK    6  A    between atoms: C_16  and  C_18
REMARK                            x       y       z     vdW  Elec       q    Type
REMARK                         _______ _______ _______ _____ _____    ______ ____
ROOT
ATOM      1  N   UNL     1      -0.605  -2.548   1.364  0.00  0.00    -0.286 N 
ATOM      2  C   UNL     1      -0.918  -3.772   0.893  0.00  0.00    +0.303 C 
ATOM      3  O   UNL     1      -0.064  -4.455   0.361  0.00  0.00    -0.253 OA
ATOM      4  N   UNL     1      -2.176  -4.239   1.014  0.00  0.00    -0.274 N 
ATOM      5  C   UNL     1      -3.305  -3.518   1.629  0.00  0.00    +0.110 C 
ATOM      6  C   UNL     1      -4.571  -4.143   0.991  0.00  0.00    +0.021 C 
ATOM      7  C   UNL     1      -4.157  -5.635   0.877  0.00  0.00    +0.033 C 
ATOM      8  C   UNL     1      -2.652  -5.550   0.547  0.00  0.00    +0.163 C 
ATOM      9  H   UNL     1      -1.286  -2.004   1.789  0.00  0.00    +0.151 HD
ENDROOT
BRANCH   8  10
ATOM     10  C   UNL     1      -1.911  -6.649   1.263  0.00  0.00    +0.231 C 
ATOM     11  O   UNL     1      -1.325  -6.411   2.298  0.00  0.00    -0.274 OA
ATOM     12  N   UNL     1      -1.898  -7.896   0.754  0.00  0.00    -0.328 N 
ATOM     13  H   UNL     1      -2.366  -8.087  -0.074  0.00  0.00    +0.145 HD
ATOM     14  H   UNL     1      -1.421  -8.604   1.215  0.00  0.00    +0.145 HD
ENDBRANCH   8  10
BRANCH   1  15
ATOM     15  CA  UNL     1       0.763  -2.041   1.233  0.00  0.00    +0.187 C 
BRANCH  15  16
ATOM     16  C   UNL     1       1.596  -2.538   2.386  0.00  0.00    +0.376 C 
ATOM     17  O   UNL     1       1.073  -2.754   3.467  0.00  0.00    -0.244 OA
ATOM     18  OXT UNL     1       2.792  -2.724   2.239  0.00  0.00    -0.244 OA
ENDBRANCH  15  16
BRANCH  15  19
ATOM     19  C   UNL     1       0.742  -0.511   1.242  0.00  0.00    +0.034 C 
BRANCH  19  21
ATOM     20  C   UNL     1      -0.019   1.526   0.010  0.00  0.00    +0.004 C 
ATOM     21  C   UNL     1       0.002  -0.004   0.002  0.00  0.00    -0.001 C 
ENDBRANCH  19  21
ENDBRANCH  15  19
ENDBRANCH   1  15
TORSDOF 5
