REMARK  Name = ZINC02382660
REMARK  3 active torsions:
REMARK  status: ('A' for Active; 'I' for Inactive)
REMARK    1  A    between atoms: C_4  and  C_7
REMARK    2  A    between atoms: C_19  and  C_22
REMARK    3  A    between atoms: N_28  and  N_29
REMARK                            x       y       z     vdW  Elec       q    Type
REMARK                         _______ _______ _______ _____ _____    ______ ____
ROOT
ATOM      1  C   UNL     1       5.977   2.465  -0.860  0.00  0.00    +0.082 C 
ATOM      2  C   UNL     1       4.927   1.566  -0.222  0.00  0.00    +0.055 C 
ATOM      3  C   UNL     1       3.546   2.211  -0.220  0.00  0.00    -0.022 A 
ATOM      4  C   UNL     1       2.360   1.343  -0.109  0.00  0.00    +0.052 A 
ATOM      5  C   UNL     1       2.316  -0.076  -0.018  0.00  0.00    +0.144 A 
ATOM      6  N   UNL     1       1.141  -0.676   0.080  0.00  0.00    -0.219 NA
ATOM      7  C   UNL     1       0.005  -0.001   0.097  0.00  0.00    +0.224 A 
ATOM      8  N   UNL     1      -0.016   1.315   0.015  0.00  0.00    -0.228 NA
ATOM      9  C   UNL     1       1.113   1.991  -0.087  0.00  0.00    +0.114 A 
ATOM     10  S   UNL     1       1.545   3.704  -0.222  0.00  0.00    -0.072 S 
ATOM     11  C   UNL     1       3.315   3.530  -0.299  0.00  0.00    +0.013 A 
ATOM     12  C   UNL     1       4.277   4.679  -0.436  0.00  0.00    +0.114 C 
ATOM     13  S   UNL     1       5.946   4.082  -0.025  0.00  0.00    -0.139 S 
ATOM     14  N   UNL     1       3.484  -0.817  -0.032  0.00  0.00    -0.267 N 
ATOM     15  H   UNL     1       4.304  -0.436   0.318  0.00  0.00    +0.167 HD
ENDROOT
BRANCH   1  19
ATOM     16  C   UNL     1       9.840   0.697  -0.414  0.00  0.00    +0.000 A 
ATOM     17  C   UNL     1       9.337   0.950  -1.677  0.00  0.00    +0.000 A 
ATOM     18  C   UNL     1       8.087   1.522  -1.821  0.00  0.00    +0.005 A 
ATOM     19  C   UNL     1       7.340   1.841  -0.703  0.00  0.00    -0.034 A 
ATOM     20  C   UNL     1       7.845   1.593   0.560  0.00  0.00    +0.005 A 
ATOM     21  C   UNL     1       9.093   1.017   0.704  0.00  0.00    +0.000 A 
ENDBRANCH   1  19
BRANCH  12  22
ATOM     22  C   UNL     1       3.885   5.785   0.510  0.00  0.00    -0.030 A 
ATOM     23  C   UNL     1       3.840   5.546   1.871  0.00  0.00    +0.005 A 
ATOM     24  C   UNL     1       3.486   6.561   2.740  0.00  0.00    +0.000 A 
ATOM     25  C   UNL     1       3.166   7.812   2.247  0.00  0.00    +0.000 A 
ATOM     26  C   UNL     1       3.206   8.050   0.885  0.00  0.00    +0.000 A 
ATOM     27  C   UNL     1       3.566   7.036   0.017  0.00  0.00    +0.005 A 
ENDBRANCH  12  22
BRANCH  14  28
ATOM     28  N   UNL     1       3.482  -2.085  -0.540  0.00  0.00    -0.255 NA
ATOM     29  H   UNL     1       4.401  -2.498  -0.483  0.00  0.00    +0.140 HD
ATOM     30  H   UNL     1       2.798  -2.660  -0.073  0.00  0.00    +0.140 HD
ENDBRANCH  14  28
TORSDOF 3
