REMARK  Name = ZINC24706432
REMARK  13 active torsions:
REMARK  status: ('A' for Active; 'I' for Inactive)
REMARK    1  A    between atoms: C_1  and  C_2
REMARK    2  A    between atoms: C_5  and  C_8
REMARK    3  A    between atoms: C_8  and  C_9
REMARK    4  A    between atoms: C_9  and  C_10
REMARK    5  A    between atoms: N_12  and  C_13
REMARK    6  A    between atoms: N_12  and  C_18
REMARK    7  A    between atoms: C_13  and  C_14
REMARK    8  A    between atoms: C_14  and  C_15
REMARK    9  A    between atoms: C_15  and  C_16
REMARK   10  A    between atoms: C_15  and  C_17
REMARK   11  A    between atoms: C_19  and  N_34
REMARK   12  A    between atoms: N_20  and  C_27
REMARK   13  A    between atoms: C_27  and  C_28
REMARK                            x       y       z     vdW  Elec       q    Type
REMARK                         _______ _______ _______ _____ _____    ______ ____
ROOT
ATOM      1  C   UNL     1       1.271  -6.273  -2.632  0.00  0.00    +0.140 A 
ATOM      2  C   UNL     1       2.296  -6.948  -2.001  0.00  0.00    +0.128 A 
ATOM      3  N   UNL     1       2.351  -8.320  -2.090  0.00  0.00    -0.276 N 
ATOM      4  C   UNL     1       1.422  -8.994  -2.792  0.00  0.00    +0.331 A 
ATOM      5  O   UNL     1       1.491 -10.207  -2.862  0.00  0.00    -0.246 OA
ATOM      6  N   UNL     1       0.419  -8.353  -3.417  0.00  0.00    -0.273 N 
ATOM      7  H   UNL     1      -0.330  -8.924  -3.985  0.00  0.00    +0.173 HD
ATOM      8  C   UNL     1       0.317  -7.011  -3.358  0.00  0.00    +0.277 A 
ATOM      9  O   UNL     1      -0.597  -6.439  -3.928  0.00  0.00    -0.266 OA
ENDROOT
BRANCH   1  12
ATOM     10  C   UNL     1       0.993  -4.266  -1.364  0.00  0.00    +0.220 C 
ATOM     11  O   UNL     1       0.811  -4.936  -0.369  0.00  0.00    -0.275 OA
ATOM     12  N   UNL     1       1.185  -4.867  -2.556  0.00  0.00    -0.264 N 
BRANCH  10  13
ATOM     13  C   UNL     1       1.004  -2.762  -1.267  0.00  0.00    +0.101 C 
BRANCH  13  14
ATOM     14  C   UNL     1       0.764  -2.343   0.185  0.00  0.00    +0.044 C 
BRANCH  14  19
ATOM     15  C   UNL     1       0.807   3.424   0.558  0.00  0.00    +0.044 C 
ATOM     16  C   UNL     1       0.796   1.920   0.461  0.00  0.00    -0.050 A 
ATOM     17  C   UNL     1      -0.389   1.252   0.214  0.00  0.00    +0.003 A 
ATOM     18  C   UNL     1      -0.399  -0.127   0.125  0.00  0.00    +0.004 A 
ATOM     19  C   UNL     1       0.776  -0.839   0.282  0.00  0.00    -0.047 A 
ATOM     20  C   UNL     1       1.961  -0.171   0.527  0.00  0.00    +0.004 A 
ATOM     21  C   UNL     1       1.971   1.209   0.616  0.00  0.00    +0.003 A 
ENDBRANCH  14  19
ENDBRANCH  13  14
ENDBRANCH  10  13
BRANCH  12  22
ATOM     22  C   UNL     1       1.304  -4.059  -3.773  0.00  0.00    +0.114 C 
BRANCH  22  23
ATOM     23  C   UNL     1       2.778  -3.738  -4.029  0.00  0.00    +0.022 C 
BRANCH  23  24
ATOM     24  C   UNL     1       2.902  -2.894  -5.300  0.00  0.00    -0.016 C 
ATOM     25  C   UNL     1       2.225  -1.540  -5.081  0.00  0.00    +0.007 C 
ATOM     26  C   UNL     1       4.381  -2.678  -5.625  0.00  0.00    +0.007 C 
ENDBRANCH  23  24
ENDBRANCH  22  23
ENDBRANCH  12  22
ENDBRANCH   1  12
BRANCH   2  27
ATOM     27  N   UNL     1       3.248  -6.259  -1.289  0.00  0.00    -0.343 N 
ATOM     28  H   UNL     1       4.062  -6.804  -0.789  0.00  0.00    +0.144 HD
ATOM     29  H   UNL     1       3.196  -5.162  -1.220  0.00  0.00    +0.144 HD
ENDBRANCH   2  27
BRANCH   3  30
ATOM     30  C   UNL     1       3.430  -9.050  -1.421  0.00  0.00    +0.163 C 
BRANCH  30  31
ATOM     31  C   UNL     1       4.601  -9.187  -2.360  0.00  0.00    -0.028 A 
ATOM     32  C   UNL     1       4.694 -10.286  -3.193  0.00  0.00    +0.005 A 
ATOM     33  C   UNL     1       5.765 -10.409  -4.058  0.00  0.00    +0.000 A 
ATOM     34  C   UNL     1       6.749  -9.438  -4.082  0.00  0.00    +0.000 A 
ATOM     35  C   UNL     1       6.659  -8.342  -3.245  0.00  0.00    +0.000 A 
ATOM     36  C   UNL     1       5.585  -8.216  -2.384  0.00  0.00    +0.005 A 
ENDBRANCH  30  31
ENDBRANCH   3  30
TORSDOF 10
