REMARK  Name = ZINC02836575
REMARK  5 active torsions:
REMARK  status: ('A' for Active; 'I' for Inactive)
REMARK    1  A    between atoms: C_2  and  C_3
REMARK    2  A    between atoms: C_3  and  N_4
REMARK    3  A    between atoms: C_5  and  C_7
REMARK    4  A    between atoms: C_12  and  N_13
REMARK    5  A    between atoms: C_14  and  C_16
REMARK                            x       y       z     vdW  Elec       q    Type
REMARK                         _______ _______ _______ _____ _____    ______ ____
ROOT
ATOM      1  C   UNL     1      -3.671  -2.392   0.525  0.00  0.00    +0.061 A 
ATOM      2  C   UNL     1      -4.877  -3.088   0.640  0.00  0.00    +0.035 A 
ATOM      3  C   UNL     1      -6.066  -2.459   0.340  0.00  0.00    +0.043 A 
ATOM      4  C   UNL     1      -6.074  -1.135  -0.071  0.00  0.00    +0.042 A 
ATOM      5  C   UNL     1      -4.891  -0.433  -0.185  0.00  0.00    +0.064 A 
ATOM      6  C   UNL     1      -3.682  -1.051   0.113  0.00  0.00    +0.064 A 
ATOM      7 CL   UNL     1      -4.913   1.225  -0.702  0.00  0.00    -0.082 Cl
ATOM      8 CL   UNL     1      -7.562  -3.330   0.478  0.00  0.00    -0.083 Cl
ENDROOT
BRANCH   1  10
ATOM      9  N   UNL     1      -2.377  -4.377   1.128  0.00  0.00    -0.308 N 
ATOM     10  C   UNL     1      -2.394  -3.061   0.838  0.00  0.00    +0.246 C 
ATOM     11  O   UNL     1      -1.358  -2.425   0.835  0.00  0.00    -0.270 OA
ATOM     12  H   UNL     1      -3.204  -4.884   1.131  0.00  0.00    +0.149 HD
BRANCH   9  13
ATOM     13  C   UNL     1      -1.109  -5.041   1.440  0.00  0.00    +0.131 C 
BRANCH  13  15
ATOM     14  C   UNL     1      -0.719  -7.420   1.052  0.00  0.00    +0.005 C 
ATOM     15  C   UNL     1      -1.363  -6.499   1.726  0.00  0.00    -0.016 C 
ENDBRANCH  13  15
ENDBRANCH   9  13
ENDBRANCH   1  10
BRANCH   6  16
ATOM     16  N   UNL     1      -2.487  -0.344  -0.002  0.00  0.00    -0.280 N 
ATOM     17  C   UNL     1      -2.348   0.848   0.611  0.00  0.00    +0.250 C 
ATOM     18  O   UNL     1      -3.296   1.354   1.179  0.00  0.00    -0.270 OA
ATOM     19  H   UNL     1      -1.756  -0.710  -0.523  0.00  0.00    +0.155 HD
BRANCH  17  20
ATOM     20  C   UNL     1      -1.044   1.540   0.592  0.00  0.00    +0.055 A 
ATOM     21  C   UNL     1       0.048   0.961  -0.059  0.00  0.00    +0.016 A 
ATOM     22  C   UNL     1       1.262   1.614  -0.078  0.00  0.00    +0.021 A 
ATOM     23  C   UNL     1       1.403   2.840   0.553  0.00  0.00    +0.042 A 
ATOM     24  C   UNL     1       0.327   3.417   1.206  0.00  0.00    +0.040 A 
ATOM     25  C   UNL     1      -0.894   2.774   1.231  0.00  0.00    +0.054 A 
ATOM     26 CL   UNL     1      -2.243   3.499   2.049  0.00  0.00    -0.083 Cl
ATOM     27 CL   UNL     1       2.935   3.655   0.525  0.00  0.00    -0.083 Cl
ENDBRANCH  17  20
ENDBRANCH   6  16
TORSDOF 5
