REMARK  Name = ZINC22322310
REMARK  7 active torsions:
REMARK  status: ('A' for Active; 'I' for Inactive)
REMARK    1  A    between atoms: C_1  and  C_2
REMARK    2  A    between atoms: C_2  and  C_3
REMARK    3  A    between atoms: C_2  and  C_4
REMARK    4  A    between atoms: C_4  and  C_6
REMARK    5  A    between atoms: C_4  and  N_19
REMARK    6  A    between atoms: N_8  and  C_9
REMARK    7  A    between atoms: C_20  and  C_22
REMARK                            x       y       z     vdW  Elec       q    Type
REMARK                         _______ _______ _______ _____ _____    ______ ____
ROOT
ATOM      1  C   UNL     1      -2.738   7.185  -1.479  0.00  0.00    +0.161 C 
ENDROOT
BRANCH   1   2
ATOM      2  C   UNL     1      -1.943   6.355  -0.505  0.00  0.00    +0.234 C 
ATOM      3  O   UNL     1      -2.463   5.950   0.513  0.00  0.00    -0.274 OA
ATOM      4  N   UNL     1      -0.653   6.064  -0.764  0.00  0.00    -0.307 N 
ATOM      5  H   UNL     1      -0.202   6.366  -1.721  0.00  0.00    +0.149 HD
BRANCH   4   6
ATOM      6  C   UNL     1       0.150   5.344   0.228  0.00  0.00    +0.104 C 
ATOM      7  C   UNL     1       1.653   5.603  -0.009  0.00  0.00    +0.032 C 
ATOM      8  C   UNL     1       2.287   4.252   0.384  0.00  0.00    +0.037 C 
ATOM      9  C   UNL     1       1.202   3.222   0.152  0.00  0.00    -0.042 A 
ATOM     10  C   UNL     1      -0.026   3.850   0.062  0.00  0.00    -0.024 A 
ATOM     11  C   UNL     1      -1.170   3.099  -0.150  0.00  0.00    +0.006 A 
ATOM     12  C   UNL     1      -1.087   1.726  -0.278  0.00  0.00    +0.000 A 
ATOM     13  C   UNL     1       0.141   1.098  -0.182  0.00  0.00    +0.000 A 
ATOM     14  C   UNL     1       1.283   1.845   0.029  0.00  0.00    +0.004 A 
ENDBRANCH   4   6
ENDBRANCH   1   2
BRANCH   1  15
ATOM     15  N   UNL     1      -3.925   7.721  -0.808  0.00  0.00    -0.304 N 
ATOM     16  C   UNL     1      -4.505   8.849  -1.265  0.00  0.00    +0.217 C 
ATOM     17  O   UNL     1      -4.044   9.420  -2.231  0.00  0.00    -0.275 OA
ATOM     18  H   UNL     1      -4.343   7.204   0.068  0.00  0.00    +0.149 HD
BRANCH  16  19
ATOM     19  C   UNL     1      -5.725   9.402  -0.575  0.00  0.00    +0.075 C 
ATOM     20  C   UNL     1      -6.849   8.364  -0.619  0.00  0.00    +0.013 C 
ATOM     21  C   UNL     1      -8.089   8.925   0.081  0.00  0.00    +0.001 C 
ATOM     22  C   UNL     1      -8.543  10.201  -0.630  0.00  0.00    +0.000 C 
ATOM     23  C   UNL     1      -7.420  11.238  -0.586  0.00  0.00    +0.001 C 
ATOM     24  C   UNL     1      -6.180  10.677  -1.287  0.00  0.00    +0.013 C 
ENDBRANCH  16  19
ENDBRANCH   1  15
BRANCH   1  26
ATOM     25  C   UNL     1      -4.147   5.240  -2.169  0.00  0.00    +0.009 C 
ATOM     26  C   UNL     1      -3.171   6.311  -2.659  0.00  0.00    +0.012 C 
ATOM     27  C   UNL     1      -3.856   7.181  -3.714  0.00  0.00    +0.009 C 
ENDBRANCH   1  26
TORSDOF 5
