REMARK  Name = ZINC61706115
REMARK  7 active torsions:
REMARK  status: ('A' for Active; 'I' for Inactive)
REMARK    1  A    between atoms: C_1  and  C_2
REMARK    2  A    between atoms: C_2  and  C_3
REMARK    3  A    between atoms: C_3  and  C_5
REMARK    4  A    between atoms: C_3  and  C_6
REMARK    5  A    between atoms: C_6  and  C_8
REMARK    6  A    between atoms: C_6  and  N_17
REMARK    7  A    between atoms: C_13  and  O_16
REMARK                            x       y       z     vdW  Elec       q    Type
REMARK                         _______ _______ _______ _____ _____    ______ ____
ROOT
ATOM      1  C   UNL     1       0.696  -2.142  -1.258  0.00  0.00    +0.163 C 
ENDROOT
BRANCH   1   2
ATOM      2  C   UNL     1       1.557  -2.581  -2.414  0.00  0.00    +0.236 C 
ATOM      3  O   UNL     1       2.689  -2.968  -2.215  0.00  0.00    -0.274 OA
ATOM      4  N   UNL     1       1.069  -2.543  -3.670  0.00  0.00    -0.297 N 
ATOM      5  C   UNL     1      -0.277  -2.092  -4.053  0.00  0.00    +0.110 C 
ATOM      6  C   UNL     1      -0.377  -2.198  -5.589  0.00  0.00    +0.052 C 
ATOM      7  C   UNL     1       1.109  -2.167  -6.036  0.00  0.00    +0.133 C 
ATOM      8  C   UNL     1       1.798  -2.941  -4.888  0.00  0.00    +0.139 C 
BRANCH   7   9
ATOM      9  O   UNL     1       1.282  -2.838  -7.286  0.00  0.00    -0.390 OA
ATOM     10  H   UNL     1       0.789  -2.440  -8.017  0.00  0.00    +0.210 HD
ENDBRANCH   7   9
ENDBRANCH   1   2
BRANCH   1  11
ATOM     11  N   UNL     1       1.228  -2.702  -0.013  0.00  0.00    -0.288 N 
ATOM     12  C   UNL     1       0.934  -3.970   0.335  0.00  0.00    +0.298 C 
ATOM     13  O   UNL     1       0.156  -4.620  -0.336  0.00  0.00    -0.253 OA
ATOM     14  N   UNL     1       1.502  -4.518   1.428  0.00  0.00    -0.313 N 
ATOM     15  H   UNL     1       1.793  -2.160   0.561  0.00  0.00    +0.151 HD
ATOM     16  H   UNL     1       2.123  -4.000   1.963  0.00  0.00    +0.146 HD
ATOM     17  H   UNL     1       1.291  -5.431   1.679  0.00  0.00    +0.146 HD
ENDBRANCH   1  11
BRANCH   1  18
ATOM     18  C   UNL     1       0.698  -0.614  -1.171  0.00  0.00    +0.015 C 
ATOM     19  C   UNL     1       2.112  -0.123  -0.854  0.00  0.00    +0.010 C 
BRANCH  18  21
ATOM     20  C   UNL     1      -0.352   1.362  -0.061  0.00  0.00    +0.004 C 
ATOM     21  C   UNL     1      -0.258  -0.165  -0.065  0.00  0.00    +0.002 C 
ENDBRANCH  18  21
ENDBRANCH   1  18
TORSDOF 5
