REMARK  Name = ZINC16134338
REMARK  7 active torsions:
REMARK  status: ('A' for Active; 'I' for Inactive)
REMARK    1  A    between atoms: C_1  and  O_2
REMARK    2  A    between atoms: O_2  and  C_3
REMARK    3  A    between atoms: C_5  and  C_12
REMARK    4  A    between atoms: C_8  and  O_9
REMARK    5  A    between atoms: N_13  and  N_14
REMARK    6  A    between atoms: C_15  and  C_17
REMARK    7  A    between atoms: C_19  and  C_25
REMARK                            x       y       z     vdW  Elec       q    Type
REMARK                         _______ _______ _______ _____ _____    ______ ____
ROOT
ATOM      1  N   UNL     1      -0.334   0.101  -1.455  0.00  0.00    -0.206 N 
ATOM      2  C   UNL     1       0.735   0.913  -1.340  0.00  0.00    +0.245 C 
ATOM      3  O   UNL     1       0.618   2.001  -0.816  0.00  0.00    -0.273 OA
ATOM      4  H   UNL     1      -0.258  -0.737  -1.937  0.00  0.00    +0.177 HD
ENDROOT
BRANCH   2   5
ATOM      5  C   UNL     1       2.077   0.469  -1.863  0.00  0.00    +0.171 C 
ATOM      6  C   UNL     1       2.250   0.894  -3.339  0.00  0.00    +0.057 C 
ATOM      7  C   UNL     1       2.985   2.245  -3.195  0.00  0.00    +0.113 C 
ATOM      8  N   UNL     1       3.685   2.174  -1.907  0.00  0.00    -0.314 N 
ATOM      9  C   UNL     1       3.192   1.189  -1.137  0.00  0.00    +0.226 C 
ATOM     10  O   UNL     1       3.584   0.917  -0.021  0.00  0.00    -0.275 OA
ATOM     11  H   UNL     1       4.411   2.763  -1.645  0.00  0.00    +0.149 HD
BRANCH   6  12
ATOM     12  C   UNL     1       0.912   1.076  -4.008  0.00  0.00    -0.042 A 
ATOM     13  C   UNL     1       0.140   2.185  -3.719  0.00  0.00    +0.004 A 
ATOM     14  C   UNL     1      -1.085   2.355  -4.336  0.00  0.00    +0.000 A 
ATOM     15  C   UNL     1      -1.542   1.410  -5.236  0.00  0.00    +0.000 A 
ATOM     16  C   UNL     1      -0.772   0.298  -5.521  0.00  0.00    +0.000 A 
ATOM     17  C   UNL     1       0.455   0.131  -4.908  0.00  0.00    +0.004 A 
ENDBRANCH   6  12
ENDBRANCH   2   5
BRANCH   1  19
ATOM     18  C   UNL     1      -2.557  -0.360  -0.893  0.00  0.00    +0.139 C 
ATOM     19  N   UNL     1      -1.558   0.470  -0.882  0.00  0.00    -0.188 NA
BRANCH  18  22
ATOM     20  C   UNL     1      -0.901  -3.656  -1.594  0.00  0.00    +0.163 A 
ATOM     21  C   UNL     1      -1.090  -2.347  -1.194  0.00  0.00    +0.060 A 
ATOM     22  C   UNL     1      -2.350  -1.756  -1.318  0.00  0.00    +0.013 A 
ATOM     23  C   UNL     1      -3.415  -2.494  -1.842  0.00  0.00    +0.044 A 
ATOM     24  C   UNL     1      -3.217  -3.800  -2.244  0.00  0.00    +0.077 A 
ATOM     25  C   UNL     1      -1.964  -4.385  -2.120  0.00  0.00    +0.174 A 
ATOM     26 BR   UNL     1      -4.657  -4.795  -2.959  0.00  0.00    -0.045 Br
ATOM     27 BR   UNL     1      -5.125  -1.703  -2.005  0.00  0.00    -0.048 Br
BRANCH  20  29
ATOM     28  C   UNL     1       1.371  -3.428  -0.925  0.00  0.00    +0.277 C 
ATOM     29  O   UNL     1       0.325  -4.234  -1.473  0.00  0.00    -0.491 OA
ENDBRANCH  20  29
BRANCH  25  30
ATOM     30  O   UNL     1      -1.776  -5.672  -2.514  0.00  0.00    -0.503 OA
ATOM     31  H   UNL     1      -1.932  -6.324  -1.816  0.00  0.00    +0.292 HD
ENDBRANCH  25  30
ENDBRANCH  18  22
ENDBRANCH   1  19
TORSDOF 6
