REMARK  Name = ZINC40291567
REMARK  5 active torsions:
REMARK  status: ('A' for Active; 'I' for Inactive)
REMARK    1  A    between atoms: C_1  and  C_2
REMARK    2  A    between atoms: C_2  and  C_3
REMARK    3  A    between atoms: C_11  and  C_18
REMARK    4  A    between atoms: C_12  and  C_17
REMARK    5  A    between atoms: C_13  and  C_16
REMARK                            x       y       z     vdW  Elec       q    Type
REMARK                         _______ _______ _______ _____ _____    ______ ____
ROOT
ATOM      1  C   UNL     1      -2.677   0.185   0.029  0.00  0.00    +0.100 C 
ATOM      2  C   UNL     1      -2.147  -0.514   1.286  0.00  0.00    +0.182 C 
ATOM      3  O   UNL     1      -2.099  -1.924   1.056  0.00  0.00    -0.376 OA
ATOM      4  C   UNL     1      -1.211  -2.316   0.006  0.00  0.00    +0.179 C 
ATOM      5  C   UNL     1      -1.694  -1.710  -1.316  0.00  0.00    +0.135 C 
ATOM      6  N   UNL     1      -1.879  -0.262  -1.124  0.00  0.00    -0.306 N 
ATOM      7  C   UNL     1      -1.319   0.651  -2.001  0.00  0.00    +0.155 A 
ATOM      8  C   UNL     1      -2.002   1.020  -3.173  0.00  0.00    +0.060 A 
ATOM      9  C   UNL     1      -1.386   1.948  -4.020  0.00  0.00    -0.014 A 
ATOM     10  C   UNL     1      -0.145   2.440  -3.648  0.00  0.00    +0.064 A 
ATOM     11  N   UNL     1       0.420   2.035  -2.528  0.00  0.00    -0.152 NA
ATOM     12  N   UNL     1      -0.136   1.189  -1.739  0.00  0.00    -0.133 NA
ATOM     13  C   UNL     1       0.560   3.441  -4.526  0.00  0.00    +0.068 C 
ATOM     14  C   UNL     1      -2.050   2.397  -5.296  0.00  0.00    +0.046 C 
ENDROOT
BRANCH   8  15
ATOM     15  C   UNL     1      -3.327   0.447  -3.500  0.00  0.00    +0.119 C 
ATOM     16  N   UNL     1      -4.410   1.013  -3.049  0.00  0.00    -0.285 NA
ATOM     17  N   UNL     1      -3.414  -0.685  -4.281  0.00  0.00    -0.343 N 
ATOM     18  H   UNL     1      -2.607  -1.106  -4.616  0.00  0.00    +0.144 HD
ATOM     19  H   UNL     1      -4.283  -1.060  -4.495  0.00  0.00    +0.144 HD
ATOM     20  H   UNL     1      -5.279   0.638  -3.264  0.00  0.00    +0.188 HD
ENDBRANCH   8  15
BRANCH   1  22
ATOM     21  C   UNL     1      -3.479   2.179   1.303  0.00  0.00    +0.006 C 
ATOM     22  C   UNL     1      -2.547   1.701   0.188  0.00  0.00    +0.021 C 
ENDBRANCH   1  22
TORSDOF 2
