REMARK  Name = ZINC67130816
REMARK  5 active torsions:
REMARK  status: ('A' for Active; 'I' for Inactive)
REMARK    1  A    between atoms: C_3  and  C_21
REMARK    2  A    between atoms: C_5  and  N_7
REMARK    3  A    between atoms: N_23  and  C_24
REMARK    4  A    between atoms: C_24  and  C_25
REMARK    5  A    between atoms: C_25  and  C_26
REMARK                            x       y       z     vdW  Elec       q    Type
REMARK                         _______ _______ _______ _____ _____    ______ ____
ROOT
ATOM      1  C   UNL     1       0.014   1.380  -0.274  0.00  0.00    +0.003 A 
ATOM      2  C   UNL     1       1.167   2.089  -0.002  0.00  0.00    +0.013 A 
ATOM      3  C   UNL     1       2.357   1.410   0.267  0.00  0.00    +0.039 A 
ATOM      4  C   UNL     1       2.375   0.015   0.261  0.00  0.00    +0.038 A 
ATOM      5  C   UNL     1       1.212  -0.687  -0.013  0.00  0.00    +0.057 A 
ATOM      6  C   UNL     1       0.033  -0.002  -0.280  0.00  0.00    +0.025 A 
ENDROOT
BRANCH   5   7
ATOM      7  N   UNL     1       1.226  -2.087  -0.021  0.00  0.00    -0.188 N 
ATOM      8  C   UNL     1       2.188  -2.743  -0.702  0.00  0.00    +0.240 C 
ATOM      9  O   UNL     1       3.015  -2.133  -1.346  0.00  0.00    -0.273 OA
ATOM     10  C   UNL     1       2.217  -4.260  -0.646  0.00  0.00    +0.093 C 
ATOM     11  C   UNL     1       1.155  -4.772  -1.626  0.00  0.00    +0.040 C 
ATOM     12  C   UNL     1       0.812  -6.203  -1.352  0.00  0.00    -0.030 C 
ATOM     13  C   UNL     1       1.076  -6.817  -0.244  0.00  0.00    -0.030 C 
ATOM     14  C   UNL     1       1.783  -6.178   0.914  0.00  0.00    +0.040 C 
ATOM     15  C   UNL     1       1.830  -4.665   0.782  0.00  0.00    +0.092 C 
ATOM     16  C   UNL     1       0.503  -4.046   1.123  0.00  0.00    +0.234 C 
ATOM     17  O   UNL     1      -0.313  -4.654   1.784  0.00  0.00    -0.274 OA
ATOM     18  N   UNL     1       0.242  -2.796   0.682  0.00  0.00    -0.227 N 
ATOM     19  H   UNL     1      -0.624  -2.393   0.850  0.00  0.00    +0.173 HD
ENDBRANCH   5   7
BRANCH   3  20
ATOM     20  C   UNL     1       3.593   2.167   0.558  0.00  0.00    +0.244 C 
ATOM     21  O   UNL     1       4.628   1.574   0.792  0.00  0.00    -0.270 OA
ATOM     22  N   UNL     1       3.573   3.515   0.563  0.00  0.00    -0.311 N 
ATOM     23  H   UNL     1       2.747   3.988   0.376  0.00  0.00    +0.149 HD
BRANCH  22  24
ATOM     24  C   UNL     1       4.798   4.265   0.851  0.00  0.00    +0.112 C 
BRANCH  24  25
ATOM     25  C   UNL     1       4.503   5.765   0.794  0.00  0.00    +0.093 C 
BRANCH  25  26
ATOM     26  C   UNL     1       5.763   6.537   1.090  0.00  0.00    +0.106 A 
ATOM     27  C   UNL     1       6.663   6.952   0.181  0.00  0.00    +0.044 A 
ATOM     28  C   UNL     1       7.679   7.631   0.891  0.00  0.00    +0.041 A 
ATOM     29  C   UNL     1       7.339   7.590   2.192  0.00  0.00    +0.195 A 
ATOM     30  O   UNL     1       6.175   6.931   2.306  0.00  0.00    -0.468 OA
ENDBRANCH  25  26
ENDBRANCH  24  25
ENDBRANCH  22  24
ENDBRANCH   3  20
TORSDOF 5
