REMARK  Name = ZINC20356246
REMARK  2 active torsions:
REMARK  status: ('A' for Active; 'I' for Inactive)
REMARK    1  A    between atoms: C_2  and  C_10
REMARK    2  A    between atoms: C_5  and  O_8
REMARK                            x       y       z     vdW  Elec       q    Type
REMARK                         _______ _______ _______ _____ _____    ______ ____
ROOT
ATOM      1  C   UNL     1       1.176   3.536   0.035  0.00  0.00    +0.024 C 
ATOM      2  C   UNL     1       2.355   4.242   0.118  0.00  0.00    +0.079 C 
ATOM      3  C   UNL     1       3.681   3.563   0.088  0.00  0.00    +0.132 C 
ATOM      4  N   UNL     1       3.914   2.474  -0.595  0.00  0.00    -0.385 N 
ATOM      5  N   UNL     1       4.660   4.212   0.869  0.00  0.00    -0.152 N 
ATOM      6  C   UNL     1       4.480   5.551   1.130  0.00  0.00    +0.182 C 
ATOM      7  N   UNL     1       3.446   6.294   0.820  0.00  0.00    -0.152 NA
ATOM      8  C   UNL     1       2.373   5.722   0.235  0.00  0.00    +0.273 C 
ATOM      9  O   UNL     1       1.445   6.397  -0.180  0.00  0.00    -0.268 OA
ATOM     10  S   UNL     1       5.972   5.969   1.992  0.00  0.00    -0.018 S 
ATOM     11  C   UNL     1       6.684   4.330   2.038  0.00  0.00    +0.182 C 
ATOM     12  N   UNL     1       5.794   3.624   1.388  0.00  0.00    -0.149 NA
ATOM     13  N   UNL     1       7.874   3.914   2.613  0.00  0.00    -0.308 N 
ATOM     14  C   UNL     1       8.397   2.540   2.601  0.00  0.00    +0.107 C 
ATOM     15  C   UNL     1       9.728   2.550   3.381  0.00  0.00    +0.020 C 
ATOM     16  C   UNL     1       9.600   3.813   4.272  0.00  0.00    +0.020 C 
ATOM     17  C   UNL     1       8.828   4.777   3.332  0.00  0.00    +0.107 C 
ATOM     18  H   UNL     1       3.231   2.113  -1.181  0.00  0.00    +0.157 HD
ATOM     19  H   UNL     1       4.771   2.025  -0.515  0.00  0.00    +0.157 HD
ENDROOT
BRANCH   1  21
ATOM     20  C   UNL     1       2.159   1.412   0.870  0.00  0.00    +0.031 A 
ATOM     21  C   UNL     1       1.193   2.072   0.097  0.00  0.00    -0.021 A 
ATOM     22  C   UNL     1       0.244   1.327  -0.616  0.00  0.00    +0.031 A 
ATOM     23  C   UNL     1       0.264  -0.049  -0.554  0.00  0.00    +0.084 A 
ATOM     24  C   UNL     1       1.225  -0.699   0.215  0.00  0.00    +0.153 A 
ATOM     25  C   UNL     1       2.171   0.036   0.924  0.00  0.00    +0.084 A 
ATOM     26 CL   UNL     1       3.366  -0.783   1.880  0.00  0.00    -0.080 Cl
ATOM     27 CL   UNL     1      -0.910  -0.974  -1.436  0.00  0.00    -0.080 Cl
BRANCH  24  28
ATOM     28  O   UNL     1       1.240  -2.054   0.274  0.00  0.00    -0.504 OA
ATOM     29  H   UNL     1       1.787  -2.471  -0.407  0.00  0.00    +0.292 HD
ENDBRANCH  24  28
ENDBRANCH   1  21
TORSDOF 2
