REMARK  Name = ZINC40917515
REMARK  9 active torsions:
REMARK  status: ('A' for Active; 'I' for Inactive)
REMARK    1  A    between atoms: C_1  and  C_2
REMARK    2  A    between atoms: C_7  and  C_8
REMARK    3  A    between atoms: C_8  and  O_9
REMARK    4  A    between atoms: O_9  and  C_10
REMARK    5  A    between atoms: C_13  and  C_18
REMARK    6  A    between atoms: C_15  and  O_16
REMARK    7  A    between atoms: O_16  and  C_17
REMARK    8  A    between atoms: C_20  and  C_29
REMARK    9  A    between atoms: C_21  and  C_28
REMARK                            x       y       z     vdW  Elec       q    Type
REMARK                         _______ _______ _______ _____ _____    ______ ____
ROOT
ATOM      1  C   UNL     1      -0.240  -0.582   5.020  0.00  0.00    +0.162 A 
ATOM      2  C   UNL     1      -0.332   0.794   5.151  0.00  0.00    +0.050 A 
ATOM      3  C   UNL     1      -0.203   1.381   6.396  0.00  0.00    +0.010 A 
ATOM      4  C   UNL     1       0.018   0.597   7.513  0.00  0.00    -0.015 A 
ATOM      5  C   UNL     1       0.111  -0.777   7.390  0.00  0.00    +0.055 A 
ATOM      6  C   UNL     1      -0.023  -1.372   6.145  0.00  0.00    +0.162 A 
ENDROOT
BRANCH   4   7
ATOM      7  C   UNL     1       0.158   1.241   8.868  0.00  0.00    +0.179 C 
ATOM      8  C   UNL     1      -1.101   1.998   9.197  0.00  0.00    +0.060 C 
ATOM      9  C   UNL     1      -1.171   3.337   9.203  0.00  0.00    +0.018 C 
ATOM     10  N   UNL     1      -0.085   4.130   8.918  0.00  0.00    -0.286 N 
ATOM     11  C   UNL     1       1.158   3.515   8.873  0.00  0.00    +0.240 A 
ATOM     12  N   UNL     1       1.288   2.163   8.854  0.00  0.00    -0.201 N 
ATOM     13  N   UNL     1       2.659   1.919   8.818  0.00  0.00    -0.042 NA
ATOM     14  N   UNL     1       3.239   3.076   8.812  0.00  0.00    -0.021 NA
ATOM     15  N   UNL     1       2.359   4.019   8.842  0.00  0.00    -0.092 NA
ATOM     16  C   UNL     1      -2.485   3.996   9.534  0.00  0.00    +0.061 C 
ATOM     17  H   UNL     1      -0.184   5.081   8.754  0.00  0.00    +0.155 HD
BRANCH   8  18
ATOM     18  C   UNL     1      -2.267   1.262   9.515  0.00  0.00    +0.241 C 
ATOM     19  O   UNL     1      -2.417   0.814  10.637  0.00  0.00    -0.271 OA
ATOM     20  N   UNL     1      -3.212   1.056   8.576  0.00  0.00    -0.325 N 
ATOM     21  H   UNL     1      -3.092   1.414   7.682  0.00  0.00    +0.145 HD
ATOM     22  H   UNL     1      -4.011   0.552   8.794  0.00  0.00    +0.145 HD
ENDBRANCH   8  18
ENDBRANCH   4   7
BRANCH   6  23
ATOM     23  O   UNL     1       0.063  -2.723   6.023  0.00  0.00    -0.491 OA
ATOM     24  C   UNL     1       0.286  -3.470   7.221  0.00  0.00    +0.277 C 
ENDBRANCH   6  23
BRANCH   1  25
ATOM     25  O   UNL     1      -0.366  -1.161   3.796  0.00  0.00    -0.484 OA
BRANCH  25  26
ATOM     26  C   UNL     1      -0.587  -0.288   2.686  0.00  0.00    +0.265 C 
BRANCH  26  33
ATOM     27  C   UNL     1      -1.040   1.030   0.155  0.00  0.00    +0.044 C 
ATOM     28  C   UNL     1      -0.918  -0.471   0.212  0.00  0.00    -0.044 A 
ATOM     29  C   UNL     1      -1.018  -1.217  -0.948  0.00  0.00    +0.004 A 
ATOM     30  C   UNL     1      -0.906  -2.594  -0.896  0.00  0.00    +0.000 A 
ATOM     31  C   UNL     1      -0.695  -3.225   0.316  0.00  0.00    +0.000 A 
ATOM     32  C   UNL     1      -0.595  -2.479   1.475  0.00  0.00    +0.007 A 
ATOM     33  C   UNL     1      -0.702  -1.102   1.423  0.00  0.00    -0.007 A 
ENDBRANCH  26  33
ENDBRANCH  25  26
ENDBRANCH   1  25
TORSDOF 6
