REMARK  Name = ZINC13286323
REMARK  5 active torsions:
REMARK  status: ('A' for Active; 'I' for Inactive)
REMARK    1  A    between atoms: C_1  and  O_2
REMARK    2  A    between atoms: O_2  and  C_3
REMARK    3  A    between atoms: C_6  and  N_9
REMARK    4  A    between atoms: C_15  and  C_16
REMARK    5  A    between atoms: N_20  and  C_21
REMARK                            x       y       z     vdW  Elec       q    Type
REMARK                         _______ _______ _______ _____ _____    ______ ____
ROOT
ATOM      1  N   UNL     1       1.892  -2.915  -3.698  0.00  0.00    -0.226 NA
ATOM      2  C   UNL     1       2.800  -3.860  -3.599  0.00  0.00    +0.166 C 
ATOM      3  N   UNL     1       3.143  -4.820  -4.526  0.00  0.00    -0.260 N 
ATOM      4  C   UNL     1       4.089  -5.705  -4.260  0.00  0.00    +0.256 C 
ATOM      5  O   UNL     1       4.405  -6.560  -5.068  0.00  0.00    -0.269 OA
ATOM      6  C   UNL     1       4.744  -5.610  -2.946  0.00  0.00    +0.079 C 
ATOM      7  C   UNL     1       5.737  -6.381  -2.418  0.00  0.00    +0.046 C 
ATOM      8  S   UNL     1       3.896  -4.209  -2.233  0.00  0.00    -0.049 S 
ATOM      9  H   UNL     1       2.685  -4.848  -5.381  0.00  0.00    +0.157 HD
ENDROOT
BRANCH   1  13
ATOM     10  C   UNL     1       1.303  -0.272  -0.565  0.00  0.00    +0.120 A 
ATOM     11  C   UNL     1       1.375   0.204  -1.867  0.00  0.00    +0.048 A 
ATOM     12  C   UNL     1       1.571  -0.673  -2.914  0.00  0.00    +0.031 A 
ATOM     13  C   UNL     1       1.698  -2.040  -2.662  0.00  0.00    +0.067 A 
ATOM     14  C   UNL     1       1.625  -2.514  -1.350  0.00  0.00    +0.031 A 
ATOM     15  C   UNL     1       1.433  -1.630  -0.309  0.00  0.00    +0.048 A 
BRANCH  10  17
ATOM     16  C   UNL     1       0.984   1.980   0.130  0.00  0.00    +0.277 C 
ATOM     17  O   UNL     1       1.110   0.596   0.464  0.00  0.00    -0.495 OA
ENDBRANCH  10  17
ENDBRANCH   1  13
BRANCH   7  18
ATOM     18  C   UNL     1       6.378  -7.355  -3.219  0.00  0.00    +0.048 A 
ATOM     19  C   UNL     1       6.393  -8.720  -2.992  0.00  0.00    +0.027 A 
ATOM     20  C   UNL     1       7.139  -9.300  -4.024  0.00  0.00    +0.020 A 
ATOM     21  C   UNL     1       7.559  -8.309  -4.845  0.00  0.00    +0.092 A 
ATOM     22  N   UNL     1       7.098  -7.119  -4.370  0.00  0.00    -0.314 N 
BRANCH  22  23
ATOM     23  C   UNL     1       7.322  -5.863  -4.953  0.00  0.00    +0.082 A 
ATOM     24  C   UNL     1       6.788  -5.571  -6.200  0.00  0.00    +0.029 A 
ATOM     25  C   UNL     1       7.009  -4.333  -6.772  0.00  0.00    +0.002 A 
ATOM     26  C   UNL     1       7.762  -3.385  -6.104  0.00  0.00    +0.003 A 
ATOM     27  C   UNL     1       8.296  -3.671  -4.861  0.00  0.00    +0.040 A 
ATOM     28  C   UNL     1       8.074  -4.907  -4.280  0.00  0.00    +0.147 A 
ATOM     29  F   UNL     1       8.591  -5.185  -3.064  0.00  0.00    -0.203 F 
ENDBRANCH  22  23
ENDBRANCH   7  18
TORSDOF 4
