REMARK  Name = ZINC08969505
REMARK  7 active torsions:
REMARK  status: ('A' for Active; 'I' for Inactive)
REMARK    1  A    between atoms: C_1  and  O_2
REMARK    2  A    between atoms: O_2  and  C_3
REMARK    3  A    between atoms: C_6  and  N_35
REMARK    4  A    between atoms: C_8  and  N_9
REMARK    5  A    between atoms: C_14  and  C_30
REMARK    6  A    between atoms: C_30  and  C_31
REMARK    7  A    between atoms: C_31  and  C_32
REMARK                            x       y       z     vdW  Elec       q    Type
REMARK                         _______ _______ _______ _____ _____    ______ ____
ROOT
ATOM      1  N   UNL     1      -1.284   2.285   5.737  0.00  0.00    -0.206 N 
ATOM      2  C   UNL     1      -0.900   2.746   4.497  0.00  0.00    +0.229 C 
ATOM      3  O   UNL     1      -0.811   3.897   4.127  0.00  0.00    -0.275 OA
ATOM      4  C   UNL     1      -0.629   1.552   3.741  0.00  0.00    +0.073 C 
ATOM      5  C   UNL     1       0.011   1.072   2.506  0.00  0.00    -0.057 C 
ATOM      6  C   UNL     1      -0.005  -0.701   4.123  0.00  0.00    +0.050 C 
ATOM      7  C   UNL     1       0.008   0.623   4.843  0.00  0.00    +0.088 C 
ATOM      8  C   UNL     1      -0.953   0.972   5.935  0.00  0.00    +0.229 C 
ATOM      9  O   UNL     1      -1.355   0.242   6.815  0.00  0.00    -0.275 OA
ATOM     10  C   UNL     1      -1.111  -1.611   4.583  0.00  0.00    -0.028 A 
ATOM     11  C   UNL     1      -2.484  -1.496   4.609  0.00  0.00    +0.004 A 
ATOM     12  C   UNL     1      -3.258  -2.531   5.102  0.00  0.00    +0.000 A 
ATOM     13  C   UNL     1      -2.651  -3.684   5.566  0.00  0.00    +0.002 A 
ATOM     14  C   UNL     1      -1.278  -3.807   5.538  0.00  0.00    +0.023 A 
ATOM     15  C   UNL     1      -0.491  -2.769   5.042  0.00  0.00    +0.036 A 
ATOM     16  N   UNL     1       0.894  -2.663   4.902  0.00  0.00    -0.286 N 
ATOM     17  C   UNL     1       1.261  -1.485   4.365  0.00  0.00    +0.211 C 
ATOM     18  O   UNL     1       2.393  -1.124   4.122  0.00  0.00    -0.277 OA
ATOM     19  H   UNL     1       1.519  -3.357   5.162  0.00  0.00    +0.155 HD
ATOM     20  N   UNL     1      -0.150  -0.405   2.685  0.00  0.00    +0.394 N 
ATOM     21  H   UNL     1       0.572  -0.902   2.151  0.00  0.00    -0.083 HD
ATOM     22  H   UNL     1      -1.079  -0.697   2.359  0.00  0.00    -0.083 HD
ENDROOT
BRANCH   1  28
ATOM     23  C   UNL     1      -3.335   3.130   6.712  0.00  0.00    +0.142 A 
ATOM     24  C   UNL     1      -3.981   3.911   7.657  0.00  0.00    +0.050 A 
ATOM     25  C   UNL     1      -3.244   4.633   8.577  0.00  0.00    +0.036 A 
ATOM     26  C   UNL     1      -1.862   4.578   8.558  0.00  0.00    +0.128 A 
ATOM     27  C   UNL     1      -1.211   3.797   7.622  0.00  0.00    +0.060 A 
ATOM     28  C   UNL     1      -1.944   3.075   6.692  0.00  0.00    +0.088 A 
BRANCH  26  29
ATOM     29  N   UNL     1      -1.079   5.353   9.547  0.00  0.00    +0.056 N 
ATOM     30  O   UNL     1      -1.651   6.038  10.376  0.00  0.00    -0.126 OA
ATOM     31  O   UNL     1       0.138   5.306   9.531  0.00  0.00    -0.126 OA
ENDBRANCH  26  29
BRANCH  23  33
ATOM     32  C   UNL     1      -5.481   2.525   5.886  0.00  0.00    +0.277 C 
ATOM     33  O   UNL     1      -4.058   2.420   5.806  0.00  0.00    -0.493 OA
ENDBRANCH  23  33
ENDBRANCH   1  28
BRANCH   5  34
ATOM     34  C   UNL     1      -0.729   1.579   1.267  0.00  0.00    -0.006 C 
BRANCH  34  35
ATOM     35  C   UNL     1      -0.013   1.086   0.008  0.00  0.00    +0.094 C 
BRANCH  35  36
ATOM     36  C   UNL     1      -0.742   1.585  -1.213  0.00  0.00    +0.210 C 
ATOM     37  O   UNL     1      -1.736   2.268  -1.088  0.00  0.00    -0.276 OA
ATOM     38  N   UNL     1      -0.288   1.272  -2.443  0.00  0.00    -0.329 N 
ATOM     39  H   UNL     1       0.507   0.726  -2.543  0.00  0.00    +0.145 HD
ATOM     40  H   UNL     1      -0.758   1.594  -3.229  0.00  0.00    +0.145 HD
ENDBRANCH  35  36
ENDBRANCH  34  35
ENDBRANCH   5  34
TORSDOF 6
