REMARK  Name = ZINC13782503
REMARK  10 active torsions:
REMARK  status: ('A' for Active; 'I' for Inactive)
REMARK    1  A    between atoms: C_1  and  C_2
REMARK    2  A    between atoms: C_3  and  C_31
REMARK    3  A    between atoms: C_4  and  C_22
REMARK    4  A    between atoms: C_6  and  C_10
REMARK    5  A    between atoms: C_7  and  C_9
REMARK    6  A    between atoms: N_12  and  C_13
REMARK    7  A    between atoms: C_13  and  C_14
REMARK    8  A    between atoms: C_14  and  C_15
REMARK    9  A    between atoms: C_15  and  N_16
REMARK   10  A    between atoms: C_25  and  N_28
REMARK                            x       y       z     vdW  Elec       q    Type
REMARK                         _______ _______ _______ _____ _____    ______ ____
ROOT
ATOM      1  C   UNL     1      -6.031  -1.153   0.905  0.00  0.00    +0.061 C 
ATOM      2  C   UNL     1      -4.764  -0.476   0.450  0.00  0.00    +0.014 C 
ATOM      3  C   UNL     1      -3.626  -1.184   0.367  0.00  0.00    +0.043 C 
ATOM      4  C   UNL     1      -2.342  -0.553  -0.090  0.00  0.00    +0.092 C 
ATOM      5  C   UNL     1      -2.436   0.945  -0.036  0.00  0.00    +0.043 C 
ATOM      6  C   UNL     1      -3.620   1.569   0.069  0.00  0.00    +0.014 C 
ATOM      7  N   UNL     1      -4.787   0.854   0.126  0.00  0.00    -0.321 N 
ATOM      8  C   UNL     1      -3.667   3.075   0.118  0.00  0.00    +0.061 C 
ATOM      9  H   UNL     1      -5.744   1.352  -0.089  0.00  0.00    +0.152 HD
ENDROOT
BRANCH   4  10
ATOM     10  C   UNL     1      -2.056  -0.981  -1.507  0.00  0.00    -0.035 A 
ATOM     11  C   UNL     1      -2.945  -0.667  -2.517  0.00  0.00    +0.007 A 
ATOM     12  C   UNL     1      -2.680  -1.055  -3.817  0.00  0.00    +0.033 A 
ATOM     13  C   UNL     1      -1.531  -1.767  -4.105  0.00  0.00    +0.126 A 
ATOM     14  C   UNL     1      -0.644  -2.087  -3.094  0.00  0.00    +0.033 A 
ATOM     15  C   UNL     1      -0.906  -1.694  -1.795  0.00  0.00    +0.007 A 
BRANCH  13  16
ATOM     16  N   UNL     1      -1.249  -2.187  -5.496  0.00  0.00    +0.056 N 
ATOM     17  O   UNL     1      -0.236  -2.814  -5.750  0.00  0.00    -0.126 OA
ATOM     18  O   UNL     1      -2.030  -1.905  -6.387  0.00  0.00    -0.126 OA
ENDBRANCH  13  16
ENDBRANCH   4  10
BRANCH   3  19
ATOM     19  C   UNL     1      -3.638  -2.557   0.717  0.00  0.00    +0.240 C 
ATOM     20  O   UNL     1      -4.690  -3.109   0.982  0.00  0.00    -0.271 OA
ATOM     21  N   UNL     1      -2.483  -3.251   0.759  0.00  0.00    -0.326 N 
ATOM     22  H   UNL     1      -2.492  -4.317   1.031  0.00  0.00    +0.145 HD
ATOM     23  H   UNL     1      -1.532  -2.752   0.520  0.00  0.00    +0.145 HD
ENDBRANCH   3  19
BRANCH   5  24
ATOM     24  C   UNL     1      -1.249   1.716  -0.091  0.00  0.00    +0.242 C 
ATOM     25  O   UNL     1      -0.562   1.849   0.906  0.00  0.00    -0.270 OA
ATOM     26  N   UNL     1      -0.879   2.303  -1.247  0.00  0.00    -0.312 N 
ATOM     27  H   UNL     1      -1.497   2.179  -2.148  0.00  0.00    +0.149 HD
BRANCH  26  28
ATOM     28  C   UNL     1       0.345   3.106  -1.302  0.00  0.00    +0.102 C 
BRANCH  28  29
ATOM     29  C   UNL     1       0.528   3.660  -2.716  0.00  0.00    +0.000 C 
BRANCH  29  30
ATOM     30  C   UNL     1       1.807   4.498  -2.774  0.00  0.00    -0.077 C 
BRANCH  30  31
ATOM     31  N   UNL     1       1.982   5.030  -4.132  0.00  0.00    +0.380 N 
ATOM     32  C   UNL     1       2.224   3.947  -5.094  0.00  0.00    -0.079 C 
ATOM     33  C   UNL     1       2.257   4.522  -6.512  0.00  0.00    -0.019 C 
ATOM     34  C   UNL     1       3.368   5.571  -6.607  0.00  0.00    -0.004 C 
ATOM     35  C   UNL     1       3.119   6.662  -5.562  0.00  0.00    -0.019 C 
ATOM     36  C   UNL     1       3.061   6.026  -4.171  0.00  0.00    -0.079 C 
ATOM     37  H   UNL     1       1.049   5.535  -4.422  0.00  0.00    -0.082 HD
ENDBRANCH  30  31
ENDBRANCH  29  30
ENDBRANCH  28  29
ENDBRANCH  26  28
ENDBRANCH   5  24
TORSDOF 8
