REMARK  Name = ZINC09764060
REMARK  7 active torsions:
REMARK  status: ('A' for Active; 'I' for Inactive)
REMARK    1  A    between atoms: C_1  and  C_2
REMARK    2  A    between atoms: C_2  and  O_3
REMARK    3  A    between atoms: O_3  and  C_4
REMARK    4  A    between atoms: C_7  and  C_10
REMARK    5  A    between atoms: C_12  and  C_19
REMARK    6  A    between atoms: C_13  and  C_18
REMARK    7  A    between atoms: N_21  and  C_22
REMARK                            x       y       z     vdW  Elec       q    Type
REMARK                         _______ _______ _______ _____ _____    ______ ____
ROOT
ATOM      1  C   UNL     1       1.454  -4.999  -0.048  0.00  0.00    +0.142 C 
ATOM      2  C   UNL     1       2.778  -4.263  -0.013  0.00  0.00    +0.056 C 
ATOM      3  C   UNL     1       3.905  -5.001   0.060  0.00  0.00    +0.019 C 
ATOM      4  N   UNL     1       3.853  -6.367   0.097  0.00  0.00    -0.273 N 
ATOM      5  C   UNL     1       2.713  -7.067   0.063  0.00  0.00    +0.304 C 
ATOM      6  O   UNL     1       2.767  -8.281   0.101  0.00  0.00    -0.252 OA
ATOM      7  N   UNL     1       1.507  -6.470  -0.010  0.00  0.00    -0.288 N 
ATOM      8  C   UNL     1       5.243  -4.309   0.103  0.00  0.00    +0.061 C 
ATOM      9  H   UNL     1       4.690  -6.855   0.150  0.00  0.00    +0.156 HD
ATOM     10  H   UNL     1       0.693  -6.997  -0.033  0.00  0.00    +0.151 HD
ENDROOT
BRANCH   1  14
ATOM     11  C   UNL     1      -0.592  -3.859  -3.623  0.00  0.00    +0.121 A 
ATOM     12  C   UNL     1      -0.951  -3.295  -2.407  0.00  0.00    +0.046 A 
ATOM     13  C   UNL     1      -0.288  -3.666  -1.253  0.00  0.00    +0.009 A 
ATOM     14  C   UNL     1       0.732  -4.597  -1.309  0.00  0.00    -0.022 A 
ATOM     15  C   UNL     1       1.095  -5.156  -2.520  0.00  0.00    +0.009 A 
ATOM     16  C   UNL     1       0.432  -4.793  -3.676  0.00  0.00    +0.046 A 
BRANCH  11  17
ATOM     17  O   UNL     1      -1.244  -3.497  -4.759  0.00  0.00    -0.492 OA
BRANCH  17  19
ATOM     18  C   UNL     1      -1.663  -3.588  -7.137  0.00  0.00    +0.048 C 
ATOM     19  C   UNL     1      -0.821  -4.117  -5.975  0.00  0.00    +0.225 C 
ENDBRANCH  17  19
ENDBRANCH  11  17
ENDBRANCH   1  14
BRANCH   2  20
ATOM     20  C   UNL     1       2.831  -2.848  -0.051  0.00  0.00    +0.248 C 
ATOM     21  O   UNL     1       2.535  -2.201   0.937  0.00  0.00    -0.270 OA
ATOM     22  N   UNL     1       3.208  -2.217  -1.181  0.00  0.00    -0.280 N 
ATOM     23  H   UNL     1       3.348  -2.724  -1.996  0.00  0.00    +0.155 HD
BRANCH  22  24
ATOM     24  C   UNL     1       3.400  -0.832  -1.178  0.00  0.00    +0.052 A 
ATOM     25  C   UNL     1       2.650  -0.028  -0.329  0.00  0.00    +0.025 A 
ATOM     26  C   UNL     1       2.842   1.340  -0.328  0.00  0.00    +0.002 A 
ATOM     27  C   UNL     1       3.778   1.910  -1.171  0.00  0.00    +0.002 A 
ATOM     28  C   UNL     1       4.526   1.113  -2.018  0.00  0.00    +0.022 A 
ATOM     29  C   UNL     1       4.340  -0.256  -2.024  0.00  0.00    +0.062 A 
ATOM     30 CL   UNL     1       5.279  -1.256  -3.087  0.00  0.00    -0.082 Cl
ENDBRANCH  22  24
ENDBRANCH   2  20
TORSDOF 5
