REMARK  Name = ZINC06233734
REMARK  8 active torsions:
REMARK  status: ('A' for Active; 'I' for Inactive)
REMARK    1  A    between atoms: C_1  and  C_2
REMARK    2  A    between atoms: C_5  and  C_8
REMARK    3  A    between atoms: C_9  and  C_10
REMARK    4  A    between atoms: N_12  and  C_13
REMARK    5  A    between atoms: C_13  and  N_15
REMARK    6  A    between atoms: N_15  and  N_16
REMARK    7  A    between atoms: N_16  and  C_17
REMARK    8  A    between atoms: C_17  and  N_19
REMARK                            x       y       z     vdW  Elec       q    Type
REMARK                         _______ _______ _______ _____ _____    ______ ____
ROOT
ATOM      1  C   UNL     1      -0.014   1.212   0.009  0.00  0.00    +0.242 C 
ATOM      2  O   UNL     1       0.002  -0.004   0.002  0.00  0.00    -0.270 OA
ATOM      3  N   UNL     1       1.143   1.902   0.001  0.00  0.00    -0.263 N 
ATOM      4  H   UNL     1       1.130   2.872   0.007  0.00  0.00    +0.157 HD
ENDROOT
BRANCH   1   6
ATOM      5  C   UNL     1      -2.450   1.236   0.020  0.00  0.00    +0.013 C 
ATOM      6  C   UNL     1      -1.291   1.927   0.019  0.00  0.00    +0.068 C 
BRANCH   5  11
ATOM      7  C   UNL     1      -7.467   4.043   0.060  0.00  0.00    +0.044 C 
ATOM      8  C   UNL     1      -6.152   3.307   0.050  0.00  0.00    -0.050 A 
ATOM      9  C   UNL     1      -6.138   1.923   0.042  0.00  0.00    +0.004 A 
ATOM     10  C   UNL     1      -4.938   1.243   0.032  0.00  0.00    +0.008 A 
ATOM     11  C   UNL     1      -3.735   1.955   0.030  0.00  0.00    -0.025 A 
ATOM     12  C   UNL     1      -3.758   3.353   0.044  0.00  0.00    +0.008 A 
ATOM     13  C   UNL     1      -4.965   4.019   0.048  0.00  0.00    +0.004 A 
ENDBRANCH   5  11
ENDBRANCH   1   6
BRANCH   3  14
ATOM     14  C   UNL     1       2.320   1.244  -0.013  0.00  0.00    +0.153 C 
ATOM     15  S   UNL     1       2.343  -0.468  -0.023  0.00  0.00    -0.017 S 
BRANCH  14  16
ATOM     16  N   UNL     1       3.478   1.934  -0.021  0.00  0.00    -0.246 N 
ATOM     17  H   UNL     1       4.324   1.460  -0.031  0.00  0.00    +0.172 HD
BRANCH  16  18
ATOM     18  N   UNL     1       3.458   3.335  -0.013  0.00  0.00    -0.247 N 
ATOM     19  H   UNL     1       2.612   3.808  -0.002  0.00  0.00    +0.172 HD
BRANCH  18  20
ATOM     20  C   UNL     1       4.616   4.025  -0.020  0.00  0.00    +0.144 C 
ATOM     21  S   UNL     1       4.593   5.736  -0.011  0.00  0.00    -0.018 S 
BRANCH  20  22
ATOM     22  N   UNL     1       5.793   3.367  -0.035  0.00  0.00    -0.340 N 
ATOM     23  H   UNL     1       5.806   2.397  -0.041  0.00  0.00    +0.144 HD
ATOM     24  H   UNL     1       6.626   3.863  -0.041  0.00  0.00    +0.144 HD
ENDBRANCH  20  22
ENDBRANCH  18  20
ENDBRANCH  16  18
ENDBRANCH  14  16
ENDBRANCH   3  14
TORSDOF 7
