REMARK  Name = ZINC40680797
REMARK  3 active torsions:
REMARK  status: ('A' for Active; 'I' for Inactive)
REMARK    1  A    between atoms: C_1  and  C_2
REMARK    2  A    between atoms: C_9  and  N_23
REMARK    3  A    between atoms: C_10  and  N_14
REMARK                            x       y       z     vdW  Elec       q    Type
REMARK                         _______ _______ _______ _____ _____    ______ ____
ROOT
ATOM      1  C   UNL     1       0.005   1.478   0.171  0.00  0.00    +0.089 C 
ATOM      2  C   UNL     1       0.016  -0.029   0.187  0.00  0.00    +0.136 A 
ATOM      3  C   UNL     1      -1.066  -0.826   0.140  0.00  0.00    +0.091 A 
ATOM      4  C   UNL     1      -0.624  -2.168   0.176  0.00  0.00    +0.167 A 
ATOM      5  N   UNL     1       0.683  -2.159   0.242  0.00  0.00    -0.063 NA
ATOM      6  O   UNL     1       1.108  -0.808   0.244  0.00  0.00    -0.358 OA
ATOM      7  N   UNL     1      -1.436  -3.299   0.146  0.00  0.00    -0.280 N 
ATOM      8  C   UNL     1      -2.818  -3.162   0.075  0.00  0.00    +0.150 A 
ATOM      9  C   UNL     1      -3.642  -4.288   0.050  0.00  0.00    +0.104 A 
ATOM     10  C   UNL     1      -5.023  -4.094  -0.021  0.00  0.00    +0.129 A 
ATOM     11  N   UNL     1      -5.497  -2.851  -0.063  0.00  0.00    -0.332 N 
ATOM     12  C   UNL     1      -4.684  -1.814  -0.038  0.00  0.00    +0.200 A 
ATOM     13  N   UNL     1      -3.376  -1.954   0.034  0.00  0.00    -0.221 NA
ATOM     14  H   UNL     1      -1.037  -4.183   0.176  0.00  0.00    +0.155 HD
ATOM     15  H   UNL     1      -6.455  -2.706  -0.114  0.00  0.00    +0.168 HD
ENDROOT
BRANCH  10  16
ATOM     16  N   UNL     1      -5.889  -5.181  -0.049  0.00  0.00    -0.284 N 
ATOM     17  C   UNL     1      -6.519  -5.782   1.129  0.00  0.00    +0.117 C 
ATOM     18  C   UNL     1      -7.375  -6.938   0.583  0.00  0.00    +0.056 C 
ATOM     19  C   UNL     1      -7.154  -6.899  -0.912  0.00  0.00    -0.025 A 
ATOM     20  C   UNL     1      -6.289  -5.856  -1.204  0.00  0.00    +0.038 A 
ATOM     21  C   UNL     1      -5.938  -5.619  -2.535  0.00  0.00    +0.024 A 
ATOM     22  C   UNL     1      -6.450  -6.410  -3.541  0.00  0.00    +0.002 A 
ATOM     23  C   UNL     1      -7.316  -7.446  -3.239  0.00  0.00    +0.000 A 
ATOM     24  C   UNL     1      -7.661  -7.693  -1.923  0.00  0.00    +0.005 A 
ENDBRANCH  10  16
BRANCH   9  25
ATOM     25  N   UNL     1      -3.098  -5.581   0.096  0.00  0.00    -0.353 N 
ATOM     26  H   UNL     1      -2.136  -5.704   0.052  0.00  0.00    +0.143 HD
ATOM     27  H   UNL     1      -3.682  -6.351   0.172  0.00  0.00    +0.143 HD
ENDBRANCH   9  25
TORSDOF 2
