REMARK  Name = ZINC00959824
REMARK  4 active torsions:
REMARK  status: ('A' for Active; 'I' for Inactive)
REMARK    1  A    between atoms: C_1  and  S_2
REMARK    2  A    between atoms: S_2  and  C_3
REMARK    3  A    between atoms: C_13  and  C_15
REMARK    4  A    between atoms: C_19  and  N_21
REMARK                            x       y       z     vdW  Elec       q    Type
REMARK                         _______ _______ _______ _____ _____    ______ ____
ROOT
ATOM      1  C   UNL     1      -1.702  -0.454   0.016  0.00  0.00    +0.171 A 
ATOM      2  N   UNL     1      -2.620   0.491   0.024  0.00  0.00    -0.185 NA
ATOM      3  C   UNL     1      -3.926   0.184   0.033  0.00  0.00    +0.280 A 
ATOM      4  O   UNL     1      -4.766   1.071   0.042  0.00  0.00    -0.265 OA
ATOM      5  C   UNL     1      -4.324  -1.171   0.031  0.00  0.00    +0.069 A 
ATOM      6  C   UNL     1      -3.367  -2.137   0.026  0.00  0.00    +0.111 A 
ATOM      7  N   UNL     1      -2.046  -1.772   0.012  0.00  0.00    -0.322 N 
ATOM      8  N   UNL     1      -3.723  -3.465   0.034  0.00  0.00    -0.304 N 
ATOM      9  C   UNL     1      -4.976  -3.849   0.428  0.00  0.00    +0.017 C 
ATOM     10  C   UNL     1      -5.994  -2.962   0.443  0.00  0.00    +0.024 C 
ATOM     11  C   UNL     1      -5.781  -1.529   0.029  0.00  0.00    +0.092 C 
ATOM     12  C   UNL     1      -7.286  -3.350   0.841  0.00  0.00    +0.162 C 
ATOM     13  O   UNL     1      -8.176  -2.523   0.862  0.00  0.00    -0.292 OA
ATOM     14  C   UNL     1      -7.587  -4.768   1.240  0.00  0.00    +0.080 C 
ATOM     15  C   UNL     1      -6.620  -5.708   0.511  0.00  0.00    +0.014 C 
ATOM     16  C   UNL     1      -5.189  -5.283   0.845  0.00  0.00    +0.051 C 
ATOM     17  H   UNL     1      -3.080  -4.136  -0.242  0.00  0.00    +0.153 HD
ATOM     18  H   UNL     1      -1.355  -2.453   0.003  0.00  0.00    +0.169 HD
ENDROOT
BRANCH  11  19
ATOM     19  C   UNL     1      -6.336  -1.329  -1.358  0.00  0.00    -0.033 A 
ATOM     20  C   UNL     1      -5.815  -2.043  -2.421  0.00  0.00    +0.005 A 
ATOM     21  C   UNL     1      -6.324  -1.859  -3.693  0.00  0.00    +0.003 A 
ATOM     22  C   UNL     1      -7.355  -0.962  -3.902  0.00  0.00    +0.033 A 
ATOM     23  C   UNL     1      -7.877  -0.249  -2.839  0.00  0.00    +0.126 A 
ATOM     24  C   UNL     1      -7.371  -0.436  -1.566  0.00  0.00    +0.037 A 
BRANCH  23  25
ATOM     25  N   UNL     1      -8.981   0.711  -3.063  0.00  0.00    +0.056 N 
ATOM     26  O   UNL     1      -9.425   0.872  -4.176  0.00  0.00    -0.126 OA
ATOM     27  O   UNL     1      -9.437   1.335  -2.133  0.00  0.00    -0.126 OA
ENDBRANCH  23  25
ENDBRANCH  11  19
BRANCH   1  29
ATOM     28  C   UNL     1      -0.022   1.810   0.012  0.00  0.00    +0.093 C 
ATOM     29  S   UNL     1       0.002  -0.004   0.002  0.00  0.00    -0.091 S 
ENDBRANCH   1  29
TORSDOF 3
