REMARK  Name = ZINC64890984
REMARK  10 active torsions:
REMARK  status: ('A' for Active; 'I' for Inactive)
REMARK    1  A    between atoms: C_1  and  C_2
REMARK    2  A    between atoms: C_5  and  S_8
REMARK    3  A    between atoms: S_8  and  N_11
REMARK    4  A    between atoms: N_11  and  C_12
REMARK    5  A    between atoms: C_12  and  C_14
REMARK    6  A    between atoms: C_12  and  C_33
REMARK    7  A    between atoms: C_17  and  C_21
REMARK    8  A    between atoms: N_31  and  C_32
REMARK    9  A    between atoms: C_33  and  C_34
REMARK   10  A    between atoms: C_33  and  C_35
REMARK                            x       y       z     vdW  Elec       q    Type
REMARK                         _______ _______ _______ _____ _____    ______ ____
ROOT
ATOM      1  C   UNL     1       3.911  -4.167   0.561  0.00  0.00    +0.230 C 
ATOM      2  N   UNL     1       3.798  -2.918  -0.225  0.00  0.00    -0.268 NA
ATOM      3  C   UNL     1       4.716  -3.131  -1.376  0.00  0.00    +0.180 C 
ATOM      4  N   UNL     1       4.532  -4.579  -1.663  0.00  0.00    -0.178 NA
ATOM      5  O   UNL     1       4.370  -5.195  -0.331  0.00  0.00    -0.278 OA
ATOM      6  H   UNL     1       2.851  -2.774  -0.540  0.00  0.00    +0.126 HD
ATOM      7  H   UNL     1       3.716  -4.733  -2.236  0.00  0.00    +0.156 HD
ENDROOT
BRANCH   3   8
ATOM      8  C   UNL     1       4.302  -2.290  -2.556  0.00  0.00    -0.012 A 
ATOM      9  C   UNL     1       3.672  -1.075  -2.348  0.00  0.00    +0.009 A 
ATOM     10  C   UNL     1       3.288  -0.296  -3.423  0.00  0.00    +0.028 A 
ATOM     11  C   UNL     1       3.536  -0.734  -4.715  0.00  0.00    +0.069 A 
ATOM     12  C   UNL     1       4.172  -1.959  -4.924  0.00  0.00    +0.067 A 
ATOM     13  C   UNL     1       4.558  -2.731  -3.839  0.00  0.00    +0.034 A 
ATOM     14  N   UNL     1       4.282  -2.125  -6.303  0.00  0.00    -0.306 N 
ATOM     15  H   UNL     1       4.682  -2.886  -6.753  0.00  0.00    +0.170 HD
ATOM     16  C   UNL     1       3.738  -1.050  -6.904  0.00  0.00    +0.327 A 
ATOM     17  O   UNL     1       3.670  -0.880  -8.107  0.00  0.00    -0.247 OA
ATOM     18  N   UNL     1       3.279  -0.193  -5.973  0.00  0.00    -0.295 N 
ATOM     19  C   UNL     1       2.622   1.089  -6.237  0.00  0.00    +0.154 C 
ENDBRANCH   3   8
BRANCH   1  20
ATOM     20  C   UNL     1       2.545  -4.547   1.134  0.00  0.00    +0.125 C 
BRANCH  20  21
ATOM     21  C   UNL     1       2.693  -5.772   2.039  0.00  0.00    +0.005 C 
ATOM     22  C   UNL     1       3.550  -5.407   3.253  0.00  0.00    +0.009 C 
ATOM     23  C   UNL     1       1.311  -6.230   2.509  0.00  0.00    +0.009 C 
ENDBRANCH  20  21
BRANCH  20  24
ATOM     24  N   UNL     1       1.625  -4.859   0.037  0.00  0.00    -0.183 NA
ATOM     25  H   UNL     1       1.890  -5.483  -0.656  0.00  0.00    +0.148 HD
BRANCH  24  26
ATOM     26  S   UNL     1       0.131  -4.146  -0.019  0.00  0.00    +0.059 S 
ATOM     27  O   UNL     1      -0.450  -4.317   1.267  0.00  0.00    -0.153 OA
ATOM     28  O   UNL     1      -0.496  -4.609  -1.206  0.00  0.00    -0.153 OA
BRANCH  26  33
ATOM     29  C   UNL     1       1.008   1.781  -0.735  0.00  0.00    +0.044 C 
ATOM     30  C   UNL     1       0.789   0.301  -0.556  0.00  0.00    -0.050 A 
ATOM     31  C   UNL     1       0.667  -0.518  -1.663  0.00  0.00    +0.005 A 
ATOM     32  C   UNL     1       0.467  -1.876  -1.498  0.00  0.00    +0.029 A 
ATOM     33  C   UNL     1       0.388  -2.415  -0.228  0.00  0.00    +0.105 A 
ATOM     34  C   UNL     1       0.511  -1.596   0.879  0.00  0.00    +0.029 A 
ATOM     35  C   UNL     1       0.716  -0.238   0.715  0.00  0.00    +0.005 A 
ENDBRANCH  26  33
ENDBRANCH  24  26
ENDBRANCH  20  24
ENDBRANCH   1  20
TORSDOF 6
