REMARK  Name = ZINC54414028
REMARK  7 active torsions:
REMARK  status: ('A' for Active; 'I' for Inactive)
REMARK    1  A    between atoms: C_1  and  C_2
REMARK    2  A    between atoms: C_2  and  C_4
REMARK    3  A    between atoms: C_2  and  N_7
REMARK    4  A    between atoms: C_4  and  C_5
REMARK    5  A    between atoms: C_4  and  C_6
REMARK    6  A    between atoms: C_8  and  C_12
REMARK    7  A    between atoms: C_15  and  N_19
REMARK                            x       y       z     vdW  Elec       q    Type
REMARK                         _______ _______ _______ _____ _____    ______ ____
ROOT
ATOM      1  N   UNL     1       0.598  -0.655   1.210  0.00  0.00    -0.222 N 
ATOM      2  C   UNL     1       1.776  -1.328   1.227  0.00  0.00    +0.182 A 
ATOM      3  N   UNL     1       2.199  -1.335   2.474  0.00  0.00    -0.108 NA
ATOM      4  N   UNL     1       1.369  -0.715   3.233  0.00  0.00    -0.023 NA
ATOM      5  N   UNL     1       0.376  -0.269   2.543  0.00  0.00    -0.043 NA
ENDROOT
BRANCH   2   6
ATOM      6  C   UNL     1       2.456  -1.939   0.064  0.00  0.00    +0.024 A 
ATOM      7  C   UNL     1       2.316  -1.374  -1.204  0.00  0.00    +0.013 A 
ATOM      8  C   UNL     1       2.951  -1.944  -2.286  0.00  0.00    +0.026 A 
ATOM      9  C   UNL     1       3.731  -3.081  -2.116  0.00  0.00    +0.060 A 
ATOM     10  C   UNL     1       3.874  -3.648  -0.853  0.00  0.00    +0.145 A 
ATOM     11  C   UNL     1       3.245  -3.078   0.235  0.00  0.00    +0.051 A 
ATOM     12  F   UNL     1       4.633  -4.754  -0.690  0.00  0.00    -0.204 F 
BRANCH   9  13
ATOM     13  N   UNL     1       4.373  -3.657  -3.215  0.00  0.00    -0.356 N 
ATOM     14  H   UNL     1       4.274  -3.263  -4.095  0.00  0.00    +0.142 HD
ATOM     15  H   UNL     1       4.918  -4.450  -3.097  0.00  0.00    +0.142 HD
ENDBRANCH   9  13
ENDBRANCH   2   6
BRANCH   1  17
ATOM     16  C   UNL     1      -0.231   1.113  -0.261  0.00  0.00    +0.033 C 
ATOM     17  C   UNL     1      -0.256  -0.384   0.051  0.00  0.00    +0.111 C 
BRANCH  17  18
ATOM     18  C   UNL     1      -1.690  -0.818   0.361  0.00  0.00    +0.007 C 
ATOM     19  C   UNL     1      -2.581  -0.534  -0.849  0.00  0.00    +0.009 C 
ATOM     20  C   UNL     1      -1.714  -2.315   0.673  0.00  0.00    +0.009 C 
ENDBRANCH  17  18
ENDBRANCH   1  17
TORSDOF 4
