REMARK  Name = ZINC14253253
REMARK  5 active torsions:
REMARK  status: ('A' for Active; 'I' for Inactive)
REMARK    1  A    between atoms: C_1  and  C_2
REMARK    2  A    between atoms: C_2  and  C_26
REMARK    3  A    between atoms: N_5  and  C_9
REMARK    4  A    between atoms: C_9  and  C_10
REMARK    5  A    between atoms: C_14  and  C_23
REMARK                            x       y       z     vdW  Elec       q    Type
REMARK                         _______ _______ _______ _____ _____    ______ ____
ROOT
ATOM      1  C   UNL     1       2.749   5.798   4.840  0.00  0.00    +0.047 C 
ATOM      2  C   UNL     1       3.812   5.616   3.755  0.00  0.00    +0.135 C 
ATOM      3  C   UNL     1       3.698   4.244   3.121  0.00  0.00    +0.251 C 
ATOM      4  O   UNL     1       3.823   3.170   3.671  0.00  0.00    -0.272 OA
ATOM      5  N   UNL     1       3.427   4.465   1.819  0.00  0.00    -0.215 N 
ATOM      6  C   UNL     1       3.360   5.773   1.545  0.00  0.00    +0.310 C 
ATOM      7  O   UNL     1       3.132   6.220   0.438  0.00  0.00    -0.252 OA
ATOM      8  N   UNL     1       3.570   6.537   2.631  0.00  0.00    -0.281 N 
ATOM      9  H   UNL     1       3.567   7.507   2.667  0.00  0.00    +0.152 HD
ENDROOT
BRANCH   2  10
ATOM     10  C   UNL     1       5.191   5.822   4.327  0.00  0.00    -0.015 A 
ATOM     11  C   UNL     1       5.908   4.726   4.803  0.00  0.00    +0.007 A 
ATOM     12  C   UNL     1       7.158   4.877   5.320  0.00  0.00    +0.009 A 
ATOM     13  C   UNL     1       7.732   6.158   5.387  0.00  0.00    -0.018 A 
ATOM     14  C   UNL     1       9.018   6.354   5.920  0.00  0.00    +0.008 A 
ATOM     15  C   UNL     1       9.542   7.609   5.970  0.00  0.00    +0.001 A 
ATOM     16  C   UNL     1       8.823   8.706   5.499  0.00  0.00    +0.001 A 
ATOM     17  C   UNL     1       7.576   8.554   4.976  0.00  0.00    +0.008 A 
ATOM     18  C   UNL     1       7.001   7.274   4.908  0.00  0.00    -0.018 A 
ATOM     19  C   UNL     1       5.716   7.077   4.375  0.00  0.00    +0.014 A 
ENDBRANCH   2  10
BRANCH   5  20
ATOM     20  C   UNL     1       3.236   3.405   0.827  0.00  0.00    +0.214 C 
BRANCH  20  21
ATOM     21  C   UNL     1       1.779   3.024   0.773  0.00  0.00    +0.238 C 
ATOM     22  O   UNL     1       0.965   3.647   1.421  0.00  0.00    -0.274 OA
ATOM     23  N   UNL     1       1.380   1.991   0.004  0.00  0.00    -0.263 N 
ATOM     24  C   UNL     1       2.323   1.298  -0.890  0.00  0.00    +0.168 C 
ATOM     25  C   UNL     1       1.598   1.038  -2.218  0.00  0.00    +0.276 C 
ATOM     26  O   UNL     1       0.427   0.260  -1.959  0.00  0.00    -0.476 OA
ATOM     27  C   UNL     1      -0.403   0.675  -0.967  0.00  0.00    +0.143 A 
ATOM     28  C   UNL     1       0.050   1.539   0.027  0.00  0.00    +0.078 A 
ATOM     29  C   UNL     1      -0.807   1.951   1.035  0.00  0.00    +0.027 A 
ATOM     30  C   UNL     1      -2.116   1.506   1.051  0.00  0.00    +0.002 A 
ATOM     31  C   UNL     1      -2.569   0.651   0.064  0.00  0.00    +0.004 A 
ATOM     32  C   UNL     1      -1.718   0.235  -0.943  0.00  0.00    +0.047 A 
BRANCH  25  33
ATOM     33  C   UNL     1       2.509   0.285  -3.153  0.00  0.00    +0.253 C 
ATOM     34  O   UNL     1       2.227  -0.843  -3.496  0.00  0.00    -0.272 OA
ATOM     35  N   UNL     1       3.638   0.866  -3.607  0.00  0.00    -0.326 N 
ATOM     36  H   UNL     1       3.863   1.768  -3.332  0.00  0.00    +0.145 HD
ATOM     37  H   UNL     1       4.224   0.381  -4.208  0.00  0.00    +0.145 HD
ENDBRANCH  25  33
ENDBRANCH  20  21
ENDBRANCH   5  20
TORSDOF 4
