REMARK  Name = ZINC37403595
REMARK  5 active torsions:
REMARK  status: ('A' for Active; 'I' for Inactive)
REMARK    1  A    between atoms: C_4  and  N_7
REMARK    2  A    between atoms: C_8  and  S_12
REMARK    3  A    between atoms: S_12  and  C_13
REMARK    4  A    between atoms: C_13  and  C_14
REMARK    5  A    between atoms: C_16  and  N_21
REMARK                            x       y       z     vdW  Elec       q    Type
REMARK                         _______ _______ _______ _____ _____    ______ ____
ROOT
ATOM      1  S   UNL     1       2.824  -2.812   1.538  0.00  0.00    -0.079 S 
ENDROOT
BRANCH   1   3
ATOM      2  N   UNL     1       3.624  -0.652  -0.037  0.00  0.00    -0.187 N 
ATOM      3  C   UNL     1       3.918  -1.831   0.567  0.00  0.00    +0.214 A 
ATOM      4  N   UNL     1       5.176  -2.102   0.291  0.00  0.00    -0.101 NA
ATOM      5  N   UNL     1       5.685  -1.178  -0.441  0.00  0.00    -0.022 NA
ATOM      6  N   UNL     1       4.809  -0.266  -0.689  0.00  0.00    -0.038 NA
BRANCH   2  10
ATOM      7  C   UNL     1      -0.017   1.379   0.010  0.00  0.00    +0.000 A 
ATOM      8  C   UNL     1       1.170   2.089   0.002  0.00  0.00    +0.002 A 
ATOM      9  C   UNL     1       2.377   1.419  -0.013  0.00  0.00    +0.028 A 
ATOM     10  C   UNL     1       2.399   0.031  -0.021  0.00  0.00    +0.070 A 
ATOM     11  C   UNL     1       1.207  -0.680  -0.013  0.00  0.00    +0.028 A 
ATOM     12  C   UNL     1       0.002  -0.004   0.002  0.00  0.00    +0.002 A 
ENDBRANCH   2  10
ENDBRANCH   1   3
BRANCH   1  13
ATOM     13  C   UNL     1       3.835  -4.234   2.038  0.00  0.00    +0.114 C 
BRANCH  13  14
ATOM     14  C   UNL     1       3.007  -5.165   2.885  0.00  0.00    -0.017 A 
ATOM     15  C   UNL     1       2.967  -4.998   4.256  0.00  0.00    +0.028 A 
ATOM     16  C   UNL     1       2.205  -5.857   5.037  0.00  0.00    +0.025 A 
ATOM     17  C   UNL     1       1.484  -6.882   4.436  0.00  0.00    +0.024 A 
ATOM     18  C   UNL     1       1.528  -7.044   3.066  0.00  0.00    +0.022 A 
ATOM     19  C   UNL     1       2.284  -6.183   2.289  0.00  0.00    +0.045 A 
ATOM     20 CL   UNL     1       2.332  -6.386   0.566  0.00  0.00    -0.083 Cl
BRANCH  16  21
ATOM     21  N   UNL     1       2.163  -5.691   6.423  0.00  0.00    -0.358 N 
ATOM     22  H   UNL     1       2.667  -4.976   6.842  0.00  0.00    +0.142 HD
ATOM     23  H   UNL     1       1.629  -6.292   6.968  0.00  0.00    +0.142 HD
ENDBRANCH  16  21
ENDBRANCH  13  14
ENDBRANCH   1  13
TORSDOF 5
