REMARK  Name = ZINC04320610
REMARK  5 active torsions:
REMARK  status: ('A' for Active; 'I' for Inactive)
REMARK    1  A    between atoms: C_1  and  N_2
REMARK    2  A    between atoms: N_2  and  N_14
REMARK    3  A    between atoms: C_15  and  C_16
REMARK    4  A    between atoms: C_19  and  O_24
REMARK    5  A    between atoms: C_20  and  C_22
REMARK                            x       y       z     vdW  Elec       q    Type
REMARK                         _______ _______ _______ _____ _____    ______ ____
ROOT
ATOM      1  C   UNL     1      -3.541   7.374   0.077  0.00  0.00    +0.160 C 
ATOM      2  N   UNL     1      -2.240   8.048   0.069  0.00  0.00    -0.208 N 
ATOM      3  C   UNL     1      -2.177   9.424   0.076  0.00  0.00    +0.171 C 
ATOM      4  N   UNL     1      -3.264  10.130   0.085  0.00  0.00    -0.111 NA
ATOM      5  S   UNL     1      -2.771  11.729   0.095  0.00  0.00    +0.101 S 
ATOM      6  O   UNL     1      -3.123  12.287   1.353  0.00  0.00    -0.146 OA
ATOM      7  O   UNL     1      -3.147  12.303  -1.150  0.00  0.00    -0.146 OA
ATOM      8  C   UNL     1      -1.013  11.505   0.076  0.00  0.00    +0.123 A 
ATOM      9  C   UNL     1      -0.876  10.110   0.067  0.00  0.00    +0.045 A 
ATOM     10  C   UNL     1       0.427   9.589   0.051  0.00  0.00    +0.013 A 
ATOM     11  C   UNL     1       1.514  10.436   0.044  0.00  0.00    +0.001 A 
ATOM     12  C   UNL     1       1.346  11.809   0.053  0.00  0.00    +0.002 A 
ATOM     13  C   UNL     1       0.065  12.341   0.070  0.00  0.00    +0.030 A 
ENDROOT
BRANCH   2  14
ATOM     14  N   UNL     1      -1.060   7.293   0.053  0.00  0.00    -0.186 NA
ATOM     15  C   UNL     1      -1.119   5.996   0.046  0.00  0.00    +0.138 C 
BRANCH  15  16
ATOM     16  C   UNL     1       0.123   5.202   0.029  0.00  0.00    -0.004 A 
ATOM     17  C   UNL     1       1.366   5.845   0.021  0.00  0.00    +0.013 A 
ATOM     18  C   UNL     1       2.529   5.108   0.006  0.00  0.00    +0.047 A 
ATOM     19  C   UNL     1       2.478   3.721   0.004  0.00  0.00    +0.131 A 
ATOM     20  C   UNL     1       1.238   3.064   0.007  0.00  0.00    +0.105 A 
ATOM     21  C   UNL     1       0.060   3.810   0.022  0.00  0.00    +0.028 A 
BRANCH  20  22
ATOM     22  C   UNL     1       1.181   1.591  -0.001  0.00  0.00    +0.390 C 
ATOM     23  O   UNL     1       2.209   0.943  -0.014  0.00  0.00    -0.240 OA
ATOM     24  O   UNL     1      -0.011   0.963   0.007  0.00  0.00    -0.240 OA
ENDBRANCH  20  22
BRANCH  19  25
ATOM     25  O   UNL     1       3.627   3.000  -0.005  0.00  0.00    -0.506 OA
ATOM     26  H   UNL     1       3.956   2.795  -0.891  0.00  0.00    +0.292 HD
ENDBRANCH  19  25
ENDBRANCH  15  16
ENDBRANCH   2  14
TORSDOF 4
