REMARK  Name = ZINC07206794
REMARK  10 active torsions:
REMARK  status: ('A' for Active; 'I' for Inactive)
REMARK    1  A    between atoms: C_1  and  C_2
REMARK    2  A    between atoms: C_5  and  N_9
REMARK    3  A    between atoms: C_6  and  C_8
REMARK    4  A    between atoms: C_10  and  C_12
REMARK    5  A    between atoms: C_12  and  C_14
REMARK    6  A    between atoms: C_12  and  O_15
REMARK    7  A    between atoms: O_15  and  C_16
REMARK    8  A    between atoms: C_16  and  C_18
REMARK    9  A    between atoms: C_20  and  N_25
REMARK   10  A    between atoms: C_23  and  N_24
REMARK                            x       y       z     vdW  Elec       q    Type
REMARK                         _______ _______ _______ _____ _____    ______ ____
ROOT
ATOM      1  O   UNL     1      -5.012  -0.823  -0.192  0.00  0.00    -0.449 OA
ENDROOT
BRANCH   1   2
ATOM      2  C   UNL     1      -6.241  -1.593  -0.132  0.00  0.00    +0.259 C 
ATOM      3  C   UNL     1      -6.569  -1.917   1.327  0.00  0.00    +0.062 C 
BRANCH   2   5
ATOM      4  N   UNL     1      -7.118  -3.707  -1.072  0.00  0.00    -0.282 N 
ATOM      5  C   UNL     1      -6.070  -2.876  -0.904  0.00  0.00    +0.258 C 
ATOM      6  O   UNL     1      -4.989  -3.160  -1.376  0.00  0.00    -0.271 OA
ATOM      7  H   UNL     1      -7.995  -3.454  -0.743  0.00  0.00    +0.155 HD
BRANCH   4  12
ATOM      8  C   UNL     1      -6.398  -8.684  -3.697  0.00  0.00    +0.044 C 
ATOM      9  C   UNL     1      -6.590  -7.362  -3.000  0.00  0.00    -0.050 A 
ATOM     10  C   UNL     1      -5.854  -6.260  -3.396  0.00  0.00    +0.005 A 
ATOM     11  C   UNL     1      -6.026  -5.047  -2.759  0.00  0.00    +0.024 A 
ATOM     12  C   UNL     1      -6.940  -4.934  -1.719  0.00  0.00    +0.036 A 
ATOM     13  C   UNL     1      -7.673  -6.044  -1.320  0.00  0.00    -0.029 A 
ATOM     14  C   UNL     1      -7.500  -7.253  -1.965  0.00  0.00    +0.008 A 
ATOM     15  C   UNL     1      -8.662  -5.928  -0.188  0.00  0.00    +0.045 C 
ENDBRANCH   4  12
ENDBRANCH   2   5
ENDBRANCH   1   2
BRANCH   1  16
ATOM     16  C   UNL     1      -5.126   0.518  -0.134  0.00  0.00    +0.342 C 
ATOM     17  O   UNL     1      -6.224   1.031  -0.036  0.00  0.00    -0.245 OA
BRANCH  16  18
ATOM     18  C   UNL     1      -3.921   1.363  -0.191  0.00  0.00    +0.082 A 
ATOM     19  C   UNL     1      -2.652   0.778  -0.203  0.00  0.00    +0.049 A 
ATOM     20  C   UNL     1      -1.529   1.574  -0.256  0.00  0.00    +0.127 A 
ATOM     21  C   UNL     1      -1.650   2.955  -0.291  0.00  0.00    +0.034 A 
ATOM     22  C   UNL     1      -2.896   3.547  -0.286  0.00  0.00    +0.026 A 
ATOM     23  C   UNL     1      -4.040   2.762  -0.233  0.00  0.00    +0.039 A 
BRANCH  23  24
ATOM     24  N   UNL     1      -5.295   3.356  -0.221  0.00  0.00    -0.357 N 
ATOM     25  H   UNL     1      -6.022   2.945   0.272  0.00  0.00    +0.142 HD
ATOM     26  H   UNL     1      -5.445   4.183  -0.705  0.00  0.00    +0.142 HD
ENDBRANCH  23  24
BRANCH  20  27
ATOM     27  N   UNL     1      -0.186   0.952  -0.269  0.00  0.00    +0.056 N 
ATOM     28  O   UNL     1      -0.076  -0.260  -0.232  0.00  0.00    -0.126 OA
ATOM     29  O   UNL     1       0.809   1.653  -0.321  0.00  0.00    -0.126 OA
ENDBRANCH  20  27
ENDBRANCH  16  18
ENDBRANCH   1  16
TORSDOF 7
