REMARK  Name = ZINC03500092
REMARK  7 active torsions:
REMARK  status: ('A' for Active; 'I' for Inactive)
REMARK    1  A    between atoms: C_1  and  C_2
REMARK    2  A    between atoms: C_5  and  C_8
REMARK    3  A    between atoms: C_11  and  S_14
REMARK    4  A    between atoms: N_12  and  N_13
REMARK    5  A    between atoms: S_14  and  C_15
REMARK    6  A    between atoms: C_15  and  C_17
REMARK    7  A    between atoms: C_15  and  C_18
REMARK                            x       y       z     vdW  Elec       q    Type
REMARK                         _______ _______ _______ _____ _____    ______ ____
ROOT
ATOM      1  C   UNL     1       8.293   7.471   0.359  0.00  0.00    +0.182 A 
ATOM      2  N   UNL     1       8.559   6.232   0.014  0.00  0.00    -0.127 NA
ATOM      3  N   UNL     1       7.468   5.561  -0.086  0.00  0.00    -0.121 NA
ATOM      4  C   UNL     1       6.438   6.332   0.180  0.00  0.00    +0.209 A 
ATOM      5  N   UNL     1       6.926   7.572   0.476  0.00  0.00    -0.224 N 
ENDROOT
BRANCH   1  10
ATOM      6  C   UNL     1      12.121  11.680   1.223  0.00  0.00    +0.044 C 
ATOM      7  C   UNL     1      11.118  10.578   0.997  0.00  0.00    -0.050 A 
ATOM      8  C   UNL     1       9.829  10.709   1.482  0.00  0.00    +0.004 A 
ATOM      9  C   UNL     1       8.907   9.704   1.278  0.00  0.00    +0.012 A 
ATOM     10  C   UNL     1       9.276   8.552   0.581  0.00  0.00    +0.021 A 
ATOM     11  C   UNL     1      10.580   8.423   0.100  0.00  0.00    +0.012 A 
ATOM     12  C   UNL     1      11.492   9.438   0.306  0.00  0.00    +0.004 A 
ENDBRANCH   1  10
BRANCH   5  13
ATOM     13  N   UNL     1       6.207   8.682   0.817  0.00  0.00    -0.295 N 
ATOM     14  H   UNL     1       6.155   8.786   1.819  0.00  0.00    +0.163 HD
ATOM     15  H   UNL     1       6.593   9.509   0.387  0.00  0.00    +0.163 HD
ENDBRANCH   5  13
BRANCH   4  16
ATOM     16  S   UNL     1       4.742   5.852   0.165  0.00  0.00    -0.072 S 
BRANCH  16  17
ATOM     17  C   UNL     1       4.912   4.113  -0.307  0.00  0.00    +0.137 C 
ATOM     18  C   UNL     1       5.482   4.021  -1.724  0.00  0.00    +0.029 C 
BRANCH  17  19
ATOM     19  C   UNL     1       3.561   3.447  -0.266  0.00  0.00    +0.231 C 
ATOM     20  O   UNL     1       2.554   4.109  -0.402  0.00  0.00    -0.274 OA
ATOM     21  N   UNL     1       3.471   2.115  -0.077  0.00  0.00    -0.269 N 
ATOM     22  C   UNL     1       2.229   1.484  -0.143  0.00  0.00    +0.125 A 
ATOM     23  C   UNL     1       2.156   0.098  -0.056  0.00  0.00    +0.045 A 
ATOM     24  C   UNL     1       0.918  -0.516  -0.122  0.00  0.00    +0.025 A 
ATOM     25  C   UNL     1      -0.209   0.281  -0.275  0.00  0.00    +0.059 A 
ATOM     26  C   UNL     1      -0.062   1.652  -0.355  0.00  0.00    +0.132 A 
ATOM     27  N   UNL     1       1.132   2.209  -0.288  0.00  0.00    -0.239 NA
ATOM     28 CL   UNL     1      -1.787  -0.439  -0.364  0.00  0.00    -0.082 Cl
ATOM     29  H   UNL     1       4.270   1.596   0.104  0.00  0.00    +0.156 HD
ENDBRANCH  17  19
ENDBRANCH  16  17
ENDBRANCH   4  16
TORSDOF 5
