REMARK  Name = ZINC07001312
REMARK  9 active torsions:
REMARK  status: ('A' for Active; 'I' for Inactive)
REMARK    1  A    between atoms: C_1  and  C_2
REMARK    2  A    between atoms: C_3  and  C_11
REMARK    3  A    between atoms: C_4  and  N_10
REMARK    4  A    between atoms: N_5  and  C_7
REMARK    5  A    between atoms: C_7  and  C_8
REMARK    6  A    between atoms: C_8  and  O_9
REMARK    7  A    between atoms: C_11  and  O_28
REMARK    8  A    between atoms: N_18  and  C_21
REMARK    9  A    between atoms: C_21  and  C_22
REMARK                            x       y       z     vdW  Elec       q    Type
REMARK                         _______ _______ _______ _____ _____    ______ ____
ROOT
ATOM      1  C   UNL     1       0.025   1.966   0.130  0.00  0.00    +0.199 C 
ATOM      2  C   UNL     1       1.356   2.681   0.156  0.00  0.00    +0.019 A 
ATOM      3  C   UNL     1       1.706   4.011   0.093  0.00  0.00    +0.009 A 
ATOM      4  C   UNL     1       3.041   4.377   0.140  0.00  0.00    +0.000 A 
ATOM      5  C   UNL     1       4.017   3.403   0.249  0.00  0.00    +0.002 A 
ATOM      6  C   UNL     1       3.669   2.070   0.312  0.00  0.00    +0.024 A 
ATOM      7  C   UNL     1       2.328   1.694   0.266  0.00  0.00    +0.043 A 
ATOM      8  N   UNL     1       1.732   0.434   0.311  0.00  0.00    -0.264 N 
ATOM      9  C   UNL     1       0.392   0.502   0.238  0.00  0.00    +0.261 C 
ATOM     10  O   UNL     1      -0.379  -0.435   0.255  0.00  0.00    -0.271 OA
ENDROOT
BRANCH   1  13
ATOM     11  C   UNL     1      -3.115   2.121  -0.260  0.00  0.00    +0.068 C 
ATOM     12  C   UNL     1      -2.080   2.306  -1.340  0.00  0.00    +0.069 A 
ATOM     13  C   UNL     1      -0.695   2.237  -1.166  0.00  0.00    +0.059 A 
ATOM     14  C   UNL     1      -0.111   2.463  -2.375  0.00  0.00    +0.122 A 
ATOM     15  N   UNL     1      -1.101   2.659  -3.276  0.00  0.00    -0.248 N 
ATOM     16  N   UNL     1      -2.324   2.558  -2.600  0.00  0.00    -0.174 NA
BRANCH  14  17
ATOM     17  N   UNL     1       1.256   2.486  -2.638  0.00  0.00    -0.343 N 
ATOM     18  H   UNL     1       1.890   2.331  -1.921  0.00  0.00    +0.144 HD
ATOM     19  H   UNL     1       1.574   2.657  -3.538  0.00  0.00    +0.144 HD
ENDBRANCH  14  17
BRANCH  15  20
ATOM     20  C   UNL     1      -0.926   2.933  -4.704  0.00  0.00    +0.173 C 
BRANCH  20  21
ATOM     21  C   UNL     1      -0.830   4.444  -4.925  0.00  0.00    +0.179 C 
BRANCH  21  22
ATOM     22  O   UNL     1      -0.658   4.711  -6.319  0.00  0.00    -0.393 OA
ATOM     23  H   UNL     1      -0.590   5.652  -6.533  0.00  0.00    +0.209 HD
ENDBRANCH  21  22
ENDBRANCH  20  21
ENDBRANCH  15  20
ENDBRANCH   1  13
BRANCH   1  24
ATOM     24  O   UNL     1      -0.778   2.365   1.243  0.00  0.00    -0.371 OA
ATOM     25  H   UNL     1      -0.351   2.241   2.101  0.00  0.00    +0.212 HD
ENDBRANCH   1  24
BRANCH   8  26
ATOM     26  C   UNL     1       2.481  -0.820   0.426  0.00  0.00    +0.149 C 
BRANCH  26  27
ATOM     27  C   UNL     1       2.811  -1.336  -0.951  0.00  0.00    -0.030 A 
ATOM     28  C   UNL     1       1.938  -2.192  -1.596  0.00  0.00    +0.005 A 
ATOM     29  C   UNL     1       2.239  -2.662  -2.861  0.00  0.00    +0.000 A 
ATOM     30  C   UNL     1       3.417  -2.283  -3.476  0.00  0.00    +0.000 A 
ATOM     31  C   UNL     1       4.293  -1.431  -2.829  0.00  0.00    +0.000 A 
ATOM     32  C   UNL     1       3.990  -0.958  -1.566  0.00  0.00    +0.005 A 
ENDBRANCH  26  27
ENDBRANCH   8  26
TORSDOF 8
