REMARK  Name = ZINC04816031
REMARK  3 active torsions:
REMARK  status: ('A' for Active; 'I' for Inactive)
REMARK    1  A    between atoms: N_12  and  C_13
REMARK    2  A    between atoms: N_14  and  C_15
REMARK    3  A    between atoms: C_15  and  C_17
REMARK                            x       y       z     vdW  Elec       q    Type
REMARK                         _______ _______ _______ _____ _____    ______ ____
ROOT
ATOM      1  C   UNL     1       3.877  -4.053   2.190  0.00  0.00    +0.216 C 
ATOM      2  N   UNL     1       2.771  -4.698   1.822  0.00  0.00    -0.141 NA
ATOM      3  N   UNL     1       4.547  -4.432   3.326  0.00  0.00    -0.370 N 
ATOM      4  H   UNL     1       5.408  -4.039   3.535  0.00  0.00    +0.159 HD
ATOM      5  H   UNL     1       4.158  -5.093   3.920  0.00  0.00    +0.159 HD
ENDROOT
BRANCH   1  17
ATOM      6  C   UNL     1       0.131   0.077  -2.092  0.00  0.00    +0.001 A 
ATOM      7  C   UNL     1       1.149   1.005  -1.931  0.00  0.00    +0.001 A 
ATOM      8  C   UNL     1       2.389   0.604  -1.476  0.00  0.00    +0.016 A 
ATOM      9  C   UNL     1       2.613  -0.730  -1.178  0.00  0.00    +0.028 A 
ATOM     10  C   UNL     1       1.588  -1.679  -1.333  0.00  0.00    +0.053 A 
ATOM     11  C   UNL     1       0.338  -1.251  -1.799  0.00  0.00    +0.014 A 
ATOM     12  C   UNL     1       1.806  -3.092  -1.011  0.00  0.00    +0.259 A 
ATOM     13  O   UNL     1       1.026  -3.901  -1.476  0.00  0.00    -0.267 OA
ATOM     14  N   UNL     1       2.796  -3.558  -0.245  0.00  0.00    -0.301 N 
ATOM     15  H   UNL     1       2.839  -4.511  -0.067  0.00  0.00    +0.171 HD
ATOM     16  C   UNL     1       3.755  -2.740   0.298  0.00  0.00    +0.177 A 
ATOM     17  N   UNL     1       4.335  -3.036   1.452  0.00  0.00    -0.191 NA
ATOM     18  S   UNL     1       4.190  -1.276  -0.599  0.00  0.00    -0.051 S 
ENDBRANCH   1  17
BRANCH   2  19
ATOM     19  C   UNL     1       2.377  -5.784   2.492  0.00  0.00    +0.270 C 
ATOM     20  O   UNL     1       3.153  -6.708   2.666  0.00  0.00    -0.268 OA
BRANCH  19  21
ATOM     21  C   UNL     1       0.997  -5.866   3.024  0.00  0.00    +0.040 A 
ATOM     22  C   UNL     1       0.105  -4.812   2.822  0.00  0.00    +0.013 A 
ATOM     23  C   UNL     1      -1.179  -4.894   3.320  0.00  0.00    +0.002 A 
ATOM     24  C   UNL     1      -1.584  -6.017   4.018  0.00  0.00    +0.015 A 
ATOM     25  C   UNL     1      -0.704  -7.066   4.223  0.00  0.00    +0.019 A 
ATOM     26  C   UNL     1       0.582  -6.998   3.724  0.00  0.00    +0.028 A 
ATOM     27 BR   UNL     1      -1.266  -8.597   5.179  0.00  0.00    -0.050 Br
ENDBRANCH  19  21
ENDBRANCH   2  19
TORSDOF 3
