REMARK  Name = ZINC17914214
REMARK  6 active torsions:
REMARK  status: ('A' for Active; 'I' for Inactive)
REMARK    1  A    between atoms: C_3  and  N_25
REMARK    2  A    between atoms: C_4  and  N_22
REMARK    3  A    between atoms: C_6  and  C_7
REMARK    4  A    between atoms: N_9  and  C_10
REMARK    5  A    between atoms: C_10  and  C_11
REMARK    6  A    between atoms: N_13  and  C_14
REMARK                            x       y       z     vdW  Elec       q    Type
REMARK                         _______ _______ _______ _____ _____    ______ ____
ROOT
ATOM      1  C   UNL     1       0.377  -3.920  -0.636  0.00  0.00    +0.245 C 
ATOM      2  O   UNL     1      -0.626  -4.582  -0.455  0.00  0.00    -0.270 OA
ATOM      3  N   UNL     1       1.578  -4.526  -0.724  0.00  0.00    -0.303 N 
ATOM      4  H   UNL     1       2.378  -3.998  -0.869  0.00  0.00    +0.150 HD
ENDROOT
BRANCH   1  10
ATOM      5  C   UNL     1       1.433  -1.691  -0.969  0.00  0.00    +0.015 A 
ATOM      6  C   UNL     1       1.340  -0.322  -1.085  0.00  0.00    +0.026 A 
ATOM      7  C   UNL     1       0.099   0.302  -0.994  0.00  0.00    +0.055 A 
ATOM      8  C   UNL     1      -1.050  -0.454  -0.781  0.00  0.00    +0.147 A 
ATOM      9  C   UNL     1      -0.964  -1.823  -0.670  0.00  0.00    +0.047 A 
ATOM     10  C   UNL     1       0.281  -2.453  -0.760  0.00  0.00    +0.039 A 
BRANCH   8  11
ATOM     11  N   UNL     1      -2.367   0.214  -0.678  0.00  0.00    +0.058 N 
ATOM     12  O   UNL     1      -3.196  -0.193   0.115  0.00  0.00    -0.126 OA
ATOM     13  O   UNL     1      -2.620   1.172  -1.388  0.00  0.00    -0.126 OA
ENDBRANCH   8  11
BRANCH   7  14
ATOM     14  N   UNL     1       0.008   1.685  -1.111  0.00  0.00    -0.356 N 
ATOM     15  H   UNL     1       0.814   2.218  -1.198  0.00  0.00    +0.142 HD
ATOM     16  H   UNL     1      -0.861   2.115  -1.108  0.00  0.00    +0.142 HD
ENDBRANCH   7  14
ENDBRANCH   1  10
BRANCH   3  17
ATOM     17  C   UNL     1       1.674  -5.983  -0.601  0.00  0.00    +0.200 C 
BRANCH  17  18
ATOM     18  C   UNL     1       3.114  -6.404  -0.735  0.00  0.00    +0.234 C 
ATOM     19  O   UNL     1       3.976  -5.570  -0.915  0.00  0.00    -0.274 OA
ATOM     20  N   UNL     1       3.445  -7.708  -0.654  0.00  0.00    -0.284 N 
ATOM     21  H   UNL     1       2.750  -8.382  -0.585  0.00  0.00    +0.155 HD
BRANCH  20  22
ATOM     22  C   UNL     1       4.792  -8.091  -0.668  0.00  0.00    +0.036 A 
ATOM     23  C   UNL     1       5.167  -9.293  -1.256  0.00  0.00    +0.026 A 
ATOM     24  C   UNL     1       6.496  -9.667  -1.275  0.00  0.00    +0.043 A 
ATOM     25  C   UNL     1       7.455  -8.851  -0.699  0.00  0.00    +0.159 A 
ATOM     26  C   UNL     1       7.083  -7.654  -0.106  0.00  0.00    +0.160 A 
ATOM     27  C   UNL     1       5.753  -7.274  -0.090  0.00  0.00    +0.064 A 
ATOM     28  F   UNL     1       8.020  -6.859   0.456  0.00  0.00    -0.202 F 
ATOM     29  F   UNL     1       8.754  -9.222  -0.714  0.00  0.00    -0.202 F 
ENDBRANCH  20  22
ENDBRANCH  17  18
ENDBRANCH   3  17
TORSDOF 6
