REMARK  Name = ZINC37068763
REMARK  7 active torsions:
REMARK  status: ('A' for Active; 'I' for Inactive)
REMARK    1  A    between atoms: C_1  and  C_2
REMARK    2  A    between atoms: C_2  and  C_3
REMARK    3  A    between atoms: C_2  and  O_4
REMARK    4  A    between atoms: O_4  and  C_5
REMARK    5  A    between atoms: C_6  and  N_19
REMARK    6  A    between atoms: C_9  and  O_11
REMARK    7  A    between atoms: O_11  and  C_12
REMARK                            x       y       z     vdW  Elec       q    Type
REMARK                         _______ _______ _______ _____ _____    ______ ____
ROOT
ATOM      1  C   UNL     1      -0.096   0.141   2.121  0.00  0.00    +0.239 A 
ATOM      2  C   UNL     1       0.671  -0.323   3.188  0.00  0.00    +0.087 A 
ATOM      3  C   UNL     1       0.029  -0.783   4.332  0.00  0.00    +0.033 A 
ATOM      4  C   UNL     1      -1.357  -0.762   4.367  0.00  0.00    +0.069 A 
ATOM      5  C   UNL     1      -2.055  -0.286   3.268  0.00  0.00    +0.224 A 
ATOM      6  N   UNL     1      -1.416   0.151   2.194  0.00  0.00    -0.176 NA
ENDROOT
BRANCH   2   7
ATOM      7  N   UNL     1       2.071  -0.327   3.108  0.00  0.00    -0.354 N 
ATOM      8  H   UNL     1       2.512  -0.004   2.307  0.00  0.00    +0.142 HD
ATOM      9  H   UNL     1       2.598  -0.652   3.855  0.00  0.00    +0.142 HD
ENDBRANCH   2   7
BRANCH   1  10
ATOM     10  O   UNL     1       0.518   0.594   0.998  0.00  0.00    -0.472 OA
BRANCH  10  12
ATOM     11  C   UNL     1      -0.546   2.647   0.297  0.00  0.00    +0.051 C 
ATOM     12  C   UNL     1      -0.315   1.166  -0.012  0.00  0.00    +0.169 C 
ATOM     13  C   UNL     1       0.367   1.030  -1.374  0.00  0.00    +0.051 C 
ENDBRANCH  10  12
ENDBRANCH   1  10
BRANCH   5  14
ATOM     14  O   UNL     1      -3.413  -0.263   3.296  0.00  0.00    -0.438 OA
BRANCH  14  15
ATOM     15  C   UNL     1      -4.081  -0.726   2.207  0.00  0.00    +0.133 A 
ATOM     16  C   UNL     1      -3.384  -1.324   1.166  0.00  0.00    +0.046 A 
ATOM     17  C   UNL     1      -4.064  -1.794   0.060  0.00  0.00    +0.006 A 
ATOM     18  C   UNL     1      -5.440  -1.671  -0.012  0.00  0.00    +0.038 A 
ATOM     19  C   UNL     1      -6.138  -1.075   1.024  0.00  0.00    +0.127 A 
ATOM     20  C   UNL     1      -5.461  -0.607   2.137  0.00  0.00    +0.084 A 
ATOM     21  F   UNL     1      -7.482  -0.954   0.951  0.00  0.00    -0.205 F 
ENDBRANCH  14  15
ENDBRANCH   5  14
TORSDOF 5
