REMARK  Name = ZINC24726410
REMARK  10 active torsions:
REMARK  status: ('A' for Active; 'I' for Inactive)
REMARK    1  A    between atoms: C_1  and  C_2
REMARK    2  A    between atoms: C_2  and  C_4
REMARK    3  A    between atoms: C_2  and  C_21
REMARK    4  A    between atoms: C_4  and  N_5
REMARK    5  A    between atoms: C_6  and  C_8
REMARK    6  A    between atoms: C_8  and  C_10
REMARK    7  A    between atoms: C_8  and  S_11
REMARK    8  A    between atoms: S_11  and  C_12
REMARK    9  A    between atoms: C_15  and  C_19
REMARK   10  A    between atoms: C_16  and  N_18
REMARK                            x       y       z     vdW  Elec       q    Type
REMARK                         _______ _______ _______ _____ _____    ______ ____
ROOT
ATOM      1  C   UNL     1       1.278   2.115   0.001  0.00  0.00    +0.137 C 
ATOM      2  C   UNL     1       1.767   2.275  -1.440  0.00  0.00    +0.029 C 
ENDROOT
BRANCH   1   4
ATOM      3  N   UNL     1       0.002  -0.004   0.002  0.00  0.00    -0.314 N 
ATOM      4  C   UNL     1      -0.016   1.344   0.009  0.00  0.00    +0.226 C 
ATOM      5  O   UNL     1      -1.075   1.936   0.018  0.00  0.00    -0.275 OA
ATOM      6  H   UNL     1       0.962  -0.541  -0.010  0.00  0.00    +0.149 HD
BRANCH   3   7
ATOM      7  C   UNL     1      -1.256  -0.754   0.010  0.00  0.00    +0.112 C 
BRANCH   7   9
ATOM      8  C   UNL     1      -0.271  -2.628  -1.317  0.00  0.00    +0.014 C 
ATOM      9  C   UNL     1      -0.957  -2.254  -0.001  0.00  0.00    +0.033 C 
BRANCH   9  10
ATOM     10  C   UNL     1      -2.245  -3.025   0.131  0.00  0.00    -0.043 A 
ATOM     11  C   UNL     1      -3.242  -2.872  -0.814  0.00  0.00    +0.004 A 
ATOM     12  C   UNL     1      -4.422  -3.582  -0.696  0.00  0.00    +0.000 A 
ATOM     13  C   UNL     1      -4.608  -4.439   0.373  0.00  0.00    +0.000 A 
ATOM     14  C   UNL     1      -3.614  -4.588   1.322  0.00  0.00    +0.000 A 
ATOM     15  C   UNL     1      -2.432  -3.881   1.201  0.00  0.00    +0.004 A 
ENDBRANCH   9  10
ENDBRANCH   7   9
ENDBRANCH   3   7
ENDBRANCH   1   4
BRANCH   1  16
ATOM     16  S   UNL     1       1.012   3.748   0.734  0.00  0.00    -0.074 S 
BRANCH  16  17
ATOM     17  C   UNL     1       2.667   4.356   0.737  0.00  0.00    +0.191 A 
ATOM     18  N   UNL     1       3.636   3.583   0.261  0.00  0.00    -0.229 NA
ATOM     19  C   UNL     1       4.890   3.996   0.243  0.00  0.00    +0.136 A 
ATOM     20  C   UNL     1       5.194   5.270   0.735  0.00  0.00    +0.109 A 
ATOM     21  C   UNL     1       4.137   6.062   1.233  0.00  0.00    +0.138 A 
ATOM     22  N   UNL     1       2.904   5.571   1.209  0.00  0.00    -0.206 NA
BRANCH  21  23
ATOM     23  N   UNL     1       4.380   7.326   1.731  0.00  0.00    -0.342 N 
ATOM     24  H   UNL     1       3.549   7.934   2.117  0.00  0.00    +0.144 HD
ATOM     25  H   UNL     1       5.405   7.724   1.743  0.00  0.00    +0.144 HD
ENDBRANCH  21  23
BRANCH  20  26
ATOM     26  C   UNL     1       6.541   5.757   0.734  0.00  0.00    +0.104 C 
ATOM     27  N   UNL     1       7.609   6.143   0.733  0.00  0.00    -0.191 NA
ENDBRANCH  20  26
ENDBRANCH  16  17
ENDBRANCH   1  16
TORSDOF 8
