REMARK  Name = ZINC12752956
REMARK  12 active torsions:
REMARK  status: ('A' for Active; 'I' for Inactive)
REMARK    1  A    between atoms: C_1  and  C_2
REMARK    2  A    between atoms: C_2  and  C_3
REMARK    3  A    between atoms: C_6  and  O_9
REMARK    4  A    between atoms: O_9  and  C_10
REMARK    5  A    between atoms: C_10  and  C_11
REMARK    6  A    between atoms: N_13  and  N_14
REMARK    7  A    between atoms: C_15  and  C_17
REMARK    8  A    between atoms: C_18  and  C_28
REMARK    9  A    between atoms: C_19  and  C_24
REMARK   10  A    between atoms: C_20  and  C_23
REMARK   11  A    between atoms: C_24  and  O_26
REMARK   12  A    between atoms: O_26  and  C_27
REMARK                            x       y       z     vdW  Elec       q    Type
REMARK                         _______ _______ _______ _____ _____    ______ ____
ROOT
ATOM      1  N   UNL     1      -0.011   0.966   0.007  0.00  0.00    -0.229 N 
ATOM      2  C   UNL     1      -1.187   1.624   0.017  0.00  0.00    +0.277 C 
ATOM      3  O   UNL     1      -1.204   2.840   0.023  0.00  0.00    -0.267 OA
ATOM      4  H   UNL     1       0.002  -0.004   0.002  0.00  0.00    +0.173 HD
ENDROOT
BRANCH   2   5
ATOM      5  C   UNL     1      -2.449   0.873   0.018  0.00  0.00    +0.107 A 
ATOM      6  C   UNL     1      -3.700   1.413   0.033  0.00  0.00    -0.006 A 
ATOM      7  C   UNL     1      -4.616   0.337   0.025  0.00  0.00    +0.083 A 
ATOM      8  C   UNL     1      -3.872  -0.829   0.016  0.00  0.00    +0.028 A 
ATOM      9  N   UNL     1      -2.570  -0.500   0.012  0.00  0.00    -0.354 N 
ATOM     10  H   UNL     1      -1.832  -1.129   0.006  0.00  0.00    +0.166 HD
ATOM     11  C   UNL     1      -4.427  -2.230   0.012  0.00  0.00    +0.064 C 
ATOM     12  C   UNL     1      -4.042   2.881   0.050  0.00  0.00    +0.047 C 
BRANCH   7  13
ATOM     13  C   UNL     1      -6.085   0.437   0.033  0.00  0.00    +0.341 C 
ATOM     14  O   UNL     1      -6.686   0.473   1.089  0.00  0.00    -0.245 OA
BRANCH  13  15
ATOM     15  O   UNL     1      -6.763   0.489  -1.130  0.00  0.00    -0.464 OA
ATOM     16  C   UNL     1      -8.209   0.588  -1.046  0.00  0.00    +0.280 C 
ENDBRANCH  13  15
ENDBRANCH   7  13
ENDBRANCH   2   5
BRANCH   1  19
ATOM     17  C   UNL     1       2.369   1.025  -0.015  0.00  0.00    +0.267 C 
ATOM     18  O   UNL     1       2.385  -0.188  -0.022  0.00  0.00    -0.271 OA
ATOM     19  N   UNL     1       1.193   1.683  -0.000  0.00  0.00    -0.231 N 
ATOM     20  H   UNL     1       1.179   2.653   0.005  0.00  0.00    +0.173 HD
BRANCH  17  21
ATOM     21  C   UNL     1       3.663   1.796  -0.023  0.00  0.00    +0.326 C 
BRANCH  21  22
ATOM     22  O   UNL     1       4.762   0.882  -0.039  0.00  0.00    -0.483 OA
BRANCH  22  26
ATOM     23  C   UNL     1       8.552   2.511  -0.066  0.00  0.00    -0.047 A 
ATOM     24  C   UNL     1       8.391   1.138  -0.072  0.00  0.00    +0.007 A 
ATOM     25  C   UNL     1       7.123   0.590  -0.063  0.00  0.00    +0.046 A 
ATOM     26  C   UNL     1       6.011   1.419  -0.048  0.00  0.00    +0.121 A 
ATOM     27  C   UNL     1       6.175   2.796  -0.048  0.00  0.00    +0.046 A 
ATOM     28  C   UNL     1       7.445   3.339  -0.051  0.00  0.00    +0.007 A 
BRANCH  23  30
ATOM     29  C   UNL     1      10.392   3.315  -1.522  0.00  0.00    +0.009 C 
ATOM     30  C   UNL     1       9.937   3.106  -0.076  0.00  0.00    +0.032 C 
ENDBRANCH  23  30
ENDBRANCH  22  26
ENDBRANCH  21  22
ENDBRANCH  17  21
ENDBRANCH   1  19
TORSDOF 8
