REMARK  Name = ZINC66641116
REMARK  7 active torsions:
REMARK  status: ('A' for Active; 'I' for Inactive)
REMARK    1  A    between atoms: C_1  and  C_2
REMARK    2  A    between atoms: C_2  and  C_4
REMARK    3  A    between atoms: C_2  and  N_17
REMARK    4  A    between atoms: C_4  and  C_5
REMARK    5  A    between atoms: N_7  and  N_8
REMARK    6  A    between atoms: N_11  and  C_12
REMARK    7  A    between atoms: C_18  and  C_20
REMARK                            x       y       z     vdW  Elec       q    Type
REMARK                         _______ _______ _______ _____ _____    ______ ____
ROOT
ATOM      1  C   UNL     1       0.657  -2.014   1.298  0.00  0.00    +0.231 C 
ATOM      2  O   UNL     1       0.062  -2.621   0.432  0.00  0.00    -0.274 OA
ATOM      3  N   UNL     1       1.241  -2.685   2.311  0.00  0.00    -0.233 N 
ATOM      4  H   UNL     1       1.716  -2.200   3.003  0.00  0.00    +0.173 HD
ENDROOT
BRANCH   3   5
ATOM      5  N   UNL     1       1.161  -4.083   2.363  0.00  0.00    -0.218 N 
ATOM      6  C   UNL     1       1.745  -4.754   3.375  0.00  0.00    +0.316 C 
ATOM      7  O   UNL     1       1.676  -5.967   3.421  0.00  0.00    -0.251 OA
ATOM      8  N   UNL     1       2.406  -4.080   4.338  0.00  0.00    -0.295 N 
ATOM      9  H   UNL     1       0.686  -4.568   1.670  0.00  0.00    +0.174 HD
ATOM     10  H   UNL     1       2.461  -3.112   4.302  0.00  0.00    +0.151 HD
BRANCH   8  11
ATOM     11  C   UNL     1       3.040  -4.809   5.439  0.00  0.00    +0.074 C 
ATOM     12  C   UNL     1       2.029  -5.021   6.584  0.00  0.00    +0.022 C 
ATOM     13  C   UNL     1       2.876  -4.862   7.872  0.00  0.00    +0.002 C 
ATOM     14  C   UNL     1       3.850  -3.717   7.502  0.00  0.00    +0.002 C 
ATOM     15  C   UNL     1       4.198  -3.979   6.022  0.00  0.00    +0.022 C 
ENDBRANCH   8  11
ENDBRANCH   3   5
BRANCH   1  16
ATOM     16  C   UNL     1       0.742  -0.511   1.242  0.00  0.00    +0.119 C 
BRANCH  16  18
ATOM     17  C   UNL     1      -0.019   1.526   0.010  0.00  0.00    +0.028 C 
ATOM     18  C   UNL     1       0.002  -0.004   0.002  0.00  0.00    +0.079 C 
BRANCH  18  19
ATOM     19  N   UNL     1       0.688  -0.476  -1.203  0.00  0.00    -0.312 N 
ATOM     20  C   UNL     1       0.006  -0.608  -2.358  0.00  0.00    +0.216 C 
ATOM     21  O   UNL     1      -1.175  -0.336  -2.400  0.00  0.00    -0.276 OA
ATOM     22  H   UNL     1       1.632  -0.695  -1.170  0.00  0.00    +0.149 HD
BRANCH  20  23
ATOM     23  C   UNL     1       0.712  -1.094  -3.598  0.00  0.00    +0.075 C 
ATOM     24  C   UNL     1       1.849  -0.133  -3.948  0.00  0.00    +0.013 C 
ATOM     25  C   UNL     1       2.565  -0.626  -5.207  0.00  0.00    +0.001 C 
ATOM     26  C   UNL     1       1.572  -0.685  -6.369  0.00  0.00    +0.000 C 
ATOM     27  C   UNL     1       0.434  -1.646  -6.019  0.00  0.00    +0.001 C 
ATOM     28  C   UNL     1      -0.282  -1.153  -4.761  0.00  0.00    +0.013 C 
ENDBRANCH  20  23
ENDBRANCH  18  19
ENDBRANCH  16  18
ENDBRANCH   1  16
TORSDOF 6
