REMARK  Name = ZINC40009612
REMARK  9 active torsions:
REMARK  status: ('A' for Active; 'I' for Inactive)
REMARK    1  A    between atoms: C_1  and  C_2
REMARK    2  A    between atoms: C_2  and  C_3
REMARK    3  A    between atoms: C_2  and  C_4
REMARK    4  A    between atoms: C_4  and  C_6
REMARK    5  A    between atoms: C_4  and  N_24
REMARK    6  A    between atoms: N_8  and  C_9
REMARK    7  A    between atoms: C_9  and  C_10
REMARK    8  A    between atoms: C_13  and  O_16
REMARK    9  A    between atoms: O_16  and  C_17
REMARK                            x       y       z     vdW  Elec       q    Type
REMARK                         _______ _______ _______ _____ _____    ______ ____
ROOT
ATOM      1  C   UNL     1      -3.303   0.737  -2.222  0.00  0.00    +0.234 C 
ATOM      2  O   UNL     1      -4.399   1.213  -2.432  0.00  0.00    -0.274 OA
ATOM      3  N   UNL     1      -2.604   0.182  -3.232  0.00  0.00    -0.310 N 
ATOM      4  H   UNL     1      -1.728  -0.198  -3.065  0.00  0.00    +0.149 HD
ENDROOT
BRANCH   1   5
ATOM      5  C   UNL     1      -2.722   0.767  -0.832  0.00  0.00    +0.163 C 
BRANCH   5   6
ATOM      6  N   UNL     1      -3.668   1.418   0.079  0.00  0.00    -0.288 N 
ATOM      7  C   UNL     1      -3.637   1.136   1.396  0.00  0.00    +0.298 C 
ATOM      8  O   UNL     1      -2.824   0.342   1.829  0.00  0.00    -0.253 OA
ATOM      9  N   UNL     1      -4.507   1.734   2.234  0.00  0.00    -0.313 N 
ATOM     10  H   UNL     1      -4.316   2.051  -0.267  0.00  0.00    +0.151 HD
ATOM     11  H   UNL     1      -5.156   2.368   1.888  0.00  0.00    +0.146 HD
ATOM     12  H   UNL     1      -4.485   1.532   3.182  0.00  0.00    +0.146 HD
ENDBRANCH   5   6
BRANCH   5  14
ATOM     13  C   UNL     1      -1.687   3.011  -1.198  0.00  0.00    +0.009 C 
ATOM     14  C   UNL     1      -1.407   1.549  -0.845  0.00  0.00    +0.012 C 
ATOM     15  C   UNL     1      -0.755   1.474   0.537  0.00  0.00    +0.009 C 
ENDBRANCH   5  14
ENDBRANCH   1   5
BRANCH   3  16
ATOM     16  C   UNL     1      -3.169   0.153  -4.584  0.00  0.00    +0.139 C 
BRANCH  16  17
ATOM     17  C   UNL     1      -2.196  -0.516  -5.521  0.00  0.00    -0.030 A 
ATOM     18  C   UNL     1      -1.242   0.238  -6.179  0.00  0.00    +0.009 A 
ATOM     19  C   UNL     1      -0.349  -0.372  -7.038  0.00  0.00    +0.046 A 
ATOM     20  C   UNL     1      -0.410  -1.744  -7.240  0.00  0.00    +0.128 A 
ATOM     21  C   UNL     1      -1.369  -2.498  -6.578  0.00  0.00    +0.046 A 
ATOM     22  C   UNL     1      -2.256  -1.883  -5.716  0.00  0.00    +0.009 A 
BRANCH  20  23
ATOM     23  O   UNL     1       0.466  -2.347  -8.085  0.00  0.00    -0.456 OA
BRANCH  23  24
ATOM     24  C   UNL     1       1.392  -1.569  -8.706  0.00  0.00    +0.129 A 
ATOM     25  C   UNL     1       2.625  -1.348  -8.110  0.00  0.00    +0.049 A 
ATOM     26  C   UNL     1       3.565  -0.558  -8.742  0.00  0.00    +0.042 A 
ATOM     27  C   UNL     1       3.277   0.013  -9.970  0.00  0.00    +0.124 A 
ATOM     28  C   UNL     1       2.047  -0.206 -10.566  0.00  0.00    +0.042 A 
ATOM     29  C   UNL     1       1.107  -1.001  -9.939  0.00  0.00    +0.049 A 
ATOM     30  F   UNL     1       4.197   0.787 -10.587  0.00  0.00    -0.205 F 
ENDBRANCH  23  24
ENDBRANCH  20  23
ENDBRANCH  16  17
ENDBRANCH   3  16
TORSDOF 7
