REMARK  Name = ZINC13020579
REMARK  9 active torsions:
REMARK  status: ('A' for Active; 'I' for Inactive)
REMARK    1  A    between atoms: C_1  and  C_2
REMARK    2  A    between atoms: C_5  and  C_8
REMARK    3  A    between atoms: C_11  and  S_16
REMARK    4  A    between atoms: N_12  and  C_13
REMARK    5  A    between atoms: C_13  and  C_14
REMARK    6  A    between atoms: S_16  and  C_17
REMARK    7  A    between atoms: C_17  and  C_19
REMARK    8  A    between atoms: C_17  and  C_20
REMARK    9  A    between atoms: N_22  and  C_23
REMARK                            x       y       z     vdW  Elec       q    Type
REMARK                         _______ _______ _______ _____ _____    ______ ____
ROOT
ATOM      1  C   UNL     1      -7.053   0.273   1.284  0.00  0.00    +0.165 A 
ATOM      2  N   UNL     1      -6.259  -0.692   0.882  0.00  0.00    -0.128 NA
ATOM      3  N   UNL     1      -5.086  -0.224   0.645  0.00  0.00    -0.122 NA
ATOM      4  C   UNL     1      -5.059   1.069   0.882  0.00  0.00    +0.193 A 
ATOM      5  N   UNL     1      -6.307   1.429   1.302  0.00  0.00    -0.291 N 
ENDROOT
BRANCH   1  10
ATOM      6  C   UNL     1     -12.601  -0.240   2.723  0.00  0.00    +0.044 C 
ATOM      7  C   UNL     1     -11.148  -0.106   2.346  0.00  0.00    -0.050 A 
ATOM      8  C   UNL     1     -10.636   1.134   2.008  0.00  0.00    +0.004 A 
ATOM      9  C   UNL     1      -9.307   1.264   1.662  0.00  0.00    +0.012 A 
ATOM     10  C   UNL     1      -8.478   0.141   1.654  0.00  0.00    +0.019 A 
ATOM     11  C   UNL     1      -9.002  -1.108   1.992  0.00  0.00    +0.012 A 
ATOM     12  C   UNL     1     -10.332  -1.223   2.341  0.00  0.00    +0.004 A 
ENDBRANCH   1  10
BRANCH   5  13
ATOM     13  C   UNL     1      -6.758   2.768   1.690  0.00  0.00    +0.250 C 
BRANCH  13  14
ATOM     14  C   UNL     1      -7.182   3.530   0.460  0.00  0.00    +0.375 C 
ATOM     15  O   UNL     1      -7.113   3.009  -0.627  0.00  0.00    -0.244 OA
ATOM     16  O   UNL     1      -7.635   4.789   0.574  0.00  0.00    -0.244 OA
ENDBRANCH  13  14
ENDBRANCH   5  13
BRANCH   4  17
ATOM     17  S   UNL     1      -3.669   2.136   0.699  0.00  0.00    -0.073 S 
BRANCH  17  18
ATOM     18  C   UNL     1      -2.431   0.945   0.129  0.00  0.00    +0.137 C 
ATOM     19  C   UNL     1      -2.841   0.398  -1.240  0.00  0.00    +0.029 C 
BRANCH  18  20
ATOM     20  C   UNL     1      -1.092   1.627   0.018  0.00  0.00    +0.230 C 
ATOM     21  O   UNL     1      -1.032   2.836  -0.065  0.00  0.00    -0.274 OA
ATOM     22  N   UNL     1       0.039   0.894   0.009  0.00  0.00    -0.282 N 
ATOM     23  H   UNL     1      -0.011  -0.075  -0.009  0.00  0.00    +0.155 HD
BRANCH  22  24
ATOM     24  C   UNL     1       1.286   1.531   0.021  0.00  0.00    +0.072 A 
ATOM     25  C   UNL     1       1.409   2.811   0.542  0.00  0.00    +0.064 A 
ATOM     26  C   UNL     1       2.642   3.437   0.553  0.00  0.00    +0.125 A 
ATOM     27  C   UNL     1       3.754   2.788   0.043  0.00  0.00    +0.041 A 
ATOM     28  C   UNL     1       3.635   1.513  -0.477  0.00  0.00    +0.043 A 
ATOM     29  C   UNL     1       2.406   0.879  -0.485  0.00  0.00    +0.145 A 
ATOM     30  F   UNL     1       2.292  -0.369  -0.989  0.00  0.00    -0.204 F 
ATOM     31  F   UNL     1       2.762   4.683   1.061  0.00  0.00    -0.205 F 
ENDBRANCH  22  24
ENDBRANCH  18  20
ENDBRANCH  17  18
ENDBRANCH   4  17
TORSDOF 7
