REMARK  Name = ZINC39662379
REMARK  6 active torsions:
REMARK  status: ('A' for Active; 'I' for Inactive)
REMARK    1  A    between atoms: C_1  and  C_2
REMARK    2  A    between atoms: C_2  and  C_8
REMARK    3  A    between atoms: C_12  and  C_21
REMARK    4  A    between atoms: N_23  and  C_24
REMARK    5  A    between atoms: C_24  and  C_26
REMARK    6  A    between atoms: C_24  and  C_28
REMARK                            x       y       z     vdW  Elec       q    Type
REMARK                         _______ _______ _______ _____ _____    ______ ____
ROOT
ATOM      1  C   UNL     1      -1.048  -0.043  -0.192  0.00  0.00    +0.222 C 
ATOM      2  O   UNL     1      -1.373  -0.625   0.821  0.00  0.00    -0.275 OA
ATOM      3  N   UNL     1      -1.946   0.149  -1.178  0.00  0.00    -0.300 N 
ATOM      4  C   UNL     1      -1.712   0.731  -2.520  0.00  0.00    +0.121 C 
ATOM      5  C   UNL     1      -2.579  -0.123  -3.473  0.00  0.00    +0.100 C 
ATOM      6  C   UNL     1      -3.681  -0.714  -2.578  0.00  0.00    -0.004 C 
ATOM      7  C   UNL     1      -3.392  -0.181  -1.167  0.00  0.00    +0.115 C 
ATOM      8  C   UNL     1      -3.607  -2.237  -2.586  0.00  0.00    -0.010 C 
ATOM      9  C   UNL     1      -4.748  -2.803  -1.734  0.00  0.00    -0.082 C 
ATOM     10  N   UNL     1      -6.035  -2.352  -2.276  0.00  0.00    +0.379 N 
ATOM     11  C   UNL     1      -6.135  -0.891  -2.180  0.00  0.00    -0.082 C 
ATOM     12  C   UNL     1      -5.053  -0.244  -3.049  0.00  0.00    -0.010 C 
ATOM     13  H   UNL     1      -6.107  -2.629  -3.244  0.00  0.00    -0.086 HD
ATOM     14  H   UNL     1      -6.786  -2.775  -1.751  0.00  0.00    -0.086 HD
ENDROOT
BRANCH   1  16
ATOM     15  C   UNL     1       1.070  -0.322  -1.452  0.00  0.00    +0.021 C 
ATOM     16  C   UNL     1       0.362   0.467  -0.349  0.00  0.00    +0.044 C 
ATOM     17  C   UNL     1       1.118   0.289   0.970  0.00  0.00    +0.016 C 
ATOM     18  C   UNL     1       0.410   1.078   2.073  0.00  0.00    +0.001 C 
ATOM     19  C   UNL     1       0.378   2.562   1.700  0.00  0.00    +0.000 C 
ATOM     20  C   UNL     1      -0.378   2.739   0.381  0.00  0.00    +0.001 C 
ATOM     21  C   UNL     1       0.330   1.950  -0.723  0.00  0.00    +0.016 C 
ENDBRANCH   1  16
BRANCH   5  22
ATOM     22  C   UNL     1      -1.753  -1.223  -4.088  0.00  0.00    +0.219 C 
ATOM     23  O   UNL     1      -0.865  -1.745  -3.449  0.00  0.00    -0.275 OA
ATOM     24  N   UNL     1      -2.002  -1.627  -5.350  0.00  0.00    -0.296 N 
ATOM     25  H   UNL     1      -2.712  -1.210  -5.862  0.00  0.00    +0.150 HD
BRANCH  24  26
ATOM     26  C   UNL     1      -1.199  -2.697  -5.948  0.00  0.00    +0.207 C 
BRANCH  26  27
ATOM     27  C   UNL     1      -1.217  -2.559  -7.449  0.00  0.00    -0.013 A 
ATOM     28  C   UNL     1      -2.384  -2.199  -8.096  0.00  0.00    +0.006 A 
ATOM     29  C   UNL     1      -2.400  -2.072  -9.473  0.00  0.00    +0.000 A 
ATOM     30  C   UNL     1      -1.249  -2.305 -10.201  0.00  0.00    +0.000 A 
ATOM     31  C   UNL     1      -0.081  -2.664  -9.554  0.00  0.00    +0.000 A 
ATOM     32  C   UNL     1      -0.064  -2.786  -8.177  0.00  0.00    +0.006 A 
ENDBRANCH  26  27
BRANCH  26  33
ATOM     33  C   UNL     1      -1.762  -4.003  -5.569  0.00  0.00    +0.090 C 
ATOM     34  N   UNL     1      -2.196  -5.011  -5.277  0.00  0.00    -0.194 NA
ENDBRANCH  26  33
ENDBRANCH  24  26
ENDBRANCH   5  22
TORSDOF 5
