REMARK  Name = ZINC59802511
REMARK  14 active torsions:
REMARK  status: ('A' for Active; 'I' for Inactive)
REMARK    1  A    between atoms: C_1  and  C_2
REMARK    2  A    between atoms: C_2  and  C_4
REMARK    3  A    between atoms: C_2  and  N_11
REMARK    4  A    between atoms: C_12  and  C_14
REMARK    5  A    between atoms: C_14  and  N_15
REMARK    6  A    between atoms: N_15  and  C_16
REMARK    7  A    between atoms: C_19  and  N_24
REMARK    8  A    between atoms: C_20  and  O_22
REMARK    9  A    between atoms: O_22  and  C_23
REMARK   10  A    between atoms: C_25  and  O_27
REMARK   11  A    between atoms: O_27  and  C_28
REMARK   12  A    between atoms: C_28  and  C_29
REMARK   13  A    between atoms: C_28  and  C_30
REMARK   14  A    between atoms: C_28  and  C_31
REMARK                            x       y       z     vdW  Elec       q    Type
REMARK                         _______ _______ _______ _____ _____    ______ ____
ROOT
ATOM      1  C   UNL     1       0.307  -1.675   5.941  0.00  0.00    +0.031 A 
ATOM      2  C   UNL     1       1.636  -2.038   6.119  0.00  0.00    +0.025 A 
ATOM      3  C   UNL     1       2.080  -2.458   7.358  0.00  0.00    +0.029 A 
ATOM      4  C   UNL     1       1.199  -2.520   8.427  0.00  0.00    +0.078 A 
ATOM      5  C   UNL     1      -0.135  -2.157   8.252  0.00  0.00    +0.143 A 
ATOM      6  C   UNL     1      -0.577  -1.730   7.011  0.00  0.00    +0.070 A 
ENDROOT
BRANCH   4   7
ATOM      7  N   UNL     1       1.651  -2.948   9.686  0.00  0.00    -0.248 N 
ATOM      8  C   UNL     1       2.952  -2.824  10.012  0.00  0.00    +0.405 C 
ATOM      9  O   UNL     1       3.715  -2.250   9.261  0.00  0.00    -0.226 OA
ATOM     10  H   UNL     1       1.026  -3.333  10.320  0.00  0.00    +0.158 HD
BRANCH   8  11
ATOM     11  O   UNL     1       3.407  -3.337  11.171  0.00  0.00    -0.444 OA
BRANCH  11  12
ATOM     12  C   UNL     1       4.798  -3.169  11.453  0.00  0.00    +0.107 C 
ATOM     13  C   UNL     1       5.131  -1.676  11.505  0.00  0.00    +0.055 C 
ATOM     14  C   UNL     1       5.126  -3.811  12.803  0.00  0.00    +0.055 C 
ATOM     15  C   UNL     1       5.626  -3.838  10.355  0.00  0.00    +0.055 C 
ENDBRANCH  11  12
ENDBRANCH   8  11
ENDBRANCH   4   7
BRANCH   1  16
ATOM     16  N   UNL     1      -0.140  -1.249   4.686  0.00  0.00    -0.335 N 
ATOM     17  H   UNL     1      -1.067  -0.993   4.563  0.00  0.00    +0.147 HD
BRANCH  16  18
ATOM     18  C   UNL     1       0.792  -1.191   3.558  0.00  0.00    +0.197 C 
BRANCH  18  20
ATOM     19  N   UNL     1       0.728  -0.571   1.164  0.00  0.00    -0.307 N 
ATOM     20  C   UNL     1       0.066  -0.704   2.330  0.00  0.00    +0.231 C 
ATOM     21  O   UNL     1      -1.115  -0.432   2.392  0.00  0.00    -0.274 OA
ATOM     22  H   UNL     1       1.672  -0.788   1.114  0.00  0.00    +0.149 HD
BRANCH  19  24
ATOM     23  C   UNL     1      -0.001   1.433  -0.035  0.00  0.00    +0.033 C 
ATOM     24  C   UNL     1       0.021  -0.097  -0.029  0.00  0.00    +0.100 C 
BRANCH  24  25
ATOM     25  C   UNL     1       0.730  -0.594  -1.263  0.00  0.00    -0.027 A 
ATOM     26  C   UNL     1       2.111  -0.614  -1.305  0.00  0.00    +0.007 A 
ATOM     27  C   UNL     1       2.762  -1.070  -2.436  0.00  0.00    +0.020 A 
ATOM     28  C   UNL     1       2.030  -1.506  -3.526  0.00  0.00    +0.041 A 
ATOM     29  C   UNL     1       0.647  -1.486  -3.483  0.00  0.00    +0.020 A 
ATOM     30  C   UNL     1      -0.002  -1.035  -2.349  0.00  0.00    +0.007 A 
ATOM     31 CL   UNL     1       2.846  -2.078  -4.948  0.00  0.00    -0.084 Cl
ENDBRANCH  24  25
ENDBRANCH  19  24
ENDBRANCH  18  20
ENDBRANCH  16  18
ENDBRANCH   1  16
BRANCH   5  32
ATOM     32  O   UNL     1      -1.000  -2.217   9.299  0.00  0.00    -0.493 OA
ATOM     33  C   UNL     1      -2.352  -1.830   9.047  0.00  0.00    +0.277 C 
ENDBRANCH   5  32
TORSDOF 9
