REMARK  Name = ZINC23506704
REMARK  7 active torsions:
REMARK  status: ('A' for Active; 'I' for Inactive)
REMARK    1  A    between atoms: C_1  and  C_2
REMARK    2  A    between atoms: C_4  and  C_28
REMARK    3  A    between atoms: C_5  and  N_23
REMARK    4  A    between atoms: C_6  and  C_8
REMARK    5  A    between atoms: C_8  and  N_9
REMARK    6  A    between atoms: C_13  and  C_15
REMARK    7  A    between atoms: C_18  and  C_20
REMARK                            x       y       z     vdW  Elec       q    Type
REMARK                         _______ _______ _______ _____ _____    ______ ____
ROOT
ATOM      1  N   UNL     1       0.380   5.812  -1.362  0.00  0.00    +0.387 N 
ATOM      2  C   UNL     1       1.824   5.686  -1.686  0.00  0.00    -0.078 C 
ATOM      3  C   UNL     1       2.050   6.678  -2.848  0.00  0.00    -0.020 C 
ATOM      4  C   UNL     1       0.918   7.718  -2.713  0.00  0.00    -0.012 C 
ATOM      5  C   UNL     1       0.104   7.267  -1.481  0.00  0.00    -0.030 C 
ATOM      6  H   UNL     1      -0.259   5.203  -2.019  0.00  0.00    -0.080 HD
ENDROOT
BRANCH   5   7
ATOM      7  C   UNL     1      -1.366   7.507  -1.707  0.00  0.00    -0.023 A 
ATOM      8  C   UNL     1      -2.153   8.482  -1.181  0.00  0.00    +0.010 A 
ATOM      9  C   UNL     1      -3.483   8.525  -1.518  0.00  0.00    +0.021 A 
ATOM     10  C   UNL     1      -3.945   7.552  -2.390  0.00  0.00    +0.074 A 
ATOM     11  S   UNL     1      -2.463   6.610  -2.706  0.00  0.00    -0.090 S 
BRANCH  10  12
ATOM     12  C   UNL     1      -5.297   7.352  -2.919  0.00  0.00    +0.248 C 
ATOM     13  O   UNL     1      -6.195   8.106  -2.593  0.00  0.00    -0.270 OA
ATOM     14  N   UNL     1      -5.546   6.333  -3.765  0.00  0.00    -0.325 N 
ATOM     15  H   UNL     1      -6.561   6.183  -4.162  0.00  0.00    +0.145 HD
ATOM     16  H   UNL     1      -4.734   5.652  -4.060  0.00  0.00    +0.145 HD
ENDBRANCH  10  12
ENDBRANCH   5   7
BRANCH   1  17
ATOM     17  C   UNL     1       0.102   5.333  -0.001  0.00  0.00    -0.040 C 
BRANCH  17  23
ATOM     18  C   UNL     1      -2.681   1.182  -0.241  0.00  0.00    +0.044 C 
ATOM     19  C   UNL     1      -1.331   1.843  -0.124  0.00  0.00    -0.050 A 
ATOM     20  C   UNL     1      -0.190   1.067  -0.024  0.00  0.00    +0.008 A 
ATOM     21  C   UNL     1       1.048   1.670   0.079  0.00  0.00    -0.025 A 
ATOM     22  C   UNL     1       1.147   3.055   0.086  0.00  0.00    +0.070 A 
ATOM     23  C   UNL     1      -0.001   3.830  -0.009  0.00  0.00    -0.038 A 
ATOM     24  C   UNL     1      -1.237   3.222  -0.111  0.00  0.00    +0.007 A 
ATOM     25  C   UNL     1       2.292   0.824   0.181  0.00  0.00    +0.046 C 
BRANCH  22  26
ATOM     26  N   UNL     1       2.403   3.669   0.190  0.00  0.00    -0.239 N 
ATOM     27  C   UNL     1       3.490   3.389  -0.564  0.00  0.00    +0.114 A 
ATOM     28  C   UNL     1       4.494   4.199  -0.155  0.00  0.00    +0.041 A 
ATOM     29  C   UNL     1       4.008   4.994   0.889  0.00  0.00    +0.135 A 
ATOM     30  N   UNL     1       2.755   4.677   1.096  0.00  0.00    -0.175 NA
ENDBRANCH  22  26
ENDBRANCH  17  23
ENDBRANCH   1  17
TORSDOF 5
