REMARK  Name = ZINC04233341
REMARK  8 active torsions:
REMARK  status: ('A' for Active; 'I' for Inactive)
REMARK    1  A    between atoms: C_1  and  C_2
REMARK    2  A    between atoms: C_2  and  C_3
REMARK    3  A    between atoms: C_2  and  C_4
REMARK    4  A    between atoms: C_4  and  N_6
REMARK    5  A    between atoms: N_8  and  C_20
REMARK    6  A    between atoms: C_12  and  N_16
REMARK    7  A    between atoms: C_17  and  C_19
REMARK    8  A    between atoms: C_20  and  C_21
REMARK                            x       y       z     vdW  Elec       q    Type
REMARK                         _______ _______ _______ _____ _____    ______ ____
ROOT
ATOM      1  N   UNL     1      -7.479   2.284   0.687  0.00  0.00    -0.156 NA
ATOM      2  C   UNL     1      -6.167   2.094   0.565  0.00  0.00    +0.167 A 
ATOM      3  N   UNL     1      -5.191   3.028   0.420  0.00  0.00    -0.317 N 
ATOM      4  C   UNL     1      -3.868   2.637   0.308  0.00  0.00    +0.058 A 
ATOM      5  C   UNL     1      -2.732   3.448   0.153  0.00  0.00    +0.029 A 
ATOM      6  C   UNL     1      -1.478   2.894   0.061  0.00  0.00    +0.025 A 
ATOM      7  C   UNL     1      -1.296   1.516   0.107  0.00  0.00    +0.035 A 
ATOM      8  C   UNL     1      -2.404   0.692   0.260  0.00  0.00    +0.040 A 
ATOM      9  C   UNL     1      -3.655   1.252   0.357  0.00  0.00    +0.041 A 
ATOM     10  S   UNL     1      -5.293   0.596   0.554  0.00  0.00    -0.052 S 
ENDROOT
BRANCH   7  11
ATOM     11  N   UNL     1      -0.011   0.966   0.007  0.00  0.00    -0.286 N 
ATOM     12  C   UNL     1       0.922   1.568  -0.757  0.00  0.00    +0.214 C 
ATOM     13  O   UNL     1       0.625   2.532  -1.430  0.00  0.00    -0.276 OA
ATOM     14  C   UNL     1       2.334   1.043  -0.775  0.00  0.00    +0.109 C 
ATOM     15  H   UNL     1       0.206   0.150   0.485  0.00  0.00    +0.155 HD
ENDBRANCH   7  11
BRANCH   1  16
ATOM     16  C   UNL     1      -8.291   1.241   0.821  0.00  0.00    +0.241 C 
ATOM     17  O   UNL     1      -7.836   0.113   0.833  0.00  0.00    -0.273 OA
BRANCH  16  19
ATOM     18  C   UNL     1     -10.305   2.178  -0.282  0.00  0.00    +0.017 C 
ATOM     19  C   UNL     1      -9.777   1.455   0.959  0.00  0.00    +0.071 C 
ATOM     20  C   UNL     1     -10.477   0.102   1.097  0.00  0.00    +0.017 C 
ENDBRANCH  16  19
ENDBRANCH   1  16
BRANCH   3  21
ATOM     21  C   UNL     1      -5.539   4.450   0.383  0.00  0.00    +0.151 C 
BRANCH  21  22
ATOM     22  C   UNL     1      -6.918   4.614  -0.203  0.00  0.00    -0.013 C 
ATOM     23  C   UNL     1      -7.840   5.263   0.465  0.00  0.00    +0.005 C 
ENDBRANCH  21  22
ENDBRANCH   3  21
TORSDOF 5
