REMARK  Name = ZINC52095906
REMARK  5 active torsions:
REMARK  status: ('A' for Active; 'I' for Inactive)
REMARK    1  A    between atoms: C_1  and  N_2
REMARK    2  A    between atoms: C_4  and  S_7
REMARK    3  A    between atoms: S_7  and  N_10
REMARK    4  A    between atoms: N_10  and  C_11
REMARK    5  A    between atoms: C_13  and  N_18
REMARK                            x       y       z     vdW  Elec       q    Type
REMARK                         _______ _______ _______ _____ _____    ______ ____
ROOT
ATOM      1  N   UNL     1      -1.534  -3.954  -1.936  0.00  0.00    -0.094 NA
ENDROOT
BRANCH   1   2
ATOM      2  C   UNL     1      -1.831  -5.078  -2.711  0.00  0.00    +0.111 A 
ATOM      3  C   UNL     1      -3.153  -5.432  -2.944  0.00  0.00    +0.052 A 
ATOM      4  C   UNL     1      -3.445  -6.549  -3.714  0.00  0.00    +0.027 A 
ATOM      5  C   UNL     1      -2.414  -7.310  -4.250  0.00  0.00    +0.025 A 
ATOM      6  C   UNL     1      -1.098  -6.957  -4.018  0.00  0.00    +0.042 A 
ATOM      7  C   UNL     1      -0.803  -5.841  -3.255  0.00  0.00    +0.148 A 
ATOM      8  F   UNL     1       0.484  -5.495  -3.034  0.00  0.00    -0.203 F 
BRANCH   4   9
ATOM      9  N   UNL     1      -4.775  -6.907  -3.950  0.00  0.00    -0.358 N 
ATOM     10  H   UNL     1      -5.495  -6.376  -3.575  0.00  0.00    +0.142 HD
ATOM     11  H   UNL     1      -4.979  -7.688  -4.488  0.00  0.00    +0.142 HD
ENDBRANCH   4   9
ENDBRANCH   1   2
BRANCH   1  12
ATOM     12  S   UNL     1       0.044  -3.529  -1.664  0.00  0.00    +0.109 S 
ATOM     13  O   UNL     1       0.583  -3.145  -2.921  0.00  0.00    -0.147 OA
ATOM     14  O   UNL     1       0.613  -4.565  -0.875  0.00  0.00    -0.147 OA
BRANCH  12  18
ATOM     15  C   UNL     1      -0.018   1.461   0.010  0.00  0.00    +0.150 C 
ATOM     16  N   UNL     1       0.002  -0.004   0.002  0.00  0.00    -0.340 N 
ATOM     17  C   UNL     1       0.008  -0.810  -1.104  0.00  0.00    +0.134 A 
ATOM     18  C   UNL     1       0.028  -2.081  -0.660  0.00  0.00    +0.195 A 
ATOM     19  N   UNL     1       0.034  -2.052   0.681  0.00  0.00    -0.330 N 
ATOM     20  C   UNL     1       0.024  -0.811   1.085  0.00  0.00    +0.175 A 
ATOM     21  H   UNL     1       0.048  -2.831   1.260  0.00  0.00    +0.168 HD
ENDBRANCH  12  18
ENDBRANCH   1  12
TORSDOF 4
