REMARK  Name = ZINC07683521
REMARK  5 active torsions:
REMARK  status: ('A' for Active; 'I' for Inactive)
REMARK    1  A    between atoms: C_3  and  C_10
REMARK    2  A    between atoms: C_5  and  N_7
REMARK    3  A    between atoms: C_11  and  C_12
REMARK    4  A    between atoms: N_14  and  C_15
REMARK    5  A    between atoms: C_20  and  N_21
REMARK                            x       y       z     vdW  Elec       q    Type
REMARK                         _______ _______ _______ _____ _____    ______ ____
ROOT
ATOM      1  C   UNL     1      -1.274   7.438   0.040  0.00  0.00    +0.241 C 
ATOM      2  O   UNL     1      -0.227   8.058   0.043  0.00  0.00    -0.270 OA
ATOM      3  N   UNL     1      -2.449   8.098   0.058  0.00  0.00    -0.280 N 
ATOM      4  H   UNL     1      -3.282   7.607  -0.011  0.00  0.00    +0.155 HD
ENDROOT
BRANCH   3   5
ATOM      5  C   UNL     1      -2.466   9.492   0.176  0.00  0.00    +0.061 A 
ATOM      6  C   UNL     1      -1.470  10.252  -0.420  0.00  0.00    +0.045 A 
ATOM      7  C   UNL     1      -1.493  11.630  -0.307  0.00  0.00    +0.043 A 
ATOM      8  C   UNL     1      -2.501  12.253   0.409  0.00  0.00    +0.022 A 
ATOM      9  C   UNL     1      -3.492  11.502   1.010  0.00  0.00    +0.031 A 
ATOM     10  C   UNL     1      -3.481  10.120   0.897  0.00  0.00    +0.088 A 
ATOM     11 CL   UNL     1      -0.251  12.581  -1.060  0.00  0.00    -0.083 Cl
BRANCH  10  12
ATOM     12  N   UNL     1      -4.487   9.356   1.506  0.00  0.00    -0.218 N 
ATOM     13  C   UNL     1      -5.575   9.820   2.151  0.00  0.00    +0.225 A 
ATOM     14  N   UNL     1      -6.267   8.791   2.570  0.00  0.00    -0.222 NA
ATOM     15  C   UNL     1      -5.653   7.661   2.224  0.00  0.00    +0.245 A 
ATOM     16  N   UNL     1      -4.559   7.955   1.570  0.00  0.00    -0.153 NA
ENDBRANCH  10  12
ENDBRANCH   3   5
BRANCH   1  18
ATOM     17  C   UNL     1      -0.082   5.313  -0.002  0.00  0.00    +0.013 C 
ATOM     18  C   UNL     1      -1.257   5.974   0.016  0.00  0.00    +0.068 C 
BRANCH  17  21
ATOM     19  C   UNL     1      -1.242   1.747  -0.055  0.00  0.00    +0.003 A 
ATOM     20  C   UNL     1      -1.266   3.125  -0.028  0.00  0.00    +0.008 A 
ATOM     21  C   UNL     1      -0.065   3.842  -0.025  0.00  0.00    -0.023 A 
ATOM     22  C   UNL     1       1.152   3.153  -0.044  0.00  0.00    +0.040 A 
ATOM     23  C   UNL     1       1.159   1.774  -0.066  0.00  0.00    +0.127 A 
ATOM     24  C   UNL     1      -0.034   1.072  -0.068  0.00  0.00    +0.033 A 
BRANCH  23  25
ATOM     25  N   UNL     1       2.446   1.043  -0.085  0.00  0.00    +0.056 N 
ATOM     26  O   UNL     1       2.454  -0.174  -0.104  0.00  0.00    -0.126 OA
ATOM     27  O   UNL     1       3.497   1.660  -0.083  0.00  0.00    -0.126 OA
ENDBRANCH  23  25
ENDBRANCH  17  21
ENDBRANCH   1  18
TORSDOF 5
