REMARK  Name = ZINC39571043
REMARK  3 active torsions:
REMARK  status: ('A' for Active; 'I' for Inactive)
REMARK    1  A    between atoms: C_6  and  C_7
REMARK    2  A    between atoms: C_7  and  C_9
REMARK    3  A    between atoms: C_7  and  C_21
REMARK                            x       y       z     vdW  Elec       q    Type
REMARK                         _______ _______ _______ _____ _____    ______ ____
ROOT
ATOM      1  C   UNL     1      -1.350  -1.662   1.256  0.00  0.00    +0.192 C 
ATOM      2  C   UNL     1      -1.244  -0.796   2.482  0.00  0.00    +0.242 C 
ATOM      3  O   UNL     1      -0.739   0.304   2.402  0.00  0.00    -0.273 OA
ATOM      4  N   UNL     1      -1.710  -1.240   3.675  0.00  0.00    -0.252 N 
ATOM      5  C   UNL     1      -2.441  -2.429   3.644  0.00  0.00    +0.242 A 
ATOM      6  N   UNL     1      -2.852  -3.181   4.619  0.00  0.00    -0.110 NA
ATOM      7  N   UNL     1      -3.527  -4.278   4.059  0.00  0.00    -0.110 NA
ATOM      8  C   UNL     1      -3.505  -4.146   2.752  0.00  0.00    +0.233 A 
ATOM      9  N   UNL     1      -2.846  -2.996   2.459  0.00  0.00    -0.202 N 
ATOM     10  N   UNL     1      -2.603  -2.426   1.243  0.00  0.00    -0.266 N 
ATOM     11  N   UNL     1      -4.058  -5.026   1.833  0.00  0.00    -0.326 N 
ATOM     12  H   UNL     1      -1.545  -0.760   4.501  0.00  0.00    +0.158 HD
ATOM     13  H   UNL     1      -3.376  -1.847   0.953  0.00  0.00    +0.167 HD
ATOM     14  H   UNL     1      -4.512  -5.826   2.140  0.00  0.00    +0.145 HD
ATOM     15  H   UNL     1      -3.990  -4.841   0.883  0.00  0.00    +0.145 HD
ENDROOT
BRANCH   1  16
ATOM     16  C   UNL     1      -1.293  -0.775   0.011  0.00  0.00    +0.162 C 
BRANCH  16  22
ATOM     17  C   UNL     1      -0.017   1.378   0.010  0.00  0.00    +0.006 A 
ATOM     18  C   UNL     1       1.171   2.086   0.002  0.00  0.00    +0.020 A 
ATOM     19  C   UNL     1       2.378   1.410  -0.013  0.00  0.00    +0.041 A 
ATOM     20  C   UNL     1       2.396   0.027  -0.021  0.00  0.00    +0.020 A 
ATOM     21  C   UNL     1       1.208  -0.679  -0.013  0.00  0.00    +0.006 A 
ATOM     22  C   UNL     1       0.002  -0.004   0.002  0.00  0.00    -0.031 A 
ATOM     23 CL   UNL     1       3.870   2.298  -0.023  0.00  0.00    -0.084 Cl
ENDBRANCH  16  22
BRANCH  16  24
ATOM     24  C   UNL     1      -1.373  -1.636  -1.224  0.00  0.00    +0.366 C 
ATOM     25  O   UNL     1      -0.525  -2.487  -1.430  0.00  0.00    -0.246 OA
ATOM     26  O   UNL     1      -2.287  -1.481  -2.016  0.00  0.00    -0.246 OA
ENDBRANCH  16  24
ENDBRANCH   1  16
TORSDOF 3
