REMARK  Name = ZINC22737519
REMARK  11 active torsions:
REMARK  status: ('A' for Active; 'I' for Inactive)
REMARK    1  A    between atoms: C_1  and  C_2
REMARK    2  A    between atoms: C_2  and  C_4
REMARK    3  A    between atoms: C_2  and  S_21
REMARK    4  A    between atoms: N_6  and  C_7
REMARK    5  A    between atoms: C_9  and  C_17
REMARK    6  A    between atoms: C_11  and  C_13
REMARK    7  A    between atoms: C_13  and  O_15
REMARK    8  A    between atoms: O_15  and  C_16
REMARK    9  A    between atoms: C_17  and  O_19
REMARK   10  A    between atoms: O_19  and  C_20
REMARK   11  A    between atoms: S_21  and  C_22
REMARK                            x       y       z     vdW  Elec       q    Type
REMARK                         _______ _______ _______ _____ _____    ______ ____
ROOT
ATOM      1  C   UNL     1       2.906  -4.044  -4.065  0.00  0.00    +0.230 C 
ATOM      2  O   UNL     1       3.288  -2.955  -3.691  0.00  0.00    -0.274 OA
ATOM      3  N   UNL     1       1.955  -4.699  -3.371  0.00  0.00    -0.285 N 
ATOM      4  H   UNL     1       1.670  -5.722  -3.659  0.00  0.00    +0.155 HD
ENDROOT
BRANCH   3   5
ATOM      5  C   UNL     1       1.329  -4.079  -2.284  0.00  0.00    +0.035 A 
ATOM      6  C   UNL     1       0.922  -4.836  -1.195  0.00  0.00    +0.038 A 
ATOM      7  C   UNL     1       0.297  -4.220  -0.109  0.00  0.00    +0.062 A 
ATOM      8  C   UNL     1       0.082  -2.843  -0.119  0.00  0.00    +0.030 A 
ATOM      9  C   UNL     1       0.492  -2.086  -1.215  0.00  0.00    +0.062 A 
ATOM     10  C   UNL     1       1.112  -2.709  -2.300  0.00  0.00    +0.038 A 
BRANCH   9  11
ATOM     11  C   UNL     1       0.266  -0.625  -1.231  0.00  0.00    +0.339 C 
ATOM     12  O   UNL     1       0.624   0.034  -2.186  0.00  0.00    -0.245 OA
BRANCH  11  13
ATOM     13  O   UNL     1      -0.337  -0.026  -0.186  0.00  0.00    -0.464 OA
ATOM     14  C   UNL     1      -0.526   1.411  -0.270  0.00  0.00    +0.280 C 
ENDBRANCH  11  13
ENDBRANCH   9  11
BRANCH   7  15
ATOM     15  C   UNL     1      -0.136  -5.027   1.050  0.00  0.00    +0.339 C 
ATOM     16  O   UNL     1       0.051  -6.228   1.059  0.00  0.00    -0.245 OA
BRANCH  15  17
ATOM     17  O   UNL     1      -0.739  -4.433   2.098  0.00  0.00    -0.464 OA
ATOM     18  C   UNL     1      -1.138  -5.288   3.201  0.00  0.00    +0.280 C 
ENDBRANCH  15  17
ENDBRANCH   7  15
ENDBRANCH   3   5
BRANCH   1  20
ATOM     19  C   UNL     1       2.606  -4.344  -6.508  0.00  0.00    +0.029 C 
ATOM     20  C   UNL     1       3.496  -4.664  -5.306  0.00  0.00    +0.136 C 
BRANCH  20  21
ATOM     21  S   UNL     1       5.157  -3.991  -5.587  0.00  0.00    -0.084 S 
BRANCH  21  22
ATOM     22  C   UNL     1       5.761  -4.909  -6.965  0.00  0.00    +0.161 A 
ATOM     23  N   UNL     1       5.174  -5.871  -7.651  0.00  0.00    -0.133 NA
ATOM     24  N   UNL     1       5.831  -6.457  -8.707  0.00  0.00    -0.125 NA
ATOM     25  C   UNL     1       7.050  -6.063  -9.022  0.00  0.00    +0.180 A 
ATOM     26  S   UNL     1       7.335  -4.791  -7.801  0.00  0.00    -0.025 S 
ATOM     27  N   UNL     1       7.888  -6.517 -10.034  0.00  0.00    -0.336 N 
ATOM     28  H   UNL     1       8.886  -6.074 -10.161  0.00  0.00    +0.144 HD
ATOM     29  H   UNL     1       7.553  -7.319 -10.708  0.00  0.00    +0.144 HD
ENDBRANCH  21  22
ENDBRANCH  20  21
ENDBRANCH   1  20
TORSDOF 8
