REMARK  Name = ZINC54502110
REMARK  6 active torsions:
REMARK  status: ('A' for Active; 'I' for Inactive)
REMARK    1  A    between atoms: C_1  and  C_2
REMARK    2  A    between atoms: C_7  and  N_8
REMARK    3  A    between atoms: C_9  and  C_10
REMARK    4  A    between atoms: C_9  and  C_19
REMARK    5  A    between atoms: C_20  and  O_22
REMARK    6  A    between atoms: O_22  and  C_23
REMARK                            x       y       z     vdW  Elec       q    Type
REMARK                         _______ _______ _______ _____ _____    ______ ____
ROOT
ATOM      1  N   UNL     1       0.086  -0.047   2.389  0.00  0.00    -0.226 NA
ATOM      2  C   UNL     1      -0.059  -0.747   3.518  0.00  0.00    +0.126 C 
ENDROOT
BRANCH   2   3
ATOM      3  C   UNL     1      -0.266  -0.050   4.790  0.00  0.00    +0.132 A 
ATOM      4  C   UNL     1      -0.540  -0.771   5.976  0.00  0.00    +0.265 A 
ATOM      5  O   UNL     1      -0.609  -1.988   5.957  0.00  0.00    -0.267 OA
ATOM      6  N   UNL     1      -0.726  -0.088   7.139  0.00  0.00    -0.302 N 
ATOM      7  C   UNL     1      -0.652   1.254   7.169  0.00  0.00    +0.161 A 
ATOM      8  S   UNL     1      -0.892   2.068   8.656  0.00  0.00    -0.013 S 
ATOM      9  N   UNL     1      -0.393   1.973   6.064  0.00  0.00    -0.302 N 
ATOM     10  C   UNL     1      -0.190   1.361   4.864  0.00  0.00    +0.265 A 
ATOM     11  O   UNL     1       0.049   2.020   3.868  0.00  0.00    -0.267 OA
ATOM     12  H   UNL     1      -0.346   2.940   6.122  0.00  0.00    +0.171 HD
ATOM     13  H   UNL     1      -0.915  -0.575   7.957  0.00  0.00    +0.171 HD
ENDBRANCH   2   3
BRANCH   1  20
ATOM     14  C   UNL     1       2.237   0.642   0.670  0.00  0.00    +0.047 C 
ATOM     15  C   UNL     1       1.195  -0.388   0.317  0.00  0.00    -0.008 A 
ATOM     16  C   UNL     1       1.255  -1.049  -0.876  0.00  0.00    +0.008 A 
ATOM     17  C   UNL     1       0.278  -2.003  -1.186  0.00  0.00    +0.018 A 
ATOM     18  C   UNL     1      -0.718  -2.266  -0.306  0.00  0.00    +0.084 A 
ATOM     19  N   UNL     1      -0.785  -1.613   0.881  0.00  0.00    -0.346 N 
ATOM     20  C   UNL     1       0.157  -0.682   1.214  0.00  0.00    +0.135 A 
ATOM     21  H   UNL     1      -1.505  -1.813   1.500  0.00  0.00    +0.167 HD
ENDBRANCH   1  20
BRANCH   2  22
ATOM     22  C   UNL     1      -0.012  -2.159   3.486  0.00  0.00    +0.233 C 
ATOM     23  C   UNL     1       1.182  -2.800   3.554  0.00  0.00    +0.370 C 
ATOM     24  O   UNL     1       2.317  -2.095   3.759  0.00  0.00    -0.242 OA
ATOM     25  F   UNL     1      -1.156  -2.870   3.387  0.00  0.00    -0.196 F 
BRANCH  23  26
ATOM     26  O   UNL     1       1.237  -4.143   3.418  0.00  0.00    -0.463 OA
ATOM     27  C   UNL     1       2.527  -4.752   3.501  0.00  0.00    +0.280 C 
ENDBRANCH  23  26
ENDBRANCH   2  22
TORSDOF 4
