REMARK  Name = ZINC37053118
REMARK  5 active torsions:
REMARK  status: ('A' for Active; 'I' for Inactive)
REMARK    1  A    between atoms: C_3  and  S_10
REMARK    2  A    between atoms: C_4  and  C_8
REMARK    3  A    between atoms: C_6  and  N_7
REMARK    4  A    between atoms: S_10  and  N_13
REMARK    5  A    between atoms: C_17  and  C_20
REMARK                            x       y       z     vdW  Elec       q    Type
REMARK                         _______ _______ _______ _____ _____    ______ ____
ROOT
ATOM      1  S   UNL     1       3.884   2.348  -0.024  0.00  0.00    +0.062 S 
ATOM      2  O   UNL     1       4.702   1.677  -0.972  0.00  0.00    -0.153 OA
ATOM      3  O   UNL     1       3.575   3.731  -0.128  0.00  0.00    -0.153 OA
ENDROOT
BRANCH   1   6
ATOM      4  C   UNL     1      -0.049   1.528  -0.001  0.00  0.00    +0.025 A 
ATOM      5  C   UNL     1       1.161   2.197  -0.027  0.00  0.00    +0.031 A 
ATOM      6  C   UNL     1       2.345   1.490   0.010  0.00  0.00    +0.123 A 
ATOM      7  C   UNL     1       2.325   0.095   0.075  0.00  0.00    +0.080 A 
ATOM      8  C   UNL     1       1.104  -0.579   0.102  0.00  0.00    +0.043 A 
ATOM      9  C   UNL     1      -0.081   0.140   0.063  0.00  0.00    +0.026 A 
BRANCH   9  10
ATOM     10  N   UNL     1      -1.306  -0.530   0.089  0.00  0.00    -0.358 N 
ATOM     11  H   UNL     1      -2.135  -0.027   0.063  0.00  0.00    +0.142 HD
ATOM     12  H   UNL     1      -1.328  -1.499   0.135  0.00  0.00    +0.142 HD
ENDBRANCH   9  10
BRANCH   7  13
ATOM     13  C   UNL     1       3.553  -0.640   0.114  0.00  0.00    +0.101 C 
ATOM     14  N   UNL     1       4.527  -1.224   0.144  0.00  0.00    -0.191 NA
ENDBRANCH   7  13
ENDBRANCH   1   6
BRANCH   1  15
ATOM     15  N   UNL     1       4.598   2.132   1.454  0.00  0.00    -0.176 NA
ATOM     16  C   UNL     1       4.223   2.976   2.597  0.00  0.00    +0.109 C 
ATOM     17  C   UNL     1       3.826   2.071   3.768  0.00  0.00    +0.018 C 
ATOM     18  C   UNL     1       4.963   1.089   4.058  0.00  0.00    +0.015 C 
ATOM     19  C   UNL     1       5.205   0.210   2.829  0.00  0.00    +0.090 C 
ATOM     20  C   UNL     1       5.614   1.089   1.649  0.00  0.00    +0.122 C 
BRANCH  19  21
ATOM     21  C   UNL     1       6.303  -0.779   3.127  0.00  0.00    +0.215 C 
ATOM     22  O   UNL     1       7.316  -0.780   2.459  0.00  0.00    -0.276 OA
ATOM     23  N   UNL     1       6.159  -1.662   4.136  0.00  0.00    -0.329 N 
ATOM     24  H   UNL     1       5.350  -1.660   4.670  0.00  0.00    +0.145 HD
ATOM     25  H   UNL     1       6.866  -2.298   4.327  0.00  0.00    +0.145 HD
ENDBRANCH  19  21
ENDBRANCH   1  15
TORSDOF 5
