REMARK  Name = ZINC08995726
REMARK  6 active torsions:
REMARK  status: ('A' for Active; 'I' for Inactive)
REMARK    1  A    between atoms: C_1  and  O_2
REMARK    2  A    between atoms: O_2  and  C_3
REMARK    3  A    between atoms: C_3  and  C_4
REMARK    4  A    between atoms: C_4  and  N_5
REMARK    5  A    between atoms: C_10  and  C_27
REMARK    6  A    between atoms: C_27  and  C_28
REMARK                            x       y       z     vdW  Elec       q    Type
REMARK                         _______ _______ _______ _____ _____    ______ ____
ROOT
ATOM      1  N   UNL     1      -3.014  -1.182   2.708  0.00  0.00    -0.240 N 
ATOM      2  C   UNL     1      -2.985  -1.899   1.545  0.00  0.00    +0.224 C 
ATOM      3  O   UNL     1      -3.384  -3.031   1.370  0.00  0.00    -0.275 OA
ATOM      4  C   UNL     1      -2.355  -0.988   0.528  0.00  0.00    +0.073 C 
ATOM      5  C   UNL     1      -2.921  -0.921  -0.889  0.00  0.00    -0.049 C 
ATOM      6  C   UNL     1      -2.651   1.299   0.021  0.00  0.00    +0.050 C 
ATOM      7  C   UNL     1      -3.007   0.346   1.080  0.00  0.00    +0.088 C 
ATOM      8  C   UNL     1      -2.832   0.164   2.505  0.00  0.00    +0.225 C 
ATOM      9  O   UNL     1      -2.580   1.011   3.335  0.00  0.00    -0.275 OA
ATOM     10  C   UNL     1      -1.215   1.747   0.017  0.00  0.00    -0.027 A 
ATOM     11  C   UNL     1      -0.013   1.076   0.008  0.00  0.00    +0.019 A 
ATOM     12  C   UNL     1       1.177   1.783   0.000  0.00  0.00    +0.018 A 
ATOM     13  C   UNL     1       1.156   3.167   0.008  0.00  0.00    +0.017 A 
ATOM     14  C   UNL     1      -0.046   3.843   0.023  0.00  0.00    +0.024 A 
ATOM     15  C   UNL     1      -1.248   3.138   0.031  0.00  0.00    +0.036 A 
ATOM     16  N   UNL     1      -2.569   3.590   0.046  0.00  0.00    -0.286 N 
ATOM     17  C   UNL     1      -3.453   2.575   0.032  0.00  0.00    +0.211 C 
ATOM     18  O   UNL     1      -4.662   2.670   0.038  0.00  0.00    -0.277 OA
ATOM     19 BR   UNL     1       2.828   0.861  -0.021  0.00  0.00    -0.050 Br
ATOM     20  H   UNL     1      -2.821   4.527   0.053  0.00  0.00    +0.155 HD
ATOM     21  N   UNL     1      -2.947   0.529  -1.219  0.00  0.00    +0.394 N 
ATOM     22  H   UNL     1      -3.875   0.787  -1.574  0.00  0.00    -0.083 HD
ATOM     23  H   UNL     1      -2.238   0.735  -1.932  0.00  0.00    -0.083 HD
ENDROOT
BRANCH   1  24
ATOM     24  C   UNL     1      -3.219  -1.783   4.028  0.00  0.00    +0.144 C 
BRANCH  24  25
ATOM     25  C   UNL     1      -1.865  -2.166   4.630  0.00  0.00    +0.179 C 
BRANCH  25  27
ATOM     26  C   UNL     1       0.191  -1.231   5.432  0.00  0.00    +0.194 C 
ATOM     27  O   UNL     1      -1.099  -0.984   4.867  0.00  0.00    -0.381 OA
ENDBRANCH  25  27
ENDBRANCH  24  25
ENDBRANCH   1  24
BRANCH   5  28
ATOM     28  C   UNL     1      -4.337  -1.502  -0.922  0.00  0.00    +0.080 C 
BRANCH  28  29
ATOM     29  C   UNL     1      -4.830  -1.540  -2.346  0.00  0.00    +0.209 C 
ATOM     30  O   UNL     1      -4.120  -1.142  -3.245  0.00  0.00    -0.276 OA
ATOM     31  N   UNL     1      -6.061  -2.017  -2.620  0.00  0.00    -0.329 N 
ATOM     32  H   UNL     1      -6.629  -2.335  -1.901  0.00  0.00    +0.145 HD
ATOM     33  H   UNL     1      -6.378  -2.041  -3.536  0.00  0.00    +0.145 HD
ENDBRANCH  28  29
ENDBRANCH   5  28
TORSDOF 5
