REMARK  Name = ZINC39495753
REMARK  9 active torsions:
REMARK  status: ('A' for Active; 'I' for Inactive)
REMARK    1  A    between atoms: C_4  and  S_7
REMARK    2  A    between atoms: S_7  and  C_10
REMARK    3  A    between atoms: C_11  and  O_31
REMARK    4  A    between atoms: C_14  and  C_23
REMARK    5  A    between atoms: C_15  and  C_16
REMARK    6  A    between atoms: C_21  and  O_22
REMARK    7  A    between atoms: C_23  and  C_25
REMARK    8  A    between atoms: C_23  and  N_28
REMARK    9  A    between atoms: C_25  and  C_26
REMARK                            x       y       z     vdW  Elec       q    Type
REMARK                         _______ _______ _______ _____ _____    ______ ____
ROOT
ATOM      1  C   UNL     1       4.639  -1.185   0.998  0.00  0.00    +0.143 A 
ATOM      2  C   UNL     1       5.124   0.045   1.413  0.00  0.00    +0.143 A 
ATOM      3  C   UNL     1       5.508   0.229   2.735  0.00  0.00    +0.048 A 
ATOM      4  C   UNL     1       5.408  -0.812   3.639  0.00  0.00    +0.010 A 
ATOM      5  C   UNL     1       4.926  -2.040   3.234  0.00  0.00    -0.017 A 
ATOM      6  C   UNL     1       4.532  -2.232   1.910  0.00  0.00    +0.019 A 
ENDROOT
BRANCH   6   7
ATOM      7  C   UNL     1       4.008  -3.548   1.473  0.00  0.00    +0.026 A 
ATOM      8  C   UNL     1       2.635  -3.780   1.443  0.00  0.00    +0.012 A 
ATOM      9  C   UNL     1       2.151  -5.006   1.036  0.00  0.00    +0.001 A 
ATOM     10  C   UNL     1       3.027  -6.009   0.656  0.00  0.00    +0.004 A 
ATOM     11  C   UNL     1       4.391  -5.790   0.681  0.00  0.00    +0.046 A 
ATOM     12  C   UNL     1       4.889  -4.561   1.083  0.00  0.00    +0.125 A 
BRANCH  12  13
ATOM     13  O   UNL     1       6.230  -4.343   1.103  0.00  0.00    -0.506 OA
ATOM     14  H   UNL     1       6.665  -4.642   1.914  0.00  0.00    +0.292 HD
ENDBRANCH  12  13
ENDBRANCH   6   7
BRANCH   1  15
ATOM     15  S   UNL     1       4.151  -1.421  -0.679  0.00  0.00    +0.029 S 
ATOM     16  O   UNL     1       4.159  -2.823  -0.910  0.00  0.00    -0.164 OA
ATOM     17  O   UNL     1       4.922  -0.515  -1.457  0.00  0.00    -0.164 OA
BRANCH  15  21
ATOM     18  C   UNL     1      -0.158  -0.077  -1.023  0.00  0.00    +0.000 A 
ATOM     19  C   UNL     1       0.864   0.849  -1.117  0.00  0.00    +0.002 A 
ATOM     20  C   UNL     1       2.180   0.438  -1.012  0.00  0.00    +0.027 A 
ATOM     21  C   UNL     1       2.474  -0.898  -0.812  0.00  0.00    +0.094 A 
ATOM     22  C   UNL     1       1.451  -1.823  -0.716  0.00  0.00    +0.027 A 
ATOM     23  C   UNL     1       0.136  -1.413  -0.823  0.00  0.00    +0.002 A 
ENDBRANCH  15  21
ENDBRANCH   1  15
BRANCH   2  24
ATOM     24  O   UNL     1       5.225   1.070   0.527  0.00  0.00    -0.505 OA
ATOM     25  H   UNL     1       4.433   1.623   0.474  0.00  0.00    +0.292 HD
ENDBRANCH   2  24
BRANCH   5  26
ATOM     26  C   UNL     1       4.819  -3.172   4.223  0.00  0.00    +0.110 C 
BRANCH  26  27
ATOM     27  N   UNL     1       5.797  -2.976   5.296  0.00  0.00    -0.311 N 
ATOM     28  C   UNL     1       6.444  -4.035   5.820  0.00  0.00    +0.326 C 
ATOM     29  O   UNL     1       6.218  -5.151   5.402  0.00  0.00    -0.280 OA
ATOM     30  H   UNL     1       5.977  -2.083   5.631  0.00  0.00    +0.149 HD
ENDBRANCH  26  27
BRANCH  26  31
ATOM     31  C   UNL     1       3.409  -3.200   4.816  0.00  0.00    +0.097 C 
BRANCH  31  32
ATOM     32  C   UNL     1       3.264  -4.403   5.711  0.00  0.00    +0.225 C 
ATOM     33  O   UNL     1       2.912  -4.264   6.858  0.00  0.00    -0.301 OA
ENDBRANCH  31  32
ENDBRANCH  26  31
ENDBRANCH   5  26
TORSDOF 9
