REMARK  Name = ZINC34748611
REMARK  8 active torsions:
REMARK  status: ('A' for Active; 'I' for Inactive)
REMARK    1  A    between atoms: C_1  and  C_2
REMARK    2  A    between atoms: C_3  and  C_31
REMARK    3  A    between atoms: N_9  and  C_22
REMARK    4  A    between atoms: N_15  and  C_18
REMARK    5  A    between atoms: C_18  and  C_19
REMARK    6  A    between atoms: C_22  and  C_23
REMARK    7  A    between atoms: C_23  and  C_24
REMARK    8  A    between atoms: C_24  and  C_25
REMARK                            x       y       z     vdW  Elec       q    Type
REMARK                         _______ _______ _______ _____ _____    ______ ____
ROOT
ATOM      1  C   UNL     1      -0.071   1.549   0.076  0.00  0.00    +0.045 C 
ATOM      2  C   UNL     1      -0.012   0.043   0.036  0.00  0.00    -0.026 A 
ATOM      3  C   UNL     1       0.023  -0.603  -1.139  0.00  0.00    -0.008 A 
ATOM      4  S   UNL     1       0.087  -2.321  -0.664  0.00  0.00    -0.073 S 
ATOM      5  C   UNL     1       0.065  -2.120   1.099  0.00  0.00    +0.117 A 
ATOM      6  C   UNL     1       0.015  -0.724   1.269  0.00  0.00    +0.075 A 
ATOM      7  C   UNL     1      -0.009  -0.263   2.623  0.00  0.00    +0.264 A 
ATOM      8  O   UNL     1      -0.057   0.930   2.869  0.00  0.00    -0.267 OA
ATOM      9  N   UNL     1       0.023  -1.163   3.623  0.00  0.00    -0.280 N 
ATOM     10  C   UNL     1       0.077  -2.502   3.368  0.00  0.00    +0.202 A 
ATOM     11  N   UNL     1       0.089  -2.955   2.131  0.00  0.00    -0.208 NA
ATOM     12  N   UNL     1       0.109  -3.390   4.414  0.00  0.00    -0.304 N 
ATOM     13  C   UNL     1       1.382  -3.772   5.044  0.00  0.00    +0.089 C 
ATOM     14  C   UNL     1       1.450  -5.301   5.115  0.00  0.00    -0.059 C 
ATOM     15  N   UNL     1       0.257  -5.811   5.802  0.00  0.00    +0.387 N 
ATOM     16  C   UNL     1      -0.944  -5.505   5.014  0.00  0.00    -0.059 C 
ATOM     17  C   UNL     1      -1.131  -3.982   4.941  0.00  0.00    +0.089 C 
ATOM     18  C   UNL     1       0.011  -0.018  -2.527  0.00  0.00    +0.052 C 
ATOM     19  H   UNL     1       0.181  -5.377   6.710  0.00  0.00    -0.081 HD
ENDROOT
BRANCH  15  20
ATOM     20  C   UNL     1       0.374  -7.266   5.967  0.00  0.00    +0.018 C 
BRANCH  20  21
ATOM     21  C   UNL     1      -0.789  -7.775   6.779  0.00  0.00    +0.194 C 
ATOM     22  O   UNL     1      -1.633  -7.002   7.180  0.00  0.00    -0.278 OA
ATOM     23  N   UNL     1      -0.892  -9.089   7.058  0.00  0.00    -0.331 N 
ATOM     24  H   UNL     1      -0.217  -9.708   6.737  0.00  0.00    +0.145 HD
ATOM     25  H   UNL     1      -1.641  -9.417   7.581  0.00  0.00    +0.145 HD
ENDBRANCH  20  21
ENDBRANCH  15  20
BRANCH   9  26
ATOM     26  C   UNL     1      -0.000  -0.697   5.011  0.00  0.00    +0.128 C 
BRANCH  26  27
ATOM     27  C   UNL     1      -1.448  -0.460   5.445  0.00  0.00    +0.026 C 
BRANCH  27  28
ATOM     28  C   UNL     1      -1.473   0.027   6.896  0.00  0.00    +0.037 C 
BRANCH  28  29
ATOM     29  C   UNL     1      -2.899   0.260   7.323  0.00  0.00    -0.047 A 
ATOM     30  C   UNL     1      -3.483   1.499   7.135  0.00  0.00    +0.003 A 
ATOM     31  C   UNL     1      -4.791   1.713   7.527  0.00  0.00    +0.000 A 
ATOM     32  C   UNL     1      -5.515   0.688   8.107  0.00  0.00    +0.000 A 
ATOM     33  C   UNL     1      -4.931  -0.551   8.295  0.00  0.00    +0.000 A 
ATOM     34  C   UNL     1      -3.624  -0.766   7.899  0.00  0.00    +0.003 A 
ENDBRANCH  28  29
ENDBRANCH  27  28
ENDBRANCH  26  27
ENDBRANCH   9  26
TORSDOF 6
