REMARK  Name = ZINC13979095
REMARK  12 active torsions:
REMARK  status: ('A' for Active; 'I' for Inactive)
REMARK    1  A    between atoms: C_1  and  C_2
REMARK    2  A    between atoms: C_2  and  C_3
REMARK    3  A    between atoms: C_2  and  C_4
REMARK    4  A    between atoms: C_4  and  C_5
REMARK    5  A    between atoms: N_7  and  C_8
REMARK    6  A    between atoms: C_11  and  C_14
REMARK    7  A    between atoms: N_16  and  N_17
REMARK    8  A    between atoms: N_17  and  C_18
REMARK    9  A    between atoms: C_18  and  N_20
REMARK   10  A    between atoms: C_21  and  C_23
REMARK   11  A    between atoms: C_23  and  O_24
REMARK   12  A    between atoms: O_24  and  C_25
REMARK                            x       y       z     vdW  Elec       q    Type
REMARK                         _______ _______ _______ _____ _____    ______ ____
ROOT
ATOM      1  C   UNL     1      -5.057   3.483  -0.167  0.00  0.00    +0.260 C 
ATOM      2  O   UNL     1      -6.071   2.817  -0.097  0.00  0.00    -0.269 OA
ATOM      3  N   UNL     1      -5.138   4.823  -0.285  0.00  0.00    -0.231 N 
ATOM      4  H   UNL     1      -4.328   5.355  -0.341  0.00  0.00    +0.173 HD
ENDROOT
BRANCH   1   8
ATOM      5  C   UNL     1      -1.258   1.588  -0.035  0.00  0.00    +0.033 A 
ATOM      6  C   UNL     1      -1.340   2.972  -0.152  0.00  0.00    +0.024 A 
ATOM      7  C   UNL     1      -2.570   3.589  -0.201  0.00  0.00    +0.015 A 
ATOM      8  C   UNL     1      -3.737   2.825  -0.120  0.00  0.00    +0.038 A 
ATOM      9  C   UNL     1      -3.651   1.435   0.003  0.00  0.00    +0.015 A 
ATOM     10  C   UNL     1      -2.418   0.824   0.045  0.00  0.00    +0.024 A 
BRANCH   5  13
ATOM     11  C   UNL     1       1.025   1.575   0.617  0.00  0.00    +0.217 C 
ATOM     12  O   UNL     1       0.894   2.696   1.060  0.00  0.00    -0.275 OA
ATOM     13  N   UNL     1      -0.011   0.966   0.007  0.00  0.00    -0.285 N 
ATOM     14  H   UNL     1       0.112   0.097  -0.405  0.00  0.00    +0.155 HD
BRANCH  11  15
ATOM     15  C   UNL     1       2.347   0.862   0.748  0.00  0.00    +0.099 C 
BRANCH  15  17
ATOM     16  C   UNL     1       2.868   2.005   2.908  0.00  0.00    +0.008 C 
ATOM     17  C   UNL     1       3.345   1.767   1.474  0.00  0.00    -0.008 C 
ATOM     18  C   UNL     1       4.719   1.095   1.497  0.00  0.00    +0.008 C 
ENDBRANCH  15  17
ENDBRANCH  11  15
ENDBRANCH   5  13
ENDBRANCH   1   8
BRANCH   3  19
ATOM     19  N   UNL     1      -6.391   5.448  -0.329  0.00  0.00    -0.245 N 
ATOM     20  H   UNL     1      -7.200   4.917  -0.274  0.00  0.00    +0.172 HD
BRANCH  19  21
ATOM     21  C   UNL     1      -6.471   6.788  -0.448  0.00  0.00    +0.153 C 
ATOM     22  S   UNL     1      -8.003   7.552  -0.502  0.00  0.00    -0.017 S 
BRANCH  21  23
ATOM     23  N   UNL     1      -5.347   7.527  -0.525  0.00  0.00    -0.264 N 
ATOM     24  C   UNL     1      -5.428   8.867  -0.644  0.00  0.00    +0.256 C 
ATOM     25  O   UNL     1      -6.512   9.408  -0.682  0.00  0.00    -0.272 OA
ATOM     26  H   UNL     1      -4.479   7.094  -0.495  0.00  0.00    +0.157 HD
BRANCH  24  27
ATOM     27  C   UNL     1      -4.170   9.693  -0.730  0.00  0.00    +0.325 C 
BRANCH  27  28
ATOM     28  O   UNL     1      -4.515  11.075  -0.851  0.00  0.00    -0.481 OA
BRANCH  28  29
ATOM     29  C   UNL     1      -3.489  11.961  -0.940  0.00  0.00    +0.139 A 
ATOM     30  C   UNL     1      -2.177  11.511  -0.907  0.00  0.00    +0.047 A 
ATOM     31  C   UNL     1      -1.135  12.414  -1.003  0.00  0.00    +0.004 A 
ATOM     32  C   UNL     1      -1.399  13.766  -1.122  0.00  0.00    +0.002 A 
ATOM     33  C   UNL     1      -2.705  14.219  -1.149  0.00  0.00    +0.023 A 
ATOM     34  C   UNL     1      -3.751  13.319  -1.059  0.00  0.00    +0.083 A 
ATOM     35 CL   UNL     1      -5.391  13.887  -1.093  0.00  0.00    -0.080 Cl
ENDBRANCH  28  29
ENDBRANCH  27  28
ENDBRANCH  24  27
ENDBRANCH  21  23
ENDBRANCH  19  21
ENDBRANCH   3  19
TORSDOF 10
