REMARK  Name = ZINC49691051
REMARK  6 active torsions:
REMARK  status: ('A' for Active; 'I' for Inactive)
REMARK    1  A    between atoms: C_1  and  C_2
REMARK    2  A    between atoms: C_2  and  C_3
REMARK    3  A    between atoms: C_2  and  C_12
REMARK    4  A    between atoms: C_2  and  O_15
REMARK    5  A    between atoms: O_15  and  C_16
REMARK    6  A    between atoms: C_16  and  C_17
REMARK                            x       y       z     vdW  Elec       q    Type
REMARK                         _______ _______ _______ _____ _____    ______ ____
ROOT
ATOM      1  C   UNL     1       0.138   1.504   0.221  0.00  0.00    +0.059 C 
ATOM      2  C   UNL     1       0.002  -0.004   0.002  0.00  0.00    +0.193 C 
ENDROOT
BRANCH   2   3
ATOM      3  C   UNL     1       0.565  -0.738   1.192  0.00  0.00    +0.016 A 
ATOM      4  C   UNL     1       1.168  -0.032   2.216  0.00  0.00    +0.048 A 
ATOM      5  C   UNL     1       1.685  -0.705   3.309  0.00  0.00    +0.142 A 
ATOM      6  C   UNL     1       1.597  -2.087   3.377  0.00  0.00    +0.077 A 
ATOM      7  C   UNL     1       0.993  -2.791   2.352  0.00  0.00    +0.043 A 
ATOM      8  C   UNL     1       0.472  -2.116   1.262  0.00  0.00    +0.049 A 
ATOM      9 CL   UNL     1      -0.292  -3.000  -0.022  0.00  0.00    -0.083 Cl
ATOM     10 CL   UNL     1       2.245  -2.932   4.747  0.00  0.00    -0.081 Cl
ATOM     11  F   UNL     1       2.276  -0.016   4.310  0.00  0.00    -0.204 F 
ENDBRANCH   2   3
BRANCH   2  12
ATOM     12  C   UNL     1       0.761  -0.402  -1.238  0.00  0.00    +0.391 C 
ATOM     13  O   UNL     1       1.933  -0.092  -1.361  0.00  0.00    -0.243 OA
ATOM     14  O   UNL     1       0.201  -1.034  -2.118  0.00  0.00    -0.243 OA
ENDBRANCH   2  12
BRANCH   2  15
ATOM     15  O   UNL     1      -1.378  -0.340  -0.155  0.00  0.00    -0.357 OA
BRANCH  15  16
ATOM     16  C   UNL     1      -2.011   0.306  -1.262  0.00  0.00    +0.167 C 
BRANCH  16  17
ATOM     17  C   UNL     1      -3.477  -0.125  -1.334  0.00  0.00    +0.043 C 
ATOM     18  C   UNL     1      -4.165   0.500  -2.572  0.00  0.00    +0.036 C 
ATOM     19  C   UNL     1      -5.554   0.893  -2.007  0.00  0.00    +0.160 C 
ATOM     20  O   UNL     1      -5.259   1.336  -0.665  0.00  0.00    -0.379 OA
ATOM     21  C   UNL     1      -4.264   0.440  -0.135  0.00  0.00    +0.165 C 
ENDBRANCH  16  17
ENDBRANCH  15  16
ENDBRANCH   2  15
TORSDOF 5
