REMARK  Name = ZINC18252330
REMARK  12 active torsions:
REMARK  status: ('A' for Active; 'I' for Inactive)
REMARK    1  A    between atoms: C_1  and  C_2
REMARK    2  A    between atoms: C_6  and  C_8
REMARK    3  A    between atoms: N_10  and  C_11
REMARK    4  A    between atoms: C_11  and  C_13
REMARK    5  A    between atoms: C_11  and  C_16
REMARK    6  A    between atoms: C_13  and  C_14
REMARK    7  A    between atoms: C_13  and  C_15
REMARK    8  A    between atoms: C_16  and  O_18
REMARK    9  A    between atoms: O_18  and  C_19
REMARK   10  A    between atoms: C_19  and  C_20
REMARK   11  A    between atoms: N_22  and  C_23
REMARK   12  A    between atoms: C_24  and  C_31
REMARK                            x       y       z     vdW  Elec       q    Type
REMARK                         _______ _______ _______ _____ _____    ______ ____
ROOT
ATOM      1  O   UNL     1       2.546   9.323  -0.679  0.00  0.00    -0.454 OA
ENDROOT
BRANCH   1   2
ATOM      2  C   UNL     1       2.343   8.000  -0.580  0.00  0.00    +0.328 C 
ATOM      3  O   UNL     1       3.182   7.229  -0.980  0.00  0.00    -0.249 OA
BRANCH   2   4
ATOM      4  C   UNL     1       1.068   7.478   0.030  0.00  0.00    +0.185 C 
BRANCH   4   7
ATOM      5  C   UNL     1      -0.070   5.323   0.029  0.00  0.00    +0.245 C 
ATOM      6  O   UNL     1      -1.131   5.916   0.042  0.00  0.00    -0.270 OA
ATOM      7  N   UNL     1       1.088   6.013   0.022  0.00  0.00    -0.298 N 
ATOM      8  H   UNL     1       1.934   5.539   0.012  0.00  0.00    +0.150 HD
BRANCH   5  14
ATOM      9  C   UNL     1      -2.514   0.972   0.020  0.00  0.00    +0.044 C 
ATOM     10  C   UNL     1      -1.222   1.748   0.017  0.00  0.00    -0.050 A 
ATOM     11  C   UNL     1      -0.013   1.076   0.008  0.00  0.00    +0.003 A 
ATOM     12  C   UNL     1       1.178   1.781   0.000  0.00  0.00    +0.001 A 
ATOM     13  C   UNL     1       1.166   3.160   0.007  0.00  0.00    +0.013 A 
ATOM     14  C   UNL     1      -0.050   3.845   0.022  0.00  0.00    +0.037 A 
ATOM     15  C   UNL     1      -1.248   3.127   0.030  0.00  0.00    +0.016 A 
ENDBRANCH   5  14
ENDBRANCH   4   7
BRANCH   4  16
ATOM     16  C   UNL     1       0.949   7.979   1.470  0.00  0.00    +0.014 C 
ATOM     17  C   UNL     1       0.928   9.508   1.478  0.00  0.00    +0.009 C 
ATOM     18  C   UNL     1      -0.346   7.448   2.090  0.00  0.00    +0.009 C 
ENDBRANCH   4  16
ENDBRANCH   2   4
ENDBRANCH   1   2
BRANCH   1  19
ATOM     19  C   UNL     1       3.797   9.755  -1.277  0.00  0.00    +0.328 C 
BRANCH  19  20
ATOM     20  C   UNL     1       3.848  11.261  -1.303  0.00  0.00    +0.255 C 
ATOM     21  O   UNL     1       2.921  11.907  -0.861  0.00  0.00    -0.272 OA
ATOM     22  N   UNL     1       4.923  11.890  -1.818  0.00  0.00    -0.277 N 
ATOM     23  H   UNL     1       5.664  11.374  -2.171  0.00  0.00    +0.155 HD
BRANCH  22  24
ATOM     24  C   UNL     1       4.970  13.276  -1.842  0.00  0.00    +0.084 A 
ATOM     25  C   UNL     1       5.979  14.095  -2.319  0.00  0.00    +0.068 A 
ATOM     26  C   UNL     1       5.777  15.540  -2.230  0.00  0.00    -0.023 A 
ATOM     27  C   UNL     1       4.612  15.921  -1.675  0.00  0.00    -0.004 A 
ATOM     28  S   UNL     1       3.783  14.402  -1.276  0.00  0.00    -0.077 S 
ATOM     29  C   UNL     1       4.479  17.419  -1.616  0.00  0.00    +0.043 C 
ATOM     30  C   UNL     1       5.540  17.944  -2.609  0.00  0.00    +0.010 C 
ATOM     31  C   UNL     1       6.567  16.794  -2.607  0.00  0.00    +0.037 C 
BRANCH  25  32
ATOM     32  C   UNL     1       7.204  13.533  -2.896  0.00  0.00    +0.244 C 
ATOM     33  O   UNL     1       7.263  13.298  -4.088  0.00  0.00    -0.270 OA
ATOM     34  N   UNL     1       8.265  13.275  -2.105  0.00  0.00    -0.325 N 
ATOM     35  H   UNL     1       8.217  13.462  -1.154  0.00  0.00    +0.145 HD
ATOM     36  H   UNL     1       9.075  12.904  -2.486  0.00  0.00    +0.145 HD
ENDBRANCH  25  32
ENDBRANCH  22  24
ENDBRANCH  19  20
ENDBRANCH   1  19
TORSDOF 9
