REMARK  Name = ZINC11872015
REMARK  5 active torsions:
REMARK  status: ('A' for Active; 'I' for Inactive)
REMARK    1  A    between atoms: C_6  and  C_7
REMARK    2  A    between atoms: C_7  and  N_59
REMARK    3  A    between atoms: C_11  and  C_14
REMARK    4  A    between atoms: C_21  and  C_22
REMARK    5  A    between atoms: C_21  and  N_61
REMARK                            x       y       z     vdW  Elec       q    Type
REMARK                         _______ _______ _______ _____ _____    ______ ____
ROOT
ATOM      1  C   UNL     1      -2.203   6.500   4.429  0.00  0.00    +0.005 A 
ATOM      2  C   UNL     1      -2.428   5.179   4.767  0.00  0.00    +0.046 A 
ATOM      3  C   UNL     1      -2.581   4.231   3.766  0.00  0.00    +0.122 A 
ATOM      4  C   UNL     1      -2.525   4.614   2.439  0.00  0.00    -0.022 A 
ATOM      5  C   UNL     1      -2.293   5.931   2.102  0.00  0.00    +0.007 A 
ATOM      6  C   UNL     1      -2.130   6.876   3.100  0.00  0.00    -0.064 A 
ATOM      7  C   UNL     1      -2.725   3.573   1.355  0.00  0.00    -0.039 C 
ATOM      8  C   UNL     1      -1.724   1.585   2.343  0.00  0.00    -0.036 C 
ATOM      9  C   UNL     1      -1.648   2.062   3.777  0.00  0.00    +0.210 C 
ATOM     10  O   UNL     1      -2.753   2.919   4.087  0.00  0.00    -0.494 OA
ATOM     11  N   UNL     1      -1.545   2.677   1.363  0.00  0.00    +0.387 N 
ATOM     12  H   UNL     1      -0.717   3.225   1.627  0.00  0.00    -0.081 HD
ENDROOT
BRANCH   6  13
ATOM     13  C   UNL     1      -1.875   8.317   2.739  0.00  0.00    -0.043 C 
BRANCH  13  19
ATOM     14  C   UNL     1       0.215   7.476   1.852  0.00  0.00    -0.078 C 
ATOM     15  C   UNL     1       1.733   7.666   1.880  0.00  0.00    -0.018 C 
ATOM     16  C   UNL     1       2.082   9.034   1.287  0.00  0.00    +0.009 C 
ATOM     17  C   UNL     1       1.362  10.126   2.083  0.00  0.00    +0.058 C 
ATOM     18  C   UNL     1      -0.145   9.864   2.050  0.00  0.00    -0.066 C 
ATOM     19  N   UNL     1      -0.417   8.543   2.656  0.00  0.00    +0.383 N 
ATOM     20  H   UNL     1      -0.022   8.524   3.603  0.00  0.00    -0.081 HD
BRANCH  17  21
ATOM     21  C   UNL     1       1.653  11.471   1.470  0.00  0.00    +0.212 C 
ATOM     22  O   UNL     1       0.745  12.154   1.047  0.00  0.00    -0.276 OA
ATOM     23  N   UNL     1       2.923  11.915   1.391  0.00  0.00    -0.329 N 
ATOM     24  H   UNL     1       3.650  11.369   1.729  0.00  0.00    +0.145 HD
ATOM     25  H   UNL     1       3.111  12.781   0.997  0.00  0.00    +0.145 HD
ENDBRANCH  17  21
ENDBRANCH  13  19
ENDBRANCH   6  13
BRANCH  11  26
ATOM     26  C   UNL     1      -1.333   2.113   0.020  0.00  0.00    -0.041 C 
BRANCH  26  27
ATOM     27  C   UNL     1      -0.017   1.379   0.010  0.00  0.00    -0.042 A 
ATOM     28  C   UNL     1       0.002  -0.004   0.002  0.00  0.00    +0.052 A 
ATOM     29  C   UNL     1       1.210  -0.681  -0.014  0.00  0.00    +0.167 A 
ATOM     30  C   UNL     1       2.406   0.034  -0.021  0.00  0.00    +0.168 A 
ATOM     31  C   UNL     1       2.381   1.419  -0.014  0.00  0.00    +0.069 A 
ATOM     32  C   UNL     1       1.170   2.089   0.002  0.00  0.00    +0.046 A 
ATOM     33 CL   UNL     1       1.141   3.825   0.011  0.00  0.00    -0.083 Cl
ATOM     34  O   UNL     1       3.444  -0.852  -0.036  0.00  0.00    -0.453 OA
ATOM     35  C   UNL     1       2.880  -2.112   0.374  0.00  0.00    +0.466 C 
ATOM     36  O   UNL     1       1.500  -2.015  -0.024  0.00  0.00    -0.453 OA
ENDBRANCH  26  27
ENDBRANCH  11  26
TORSDOF 5
