REMARK  Name = ZINC53737126
REMARK  5 active torsions:
REMARK  status: ('A' for Active; 'I' for Inactive)
REMARK    1  A    between atoms: C_1  and  C_2
REMARK    2  A    between atoms: C_2  and  N_8
REMARK    3  A    between atoms: C_12  and  N_19
REMARK    4  A    between atoms: C_16  and  C_17
REMARK    5  A    between atoms: C_17  and  O_18
REMARK                            x       y       z     vdW  Elec       q    Type
REMARK                         _______ _______ _______ _____ _____    ______ ____
ROOT
ATOM      1  N   UNL     1      -1.395  -0.455   0.057  0.00  0.00    -0.320 N 
ATOM      2  C   UNL     1      -2.384  -0.160  -0.864  0.00  0.00    +0.069 A 
ATOM      3  C   UNL     1      -2.459   0.693  -1.958  0.00  0.00    +0.030 A 
ATOM      4  C   UNL     1      -3.619   0.762  -2.696  0.00  0.00    +0.025 A 
ATOM      5  C   UNL     1      -4.722  -0.019  -2.353  0.00  0.00    +0.027 A 
ATOM      6  C   UNL     1      -4.663  -0.872  -1.267  0.00  0.00    +0.052 A 
ATOM      7  C   UNL     1      -3.490  -0.951  -0.511  0.00  0.00    +0.091 A 
ATOM      8  N   UNL     1      -3.129  -1.671   0.582  0.00  0.00    -0.230 NA
ATOM      9  C   UNL     1      -1.903  -1.385   0.910  0.00  0.00    +0.137 A 
ENDROOT
BRANCH   1  11
ATOM     10  C   UNL     1       0.968  -0.919  -0.367  0.00  0.00    +0.034 C 
ATOM     11  C   UNL     1      -0.050   0.123   0.102  0.00  0.00    +0.045 C 
ATOM     12  C   UNL     1       0.276   0.545   1.536  0.00  0.00    +0.028 C 
ATOM     13  C   UNL     1      -0.742   1.587   2.005  0.00  0.00    +0.002 C 
ATOM     14  C   UNL     1      -0.680   2.809   1.087  0.00  0.00    +0.000 C 
ATOM     15  C   UNL     1      -1.006   2.387  -0.347  0.00  0.00    +0.002 C 
ATOM     16  C   UNL     1       0.012   1.345  -0.816  0.00  0.00    +0.028 C 
ENDBRANCH   1  11
BRANCH   5  17
ATOM     17  N   UNL     1      -5.895   0.061  -3.112  0.00  0.00    -0.358 N 
ATOM     18  H   UNL     1      -5.939   0.659  -3.874  0.00  0.00    +0.142 HD
ATOM     19  H   UNL     1      -6.663  -0.481  -2.875  0.00  0.00    +0.142 HD
ENDBRANCH   5  17
BRANCH   9  20
ATOM     20  C   UNL     1      -1.155  -1.992   2.069  0.00  0.00    +0.230 C 
BRANCH  20  21
ATOM     21  O   UNL     1      -1.389  -1.216   3.245  0.00  0.00    -0.387 OA
ATOM     22  H   UNL     1      -0.937  -1.550   4.033  0.00  0.00    +0.210 HD
ENDBRANCH  20  21
ENDBRANCH   9  20
TORSDOF 4
