REMARK  Name = ZINC64695383
REMARK  7 active torsions:
REMARK  status: ('A' for Active; 'I' for Inactive)
REMARK    1  A    between atoms: C_2  and  C_3
REMARK    2  A    between atoms: C_3  and  N_4
REMARK    3  A    between atoms: C_5  and  C_7
REMARK    4  A    between atoms: C_7  and  C_8
REMARK    5  A    between atoms: C_8  and  N_9
REMARK    6  A    between atoms: N_12  and  C_13
REMARK    7  A    between atoms: C_16  and  C_20
REMARK                            x       y       z     vdW  Elec       q    Type
REMARK                         _______ _______ _______ _____ _____    ______ ____
ROOT
ATOM      1  N   UNL     1       4.353   5.861  -0.002  0.00  0.00    -0.299 N 
ATOM      2  C   UNL     1       4.581   7.190  -0.005  0.00  0.00    +0.304 C 
ATOM      3  O   UNL     1       3.646   7.967  -0.002  0.00  0.00    -0.253 OA
ATOM      4  N   UNL     1       5.845   7.657  -0.013  0.00  0.00    -0.269 N 
ATOM      5  H   UNL     1       5.098   5.241  -0.005  0.00  0.00    +0.150 HD
ATOM      6  H   UNL     1       6.590   7.039   0.052  0.00  0.00    +0.156 HD
ENDROOT
BRANCH   4   7
ATOM      7  C   UNL     1       6.082   9.028  -0.113  0.00  0.00    +0.036 A 
ATOM      8  C   UNL     1       5.215   9.928   0.499  0.00  0.00    +0.025 A 
ATOM      9  C   UNL     1       5.445  11.282   0.403  0.00  0.00    +0.022 A 
ATOM     10  C   UNL     1       6.551  11.753  -0.310  0.00  0.00    +0.070 A 
ATOM     11  C   UNL     1       7.421  10.845  -0.924  0.00  0.00    +0.060 A 
ATOM     12  C   UNL     1       7.186   9.491  -0.819  0.00  0.00    +0.044 A 
ATOM     13 CL   UNL     1       8.797  11.423  -1.811  0.00  0.00    -0.082 Cl
BRANCH  10  14
ATOM     14  C   UNL     1       6.794  13.161  -0.412  0.00  0.00    +0.101 C 
ATOM     15  N   UNL     1       6.986  14.277  -0.493  0.00  0.00    -0.191 NA
ENDBRANCH  10  14
ENDBRANCH   4   7
BRANCH   1  16
ATOM     16  C   UNL     1       2.978   5.354   0.005  0.00  0.00    +0.115 C 
BRANCH  16  17
ATOM     17  C   UNL     1       2.999   3.824   0.008  0.00  0.00    +0.114 C 
BRANCH  17  19
ATOM     18  N   UNL     1       1.357   1.974   0.019  0.00  0.00    -0.304 N 
ATOM     19  C   UNL     1       1.585   3.303   0.015  0.00  0.00    +0.215 C 
ATOM     20  O   UNL     1       0.653   4.078   0.019  0.00  0.00    -0.276 OA
ATOM     21  H   UNL     1       2.103   1.354   0.016  0.00  0.00    +0.150 HD
BRANCH  18  22
ATOM     22  C   UNL     1      -0.017   1.467   0.026  0.00  0.00    +0.193 C 
BRANCH  22  24
ATOM     23  C   UNL     1       0.020  -1.179   0.030  0.00  0.00    +0.005 C 
ATOM     24  C   UNL     1       0.003  -0.005   0.029  0.00  0.00    -0.087 C 
ENDBRANCH  22  24
ENDBRANCH  18  22
ENDBRANCH  17  19
ENDBRANCH  16  17
ENDBRANCH   1  16
TORSDOF 7
