REMARK  Name = ZINC08036901
REMARK  8 active torsions:
REMARK  status: ('A' for Active; 'I' for Inactive)
REMARK    1  A    between atoms: C_1  and  N_41
REMARK    2  A    between atoms: C_2  and  C_3
REMARK    3  A    between atoms: C_2  and  N_41
REMARK    4  A    between atoms: N_5  and  C_6
REMARK    5  A    between atoms: C_6  and  C_7
REMARK    6  A    between atoms: C_12  and  C_13
REMARK    7  A    between atoms: C_12  and  N_41
REMARK    8  A    between atoms: N_15  and  C_16
REMARK                            x       y       z     vdW  Elec       q    Type
REMARK                         _______ _______ _______ _____ _____    ______ ____
ROOT
ATOM      1  C   UNL     1       2.296   5.679   0.225  0.00  0.00    +0.019 C 
ENDROOT
BRANCH   1   2
ATOM      2  C   UNL     1       2.319   4.177   0.104  0.00  0.00    +0.201 C 
ATOM      3  O   UNL     1       3.378   3.586   0.091  0.00  0.00    -0.278 OA
ATOM      4  N   UNL     1       1.163   3.491   0.009  0.00  0.00    -0.285 N 
ATOM      5  H   UNL     1       0.321   3.967  -0.061  0.00  0.00    +0.155 HD
BRANCH   4   6
ATOM      6  C   UNL     1       1.178   2.090   0.013  0.00  0.00    +0.072 A 
ATOM      7  C   UNL     1       2.230   1.407   0.608  0.00  0.00    +0.029 A 
ATOM      8  C   UNL     1       2.244   0.026   0.611  0.00  0.00    +0.043 A 
ATOM      9  C   UNL     1       1.210  -0.680   0.022  0.00  0.00    +0.161 A 
ATOM     10  C   UNL     1       0.156  -0.003  -0.574  0.00  0.00    +0.195 A 
ATOM     11  C   UNL     1       0.139   1.381  -0.579  0.00  0.00    +0.182 A 
ATOM     12  F   UNL     1      -0.884   2.043  -1.163  0.00  0.00    -0.200 F 
ATOM     13  F   UNL     1      -0.852  -0.694  -1.149  0.00  0.00    -0.199 F 
ATOM     14  F   UNL     1       1.226  -2.031   0.026  0.00  0.00    -0.202 F 
ENDBRANCH   4   6
ENDBRANCH   1   2
BRANCH   1  16
ATOM     15  C   UNL     1       4.402   5.946  -0.941  0.00  0.00    -0.095 C 
ATOM     16  N   UNL     1       3.687   6.170   0.333  0.00  0.00    +0.389 N 
ATOM     17  H   UNL     1       4.166   5.653   1.079  0.00  0.00    -0.081 HD
BRANCH  16  18
ATOM     18  C   UNL     1       3.689   7.610   0.667  0.00  0.00    +0.019 C 
BRANCH  18  19
ATOM     19  C   UNL     1       5.100   8.032   0.987  0.00  0.00    +0.197 C 
ATOM     20  O   UNL     1       6.003   7.225   0.925  0.00  0.00    -0.278 OA
ATOM     21  N   UNL     1       5.358   9.306   1.342  0.00  0.00    -0.310 N 
ATOM     22  H   UNL     1       4.636   9.951   1.392  0.00  0.00    +0.149 HD
BRANCH  21  23
ATOM     23  C   UNL     1       6.730   9.716   1.653  0.00  0.00    +0.178 C 
BRANCH  23  24
ATOM     24  C   UNL     1       6.747  11.178   2.018  0.00  0.00    +0.122 A 
ATOM     25  C   UNL     1       6.596  11.682   3.256  0.00  0.00    +0.046 A 
ATOM     26  C   UNL     1       6.677  13.089   3.138  0.00  0.00    +0.041 A 
ATOM     27  C   UNL     1       6.874  13.360   1.836  0.00  0.00    +0.195 A 
ATOM     28  O   UNL     1       6.920  12.199   1.162  0.00  0.00    -0.466 OA
ENDBRANCH  23  24
ENDBRANCH  21  23
ENDBRANCH  18  19
ENDBRANCH  16  18
ENDBRANCH   1  16
TORSDOF 7
