REMARK  Name = ZINC36542526
REMARK  18 active torsions:
REMARK  status: ('A' for Active; 'I' for Inactive)
REMARK    1  A    between atoms: C_1  and  C_2
REMARK    2  A    between atoms: C_2  and  C_3
REMARK    3  A    between atoms: C_3  and  C_4
REMARK    4  A    between atoms: C_4  and  C_5
REMARK    5  A    between atoms: C_5  and  C_7
REMARK    6  A    between atoms: C_5  and  C_9
REMARK    7  A    between atoms: C_7  and  C_8
REMARK    8  A    between atoms: N_11  and  C_12
REMARK    9  A    between atoms: N_11  and  C_19
REMARK   10  A    between atoms: C_19  and  C_21
REMARK   11  A    between atoms: C_19  and  C_30
REMARK   12  A    between atoms: C_22  and  O_29
REMARK   13  A    between atoms: C_24  and  O_28
REMARK   14  A    between atoms: C_26  and  O_27
REMARK   15  A    between atoms: N_32  and  C_33
REMARK   16  A    between atoms: C_33  and  C_34
REMARK   17  A    between atoms: C_33  and  C_35
REMARK   18  A    between atoms: C_33  and  C_36
REMARK                            x       y       z     vdW  Elec       q    Type
REMARK                         _______ _______ _______ _____ _____    ______ ____
ROOT
ATOM      1  C   UNL     1      -3.736  -6.577   0.336  0.00  0.00    +0.204 C 
ENDROOT
BRANCH   1   2
ATOM      2  C   UNL     1      -3.198  -6.277  -1.039  0.00  0.00    +0.065 A 
ATOM      3  C   UNL     1      -3.607  -5.135  -1.710  0.00  0.00    +0.129 A 
ATOM      4  C   UNL     1      -3.112  -4.859  -2.976  0.00  0.00    +0.091 A 
ATOM      5  C   UNL     1      -2.207  -5.726  -3.570  0.00  0.00    +0.124 A 
ATOM      6  C   UNL     1      -1.797  -6.868  -2.899  0.00  0.00    +0.091 A 
ATOM      7  C   UNL     1      -2.288  -7.141  -1.631  0.00  0.00    +0.129 A 
BRANCH   7   8
ATOM      8  O   UNL     1      -1.883  -8.258  -0.971  0.00  0.00    -0.506 OA
ATOM      9  H   UNL     1      -2.432  -9.036  -1.140  0.00  0.00    +0.292 HD
ENDBRANCH   7   8
BRANCH   5  10
ATOM     10  O   UNL     1      -1.722  -5.456  -4.811  0.00  0.00    -0.507 OA
ATOM     11  H   UNL     1      -0.914  -4.926  -4.811  0.00  0.00    +0.292 HD
ENDBRANCH   5  10
BRANCH   3  12
ATOM     12  O   UNL     1      -4.494  -4.286  -1.128  0.00  0.00    -0.506 OA
ATOM     13  H   UNL     1      -4.082  -3.544  -0.664  0.00  0.00    +0.292 HD
ENDBRANCH   3  12
ENDBRANCH   1   2
BRANCH   1  14
ATOM     14  C   UNL     1      -5.145  -7.098   0.222  0.00  0.00    +0.239 C 
ATOM     15  O   UNL     1      -6.076  -6.322   0.169  0.00  0.00    -0.273 OA
ATOM     16  N   UNL     1      -5.372  -8.426   0.178  0.00  0.00    -0.309 N 
ATOM     17  H   UNL     1      -4.627  -9.046   0.220  0.00  0.00    +0.149 HD
BRANCH  16  18
ATOM     18  C   UNL     1      -6.742  -8.932   0.067  0.00  0.00    +0.026 C 
ATOM     19  C   UNL     1      -7.377  -8.406  -1.222  0.00  0.00    +0.031 C 
ATOM     20  C   UNL     1      -6.720 -10.461   0.037  0.00  0.00    +0.031 C 
ATOM     21  C   UNL     1      -7.560  -8.457   1.269  0.00  0.00    +0.031 C 
ENDBRANCH  16  18
ENDBRANCH   1  14
BRANCH   1  24
ATOM     22  C   UNL     1      -2.621  -4.591   1.202  0.00  0.00    +0.224 C 
ATOM     23  O   UNL     1      -1.659  -4.864   0.515  0.00  0.00    -0.275 OA
ATOM     24  N   UNL     1      -3.731  -5.352   1.140  0.00  0.00    -0.253 N 
BRANCH  24  25
ATOM     25  C   UNL     1      -4.880  -4.973   1.843  0.00  0.00    +0.056 A 
ATOM     26  C   UNL     1      -5.722  -3.996   1.327  0.00  0.00    +0.025 A 
ATOM     27  C   UNL     1      -6.855  -3.624   2.023  0.00  0.00    +0.002 A 
ATOM     28  C   UNL     1      -7.153  -4.222   3.234  0.00  0.00    +0.002 A 
ATOM     29  C   UNL     1      -6.317  -5.194   3.752  0.00  0.00    +0.022 A 
ATOM     30  C   UNL     1      -5.185  -5.576   3.058  0.00  0.00    +0.062 A 
ATOM     31 CL   UNL     1      -4.140  -6.802   3.705  0.00  0.00    -0.082 Cl
ENDBRANCH  24  25
BRANCH  22  32
ATOM     32  C   UNL     1      -2.574  -3.400   2.124  0.00  0.00    +0.075 C 
BRANCH  32  33
ATOM     33  C   UNL     1      -2.115  -3.849   3.514  0.00  0.00    +0.009 C 
ATOM     34  C   UNL     1      -0.713  -4.452   3.417  0.00  0.00    +0.004 C 
ENDBRANCH  32  33
BRANCH  32  35
ATOM     35  C   UNL     1      -1.591  -2.366   1.573  0.00  0.00    +0.013 C 
BRANCH  35  36
ATOM     36  C   UNL     1      -1.623  -1.113   2.451  0.00  0.00    +0.000 C 
BRANCH  36  38
ATOM     37  C   UNL     1      -0.613   1.141   2.826  0.00  0.00    +0.004 C 
ATOM     38  C   UNL     1      -0.582  -0.111   1.948  0.00  0.00    -0.003 C 
ENDBRANCH  36  38
ENDBRANCH  35  36
ENDBRANCH  32  35
ENDBRANCH  22  32
ENDBRANCH   1  24
TORSDOF 13
