REMARK  Name = ZINC43262372
REMARK  9 active torsions:
REMARK  status: ('A' for Active; 'I' for Inactive)
REMARK    1  A    between atoms: C_1  and  C_2
REMARK    2  A    between atoms: C_2  and  C_3
REMARK    3  A    between atoms: C_3  and  C_5
REMARK    4  A    between atoms: C_3  and  N_22
REMARK    5  A    between atoms: C_5  and  C_7
REMARK    6  A    between atoms: C_5  and  N_13
REMARK    7  A    between atoms: N_13  and  C_14
REMARK    8  A    between atoms: N_13  and  C_15
REMARK    9  A    between atoms: C_15  and  C_16
REMARK                            x       y       z     vdW  Elec       q    Type
REMARK                         _______ _______ _______ _____ _____    ______ ____
ROOT
ATOM      1  C   UNL     1       0.985  -2.015   1.236  0.00  0.00    +0.079 C 
ENDROOT
BRANCH   1   2
ATOM      2  C   UNL     1       1.497  -2.696   2.479  0.00  0.00    +0.006 A 
ATOM      3  C   UNL     1       0.798  -3.277   3.483  0.00  0.00    +0.014 A 
ATOM      4  C   UNL     1       1.486  -3.847   4.538  0.00  0.00    +0.023 A 
ATOM      5  C   UNL     1       2.842  -3.807   4.535  0.00  0.00    +0.055 A 
ATOM      6  S   UNL     1       3.183  -2.952   3.006  0.00  0.00    -0.085 S 
ATOM      7 BR   UNL     1       4.056  -4.488   5.816  0.00  0.00    -0.043 Br
ENDBRANCH   1   2
BRANCH   1   8
ATOM      8  N   UNL     1       1.833  -2.378   0.093  0.00  0.00    -0.295 NA
ATOM      9  C   UNL     1       1.978  -3.837  -0.012  0.00  0.00    +0.105 C 
BRANCH   8  10
ATOM     10  C   UNL     1       1.307  -1.810  -1.155  0.00  0.00    +0.127 C 
BRANCH  10  11
ATOM     11  C   UNL     1       2.370  -1.872  -2.222  0.00  0.00    +0.005 A 
ATOM     12  C   UNL     1       2.623  -2.857  -3.118  0.00  0.00    +0.027 A 
ATOM     13  C   UNL     1       3.663  -2.696  -4.016  0.00  0.00    +0.025 A 
ATOM     14  C   UNL     1       4.397  -1.557  -3.972  0.00  0.00    +0.060 A 
ATOM     15  S   UNL     1       3.616  -0.664  -2.639  0.00  0.00    -0.099 S 
ATOM     16 BR   UNL     1       4.054  -4.043  -5.283  0.00  0.00    -0.050 Br
ENDBRANCH  10  11
ENDBRANCH   8  10
ENDBRANCH   1   8
BRANCH   1  17
ATOM     17  C   UNL     1       1.019  -0.498   1.434  0.00  0.00    -0.053 C 
BRANCH  17  18
ATOM     18  N   UNL     1       2.401  -0.067   1.679  0.00  0.00    +0.381 N 
ATOM     19  H   UNL     1       2.754  -0.523   2.507  0.00  0.00    -0.090 HD
ATOM     20  H   UNL     1       2.976  -0.316   0.888  0.00  0.00    -0.090 HD
ATOM     21  H   UNL     1       2.424   0.933   1.810  0.00  0.00    -0.090 HD
ENDBRANCH  17  18
BRANCH  17  23
ATOM     22  C   UNL     1       0.063   1.403   2.744  0.00  0.00    +0.002 C 
ATOM     23  C   UNL     1       0.147  -0.121   2.634  0.00  0.00    -0.018 C 
ENDBRANCH  17  23
ENDBRANCH   1  17
TORSDOF 7
