REMARK  Name = ZINC09282213
REMARK  5 active torsions:
REMARK  status: ('A' for Active; 'I' for Inactive)
REMARK    1  A    between atoms: C_4  and  C_7
REMARK    2  A    between atoms: C_14  and  N_39
REMARK    3  A    between atoms: C_15  and  C_37
REMARK    4  A    between atoms: N_23  and  C_26
REMARK    5  A    between atoms: C_26  and  C_27
REMARK                            x       y       z     vdW  Elec       q    Type
REMARK                         _______ _______ _______ _____ _____    ______ ____
ROOT
ATOM      1  C   UNL     1       3.706  -0.444   0.282  0.00  0.00    +0.101 A 
ATOM      2  C   UNL     1       4.014  -1.668   0.882  0.00  0.00    +0.066 A 
ATOM      3  C   UNL     1       5.321  -1.957   0.605  0.00  0.00    +0.224 A 
ATOM      4  N   UNL     1       5.814  -0.948  -0.142  0.00  0.00    -0.246 N 
ATOM      5  H   UNL     1       6.718  -0.883  -0.486  0.00  0.00    +0.192 HD
ATOM      6  N   UNL     1       4.787  -0.012  -0.339  0.00  0.00    -0.171 NA
ATOM      7  O   UNL     1       5.928  -3.086   1.048  0.00  0.00    -0.423 OA
ATOM      8  C   UNL     1       5.151  -4.066   1.552  0.00  0.00    +0.201 C 
ATOM      9  C   UNL     1       3.848  -3.898   1.879  0.00  0.00    +0.110 C 
ATOM     10  C   UNL     1       3.146  -2.579   1.703  0.00  0.00    +0.145 C 
ATOM     11  C   UNL     1       2.807  -1.964   3.023  0.00  0.00    -0.001 A 
ATOM     12  C   UNL     1       3.600  -1.556   4.074  0.00  0.00    +0.007 A 
ATOM     13  C   UNL     1       2.954  -1.012   5.178  0.00  0.00    +0.000 A 
ATOM     14  C   UNL     1       1.580  -0.886   5.217  0.00  0.00    +0.002 A 
ATOM     15  C   UNL     1       0.776  -1.294   4.165  0.00  0.00    +0.024 A 
ATOM     16  C   UNL     1       1.412  -1.843   3.050  0.00  0.00    +0.041 A 
ATOM     17  N   UNL     1       0.864  -2.328   1.876  0.00  0.00    -0.265 N 
ATOM     18  C   UNL     1       1.809  -2.782   1.026  0.00  0.00    +0.241 C 
ATOM     19  O   UNL     1       1.622  -3.262  -0.072  0.00  0.00    -0.274 OA
ENDROOT
BRANCH   1  23
ATOM     20  C   UNL     1      -0.057   1.533   0.418  0.00  0.00    +0.000 A 
ATOM     21  C   UNL     1       0.541   1.107   1.591  0.00  0.00    +0.001 A 
ATOM     22  C   UNL     1       1.762   0.465   1.552  0.00  0.00    +0.010 A 
ATOM     23  C   UNL     1       2.393   0.246   0.330  0.00  0.00    +0.003 A 
ATOM     24  C   UNL     1       1.786   0.677  -0.848  0.00  0.00    +0.010 A 
ATOM     25  C   UNL     1       0.565   1.318  -0.798  0.00  0.00    +0.001 A 
ENDBRANCH   1  23
BRANCH   8  26
ATOM     26  N   UNL     1       5.713  -5.303   1.746  0.00  0.00    -0.328 N 
ATOM     27  H   UNL     1       6.645  -5.453   1.522  0.00  0.00    +0.145 HD
ATOM     28  H   UNL     1       5.179  -6.027   2.108  0.00  0.00    +0.145 HD
ENDBRANCH   8  26
BRANCH   9  29
ATOM     29  C   UNL     1       3.116  -5.009   2.407  0.00  0.00    +0.102 C 
ATOM     30  N   UNL     1       2.535  -5.891   2.825  0.00  0.00    -0.191 NA
ENDBRANCH   9  29
BRANCH  17  31
ATOM     31  C   UNL     1      -0.573  -2.346   1.588  0.00  0.00    +0.149 C 
BRANCH  31  32
ATOM     32  C   UNL     1      -1.078  -3.765   1.642  0.00  0.00    -0.022 A 
ATOM     33  C   UNL     1      -1.205  -4.490   0.497  0.00  0.00    +0.006 A 
ATOM     34  C   UNL     1      -1.671  -5.803   0.527  0.00  0.00    +0.001 A 
ATOM     35  C   UNL     1      -2.012  -6.399   1.703  0.00  0.00    +0.008 A 
ATOM     36  C   UNL     1      -1.894  -5.682   2.905  0.00  0.00    -0.018 A 
ATOM     37  C   UNL     1      -1.414  -4.349   2.875  0.00  0.00    -0.013 A 
ATOM     38  C   UNL     1      -1.291  -3.634   4.079  0.00  0.00    +0.009 A 
ATOM     39  C   UNL     1      -1.626  -4.232   5.255  0.00  0.00    +0.001 A 
ATOM     40  C   UNL     1      -2.091  -5.545   5.285  0.00  0.00    +0.001 A 
ATOM     41  C   UNL     1      -2.237  -6.264   4.138  0.00  0.00    +0.008 A 
ENDBRANCH  31  32
ENDBRANCH  17  31
TORSDOF 5
