REMARK  Name = ZINC09120193
REMARK  7 active torsions:
REMARK  status: ('A' for Active; 'I' for Inactive)
REMARK    1  A    between atoms: C_1  and  C_2
REMARK    2  A    between atoms: C_2  and  C_3
REMARK    3  A    between atoms: C_3  and  N_4
REMARK    4  A    between atoms: C_13  and  C_15
REMARK    5  A    between atoms: N_17  and  C_18
REMARK    6  A    between atoms: C_19  and  C_29
REMARK    7  A    between atoms: C_24  and  C_28
REMARK                            x       y       z     vdW  Elec       q    Type
REMARK                         _______ _______ _______ _____ _____    ______ ____
ROOT
ATOM      1  C   UNL     1      -2.168  -1.335   3.539  0.00  0.00    +0.269 C 
ATOM      2  O   UNL     1      -3.200  -1.946   3.342  0.00  0.00    -0.268 OA
ATOM      3  N   UNL     1      -1.439  -0.889   2.497  0.00  0.00    -0.274 N 
ATOM      4  H   UNL     1      -0.615  -0.401   2.654  0.00  0.00    +0.156 HD
ENDROOT
BRANCH   1  14
ATOM      5  N   UNL     1      -0.140  -0.159   6.306  0.00  0.00    -0.228 N 
ATOM      6  C   UNL     1      -0.749  -0.534   7.450  0.00  0.00    +0.275 A 
ATOM      7  O   UNL     1      -0.264  -0.258   8.532  0.00  0.00    -0.266 OA
ATOM      8  C   UNL     1      -2.010  -1.283   7.360  0.00  0.00    +0.050 A 
ATOM      9  C   UNL     1      -2.714  -1.714   8.479  0.00  0.00    +0.014 A 
ATOM     10  C   UNL     1      -3.891  -2.411   8.309  0.00  0.00    +0.001 A 
ATOM     11  C   UNL     1      -4.377  -2.685   7.037  0.00  0.00    +0.001 A 
ATOM     12  C   UNL     1      -3.693  -2.266   5.916  0.00  0.00    +0.011 A 
ATOM     13  C   UNL     1      -2.507  -1.557   6.065  0.00  0.00    +0.020 A 
ATOM     14  C   UNL     1      -1.714  -1.080   4.920  0.00  0.00    +0.154 A 
ATOM     15  N   UNL     1      -0.602  -0.421   5.142  0.00  0.00    -0.163 NA
BRANCH   5  16
ATOM     16  C   UNL     1       1.116   0.588   6.401  0.00  0.00    +0.147 C 
BRANCH  16  18
ATOM     17  C   UNL     1       3.604   0.388   6.520  0.00  0.00    +0.005 C 
ATOM     18  C   UNL     1       2.292  -0.392   6.420  0.00  0.00    +0.020 C 
ENDBRANCH  16  18
ENDBRANCH   5  16
ENDBRANCH   1  14
BRANCH   3  19
ATOM     19  C   UNL     1      -1.865  -1.129   1.201  0.00  0.00    +0.085 A 
ATOM     20  C   UNL     1      -1.258  -0.754   0.010  0.00  0.00    +0.068 A 
ATOM     21  C   UNL     1      -1.919  -1.129  -1.228  0.00  0.00    -0.023 A 
ATOM     22  C   UNL     1      -3.069  -1.821  -1.079  0.00  0.00    -0.004 A 
ATOM     23  S   UNL     1      -3.285  -1.969   0.672  0.00  0.00    -0.077 S 
ATOM     24  C   UNL     1      -3.960  -2.339  -2.166  0.00  0.00    +0.046 C 
ATOM     25  C   UNL     1      -3.566  -1.651  -3.482  0.00  0.00    -0.009 C 
ATOM     26  C   UNL     1      -2.044  -1.718  -3.637  0.00  0.00    +0.008 C 
ATOM     27  C   UNL     1      -1.376  -0.799  -2.613  0.00  0.00    +0.037 C 
ATOM     28  C   UNL     1      -4.236  -2.368  -4.655  0.00  0.00    +0.008 C 
BRANCH  20  29
ATOM     29  C   UNL     1       0.002  -0.004   0.002  0.00  0.00    +0.244 C 
ATOM     30  O   UNL     1       1.064  -0.598  -0.011  0.00  0.00    -0.270 OA
ATOM     31  N   UNL     1      -0.016   1.344   0.009  0.00  0.00    -0.325 N 
ATOM     32  H   UNL     1       0.817   1.840   0.004  0.00  0.00    +0.145 HD
ATOM     33  H   UNL     1      -0.863   1.817   0.016  0.00  0.00    +0.145 HD
ENDBRANCH  20  29
ENDBRANCH   3  19
TORSDOF 5
