REMARK  Name = ZINC22624849
REMARK  6 active torsions:
REMARK  status: ('A' for Active; 'I' for Inactive)
REMARK    1  A    between atoms: C_1  and  O_2
REMARK    2  A    between atoms: O_2  and  C_3
REMARK    3  A    between atoms: C_5  and  C_13
REMARK    4  A    between atoms: C_14  and  C_15
REMARK    5  A    between atoms: N_17  and  N_18
REMARK    6  A    between atoms: C_19  and  C_21
REMARK                            x       y       z     vdW  Elec       q    Type
REMARK                         _______ _______ _______ _____ _____    ______ ____
ROOT
ATOM      1  C   UNL     1      -4.851   0.229   0.037  0.00  0.00    +0.013 C 
ATOM      2  C   UNL     1      -4.802   1.578   0.037  0.00  0.00    +0.069 C 
ENDROOT
BRANCH   1   5
ATOM      3  C   UNL     1      -1.201  -0.638   0.010  0.00  0.00    +0.166 A 
ATOM      4  C   UNL     1      -2.368   0.101   0.019  0.00  0.00    +0.057 A 
ATOM      5  C   UNL     1      -3.606  -0.552   0.028  0.00  0.00    -0.018 A 
ATOM      6  C   UNL     1      -3.655  -1.950   0.029  0.00  0.00    +0.057 A 
ATOM      7  C   UNL     1      -2.482  -2.683   0.020  0.00  0.00    +0.166 A 
ATOM      8  C   UNL     1      -1.253  -2.031   0.003  0.00  0.00    +0.204 A 
ATOM      9  O   UNL     1      -0.090  -2.739  -0.019  0.00  0.00    -0.482 OA
ATOM     10  C   UNL     1      -0.170  -4.119   0.352  0.00  0.00    +0.270 C 
ATOM     11  C   UNL     1      -1.364  -4.745  -0.380  0.00  0.00    +0.270 C 
ATOM     12  O   UNL     1      -2.548  -4.043   0.025  0.00  0.00    -0.485 OA
BRANCH   3  14
ATOM     13  C   UNL     1      -0.017   1.425   0.010  0.00  0.00    +0.277 C 
ATOM     14  O   UNL     1       0.002  -0.004   0.002  0.00  0.00    -0.491 OA
ENDBRANCH   3  14
ENDBRANCH   1   5
BRANCH   2  15
ATOM     15  C   UNL     1      -6.041   2.355   0.046  0.00  0.00    +0.253 C 
ATOM     16  O   UNL     1      -7.117   1.786   0.054  0.00  0.00    -0.269 OA
ATOM     17  N   UNL     1      -5.992   3.702   0.046  0.00  0.00    -0.231 N 
ATOM     18  H   UNL     1      -5.135   4.156   0.040  0.00  0.00    +0.173 HD
BRANCH  17  19
ATOM     19  N   UNL     1      -7.179   4.446   0.055  0.00  0.00    -0.230 N 
ATOM     20  C   UNL     1      -7.129   5.793   0.055  0.00  0.00    +0.267 C 
ATOM     21  O   UNL     1      -6.054   6.363   0.047  0.00  0.00    -0.268 OA
ATOM     22  H   UNL     1      -8.036   3.992   0.061  0.00  0.00    +0.173 HD
BRANCH  20  23
ATOM     23  C   UNL     1      -8.371   6.572   0.064  0.00  0.00    +0.075 A 
ATOM     24  C   UNL     1      -8.540   7.948   0.060  0.00  0.00    +0.021 A 
ATOM     25  C   UNL     1      -9.841   8.390   0.071  0.00  0.00    +0.008 A 
ATOM     26  C   UNL     1     -10.846   7.481   0.085  0.00  0.00    +0.046 A 
ATOM     27  S   UNL     1     -10.059   5.997   0.075  0.00  0.00    -0.092 S 
ENDBRANCH  20  23
ENDBRANCH  17  19
ENDBRANCH   2  15
TORSDOF 5
