REMARK  Name = ZINC00855677
REMARK  6 active torsions:
REMARK  status: ('A' for Active; 'I' for Inactive)
REMARK    1  A    between atoms: C_1  and  C_2
REMARK    2  A    between atoms: C_2  and  C_3
REMARK    3  A    between atoms: C_2  and  C_4
REMARK    4  A    between atoms: C_2  and  C_5
REMARK    5  A    between atoms: C_17  and  C_20
REMARK    6  A    between atoms: C_23  and  N_26
REMARK                            x       y       z     vdW  Elec       q    Type
REMARK                         _______ _______ _______ _____ _____    ______ ____
ROOT
ATOM      1  C   UNL     1      -1.444   2.884  -6.982  0.00  0.00    -0.000 C 
ATOM      2  C   UNL     1      -2.779   2.306  -6.503  0.00  0.00    +0.009 C 
ATOM      3  C   UNL     1      -2.591   1.615  -5.151  0.00  0.00    +0.037 C 
ATOM      4  C   UNL     1      -1.909   2.585  -4.193  0.00  0.00    -0.023 A 
ATOM      5  C   UNL     1      -1.246   3.668  -4.659  0.00  0.00    -0.004 A 
ATOM      6  S   UNL     1      -0.631   4.486  -3.211  0.00  0.00    -0.078 S 
ATOM      7  C   UNL     1      -1.240   3.417  -2.020  0.00  0.00    +0.080 A 
ATOM      8  C   UNL     1      -1.917   2.427  -2.748  0.00  0.00    +0.068 A 
ATOM      9  C   UNL     1      -2.561   1.335  -1.982  0.00  0.00    +0.248 C 
ATOM     10  O   UNL     1      -3.260   0.503  -2.531  0.00  0.00    -0.270 OA
ATOM     11  N   UNL     1      -2.340   1.300  -0.651  0.00  0.00    -0.289 N 
ATOM     12  C   UNL     1      -1.332   2.114   0.020  0.00  0.00    +0.190 C 
ATOM     13  N   UNL     1      -1.163   3.415  -0.652  0.00  0.00    -0.316 N 
ATOM     14  C   UNL     1      -1.074   4.077  -6.089  0.00  0.00    +0.046 C 
ATOM     15  H   UNL     1      -2.881   0.702  -0.112  0.00  0.00    +0.151 HD
ATOM     16  H   UNL     1      -1.004   4.230  -0.151  0.00  0.00    +0.149 HD
ENDROOT
BRANCH  12  17
ATOM     17  C   UNL     1      -0.017   1.378   0.010  0.00  0.00    -0.009 A 
ATOM     18  C   UNL     1       1.171   2.086   0.002  0.00  0.00    +0.009 A 
ATOM     19  C   UNL     1       2.377   1.411  -0.014  0.00  0.00    +0.033 A 
ATOM     20  C   UNL     1       2.396   0.029  -0.021  0.00  0.00    +0.126 A 
ATOM     21  C   UNL     1       1.208  -0.679  -0.014  0.00  0.00    +0.033 A 
ATOM     22  C   UNL     1       0.002  -0.004   0.002  0.00  0.00    +0.009 A 
BRANCH  20  23
ATOM     23  N   UNL     1       3.688  -0.694  -0.037  0.00  0.00    +0.056 N 
ATOM     24  O   UNL     1       3.704  -1.912  -0.044  0.00  0.00    -0.126 OA
ATOM     25  O   UNL     1       4.734  -0.071  -0.044  0.00  0.00    -0.126 OA
ENDBRANCH  20  23
ENDBRANCH  12  17
BRANCH   1  27
ATOM     26  C   UNL     1      -0.245   3.943  -8.901  0.00  0.00    +0.011 C 
ATOM     27  C   UNL     1      -1.576   3.351  -8.433  0.00  0.00    -0.035 C 
ATOM     28  C   UNL     1      -1.945   2.161  -9.321  0.00  0.00    +0.011 C 
ATOM     29  C   UNL     1      -2.669   4.417  -8.529  0.00  0.00    +0.011 C 
ENDBRANCH   1  27
TORSDOF 3
