REMARK  Name = ZINC04525120
REMARK  8 active torsions:
REMARK  status: ('A' for Active; 'I' for Inactive)
REMARK    1  A    between atoms: C_1  and  O_2
REMARK    2  A    between atoms: O_2  and  C_3
REMARK    3  A    between atoms: C_7  and  C_10
REMARK    4  A    between atoms: C_8  and  O_9
REMARK    5  A    between atoms: C_11  and  C_12
REMARK    6  A    between atoms: C_11  and  C_14
REMARK    7  A    between atoms: N_16  and  C_17
REMARK    8  A    between atoms: C_20  and  O_23
REMARK                            x       y       z     vdW  Elec       q    Type
REMARK                         _______ _______ _______ _____ _____    ______ ____
ROOT
ATOM      1  C   UNL     1       3.616  -4.885  -0.271  0.00  0.00    +0.035 C 
ATOM      2  C   UNL     1       2.459  -4.271   0.160  0.00  0.00    +0.114 C 
ENDROOT
BRANCH   1   7
ATOM      3  C   UNL     1       7.242  -4.021   0.205  0.00  0.00    +0.163 A 
ATOM      4  C   UNL     1       7.271  -2.731  -0.299  0.00  0.00    +0.069 A 
ATOM      5  C   UNL     1       6.116  -2.143  -0.791  0.00  0.00    +0.045 A 
ATOM      6  C   UNL     1       4.925  -2.836  -0.786  0.00  0.00    +0.031 A 
ATOM      7  C   UNL     1       4.878  -4.143  -0.280  0.00  0.00    +0.023 A 
ATOM      8  C   UNL     1       6.049  -4.734   0.224  0.00  0.00    +0.166 A 
ATOM      9 CL   UNL     1       6.170  -0.525  -1.419  0.00  0.00    -0.083 Cl
BRANCH   3  11
ATOM     10  C   UNL     1       9.570  -3.796   0.641  0.00  0.00    +0.277 C 
ATOM     11  O   UNL     1       8.381  -4.588   0.687  0.00  0.00    -0.491 OA
ENDBRANCH   3  11
BRANCH   8  12
ATOM     12  O   UNL     1       6.017  -5.996   0.722  0.00  0.00    -0.503 OA
ATOM     13  H   UNL     1       6.190  -6.683   0.064  0.00  0.00    +0.292 HD
ENDBRANCH   8  12
ENDBRANCH   1   7
BRANCH   2  14
ATOM     14  C   UNL     1       2.525  -2.959   0.822  0.00  0.00    +0.259 C 
ATOM     15  O   UNL     1       3.604  -2.477   1.110  0.00  0.00    -0.269 OA
ATOM     16  N   UNL     1       1.390  -2.291   1.108  0.00  0.00    -0.281 N 
ATOM     17  H   UNL     1       0.529  -2.707   0.945  0.00  0.00    +0.155 HD
BRANCH  16  18
ATOM     18  C   UNL     1       1.454  -0.998   1.642  0.00  0.00    +0.034 A 
ATOM     19  C   UNL     1       0.501  -0.052   1.288  0.00  0.00    +0.027 A 
ATOM     20  C   UNL     1       0.565   1.222   1.815  0.00  0.00    +0.047 A 
ATOM     21  C   UNL     1       1.581   1.558   2.698  0.00  0.00    +0.117 A 
ATOM     22  C   UNL     1       2.533   0.614   3.052  0.00  0.00    +0.047 A 
ATOM     23  C   UNL     1       2.471  -0.661   2.526  0.00  0.00    +0.027 A 
BRANCH  21  24
ATOM     24  O   UNL     1       1.643   2.813   3.217  0.00  0.00    -0.507 OA
ATOM     25  H   UNL     1       1.155   2.921   4.045  0.00  0.00    +0.292 HD
ENDBRANCH  21  24
ENDBRANCH  16  18
ENDBRANCH   2  14
BRANCH   2  26
ATOM     26  C   UNL     1       1.194  -4.911  -0.037  0.00  0.00    +0.104 C 
ATOM     27  N   UNL     1       0.190  -5.418  -0.194  0.00  0.00    -0.191 NA
ENDBRANCH   2  26
TORSDOF 7
