REMARK  Name = ZINC10000992
REMARK  9 active torsions:
REMARK  status: ('A' for Active; 'I' for Inactive)
REMARK    1  A    between atoms: C_1  and  C_2
REMARK    2  A    between atoms: C_2  and  C_3
REMARK    3  A    between atoms: C_2  and  C_4
REMARK    4  A    between atoms: C_4  and  C_6
REMARK    5  A    between atoms: C_4  and  N_19
REMARK    6  A    between atoms: N_8  and  N_9
REMARK    7  A    between atoms: C_10  and  C_11
REMARK    8  A    between atoms: C_14  and  O_18
REMARK    9  A    between atoms: C_20  and  C_22
REMARK                            x       y       z     vdW  Elec       q    Type
REMARK                         _______ _______ _______ _____ _____    ______ ____
ROOT
ATOM      1  C   UNL     1       2.219  -4.353  -0.024  0.00  0.00    +0.163 C 
ENDROOT
BRANCH   1   2
ATOM      2  C   UNL     1       3.353  -4.868  -0.872  0.00  0.00    +0.253 C 
ATOM      3  O   UNL     1       4.242  -4.118  -1.216  0.00  0.00    -0.272 OA
ATOM      4  N   UNL     1       3.381  -6.162  -1.247  0.00  0.00    -0.205 N 
ATOM      5  H   UNL     1       2.635  -6.745  -1.034  0.00  0.00    +0.177 HD
BRANCH   4   6
ATOM      6  N   UNL     1       4.486  -6.666  -1.946  0.00  0.00    -0.188 NA
ATOM      7  C   UNL     1       4.512  -7.912  -2.307  0.00  0.00    +0.138 C 
BRANCH   7   8
ATOM      8  C   UNL     1       5.675  -8.442  -3.043  0.00  0.00    -0.004 A 
ATOM      9  C   UNL     1       6.747  -7.603  -3.357  0.00  0.00    +0.013 A 
ATOM     10  C   UNL     1       7.834  -8.103  -4.040  0.00  0.00    +0.047 A 
ATOM     11  C   UNL     1       7.861  -9.437  -4.426  0.00  0.00    +0.131 A 
ATOM     12  C   UNL     1       6.795 -10.274  -4.121  0.00  0.00    +0.060 A 
ATOM     13  C   UNL     1       5.705  -9.783  -3.433  0.00  0.00    +0.028 A 
ATOM     14 BR   UNL     1       6.838 -12.089  -4.650  0.00  0.00    -0.047 Br
BRANCH  11  15
ATOM     15  O   UNL     1       8.933  -9.925  -5.104  0.00  0.00    -0.506 OA
ATOM     16  H   UNL     1       8.856  -9.852  -6.065  0.00  0.00    +0.292 HD
ENDBRANCH  11  15
ENDBRANCH   7   8
ENDBRANCH   4   6
ENDBRANCH   1   2
BRANCH   1  17
ATOM     17  N   UNL     1       2.038  -2.920  -0.268  0.00  0.00    -0.300 N 
ATOM     18  C   UNL     1       0.839  -2.345  -0.051  0.00  0.00    +0.245 C 
ATOM     19  O   UNL     1      -0.093  -3.016   0.348  0.00  0.00    -0.270 OA
ATOM     20  H   UNL     1       2.782  -2.385  -0.586  0.00  0.00    +0.150 HD
BRANCH  18  21
ATOM     21  C   UNL     1       0.657  -0.900  -0.296  0.00  0.00    +0.037 A 
ATOM     22  C   UNL     1      -0.584  -0.301  -0.072  0.00  0.00    +0.016 A 
ATOM     23  C   UNL     1      -0.749   1.047  -0.303  0.00  0.00    +0.039 A 
ATOM     24  C   UNL     1       0.316   1.810  -0.758  0.00  0.00    +0.123 A 
ATOM     25  C   UNL     1       1.551   1.221  -0.983  0.00  0.00    +0.039 A 
ATOM     26  C   UNL     1       1.726  -0.127  -0.755  0.00  0.00    +0.016 A 
ATOM     27  F   UNL     1       0.150   3.132  -0.984  0.00  0.00    -0.205 F 
ENDBRANCH  18  21
ENDBRANCH   1  17
BRANCH   1  29
ATOM     28  C   UNL     1       1.368  -4.105   2.312  0.00  0.00    +0.009 C 
ATOM     29  C   UNL     1       2.541  -4.582   1.454  0.00  0.00    +0.012 C 
ATOM     30  C   UNL     1       2.779  -6.074   1.698  0.00  0.00    +0.009 C 
ENDBRANCH   1  29
TORSDOF 7
