REMARK  Name = ZINC20231203
REMARK  3 active torsions:
REMARK  status: ('A' for Active; 'I' for Inactive)
REMARK    1  A    between atoms: C_1  and  C_2
REMARK    2  A    between atoms: C_5  and  N_8
REMARK    3  A    between atoms: C_11  and  C_17
REMARK                            x       y       z     vdW  Elec       q    Type
REMARK                         _______ _______ _______ _____ _____    ______ ____
ROOT
ATOM      1  N   UNL     1      -0.850   4.264  -3.125  0.00  0.00    -0.256 N 
ATOM      2  C   UNL     1      -0.187   3.459  -2.272  0.00  0.00    +0.265 A 
ATOM      3  O   UNL     1       0.512   2.556  -2.698  0.00  0.00    -0.267 OA
ATOM      4  C   UNL     1      -0.306   3.669  -0.887  0.00  0.00    +0.072 A 
ATOM      5  C   UNL     1      -1.098   4.683  -0.436  0.00  0.00    +0.258 A 
ATOM      6  N   UNL     1      -1.752   5.481  -1.339  0.00  0.00    -0.302 N 
ATOM      7  C   UNL     1      -1.623   5.263  -2.660  0.00  0.00    +0.168 A 
ATOM      8  S   UNL     1      -2.455   6.270  -3.767  0.00  0.00    -0.012 S 
ATOM      9  O   UNL     1      -1.234   4.902   0.889  0.00  0.00    -0.267 OA
ATOM     10  H   UNL     1      -2.387   6.307  -0.985  0.00  0.00    +0.171 HD
ENDROOT
BRANCH   4  11
ATOM     11  C   UNL     1       0.427   2.781   0.086  0.00  0.00    +0.001 C 
ATOM     12  C   UNL     1      -0.129   1.384  -0.001  0.00  0.00    -0.054 A 
ATOM     13  C   UNL     1      -1.504   1.225  -0.092  0.00  0.00    +0.002 A 
ATOM     14  C   UNL     1      -2.058  -0.037  -0.165  0.00  0.00    +0.000 A 
ATOM     15  C   UNL     1      -1.238  -1.151  -0.148  0.00  0.00    +0.000 A 
ATOM     16  C   UNL     1       0.131  -0.994  -0.060  0.00  0.00    +0.004 A 
ATOM     17  C   UNL     1       0.688   0.274   0.013  0.00  0.00    -0.047 A 
ATOM     18  C   UNL     1       2.187   0.397   0.102  0.00  0.00    +0.016 C 
ATOM     19  C   UNL     1       2.569   1.796   0.587  0.00  0.00    -0.077 C 
ATOM     20  N   UNL     1       1.857   2.786  -0.237  0.00  0.00    +0.387 N 
ATOM     21  H   UNL     1       1.994   2.534  -1.299  0.00  0.00    -0.085 HD
ATOM     22  H   UNL     1       2.274   3.784  -0.040  0.00  0.00    -0.085 HD
ENDBRANCH   4  11
BRANCH   1  27
ATOM     23  C   UNL     1      -0.385   3.436  -8.720  0.00  0.00    +0.044 C 
ATOM     24  C   UNL     1      -0.509   3.655  -7.234  0.00  0.00    -0.050 A 
ATOM     25  C   UNL     1      -1.507   3.015  -6.522  0.00  0.00    +0.005 A 
ATOM     26  C   UNL     1      -1.623   3.215  -5.161  0.00  0.00    +0.026 A 
ATOM     27  C   UNL     1      -0.735   4.059  -4.506  0.00  0.00    +0.052 A 
ATOM     28  C   UNL     1       0.263   4.704  -5.224  0.00  0.00    +0.026 A 
ATOM     29  C   UNL     1       0.377   4.496  -6.585  0.00  0.00    +0.005 A 
ENDBRANCH   1  27
TORSDOF 2
