REMARK  Name = ZINC39480841
REMARK  8 active torsions:
REMARK  status: ('A' for Active; 'I' for Inactive)
REMARK    1  A    between atoms: C_1  and  C_2
REMARK    2  A    between atoms: C_5  and  N_22
REMARK    3  A    between atoms: C_6  and  N_8
REMARK    4  A    between atoms: C_12  and  C_15
REMARK    5  A    between atoms: C_15  and  C_16
REMARK    6  A    between atoms: N_22  and  S_23
REMARK    7  A    between atoms: S_23  and  C_26
REMARK    8  A    between atoms: C_31  and  O_32
REMARK                            x       y       z     vdW  Elec       q    Type
REMARK                         _______ _______ _______ _____ _____    ______ ____
ROOT
ATOM      1  C   UNL     1       1.562   1.132   0.361  0.00  0.00    +0.044 C 
ATOM      2  C   UNL     1       1.228  -0.333   0.242  0.00  0.00    -0.049 A 
ATOM      3  C   UNL     1       0.975  -0.883  -1.000  0.00  0.00    +0.005 A 
ATOM      4  C   UNL     1       0.668  -2.227  -1.116  0.00  0.00    +0.026 A 
ATOM      5  C   UNL     1       0.615  -3.026   0.016  0.00  0.00    +0.069 A 
ATOM      6  C   UNL     1       0.871  -2.470   1.269  0.00  0.00    +0.052 A 
ATOM      7  C   UNL     1       1.183  -1.123   1.376  0.00  0.00    +0.028 A 
ENDROOT
BRANCH   6   8
ATOM      8  N   UNL     1       0.819  -3.271   2.416  0.00  0.00    -0.332 N 
ATOM      9  C   UNL     1       2.018  -3.968   2.908  0.00  0.00    +0.086 C 
ATOM     10  C   UNL     1       1.663  -5.441   3.138  0.00  0.00    -0.063 C 
ATOM     11  N   UNL     1       0.501  -5.530   4.031  0.00  0.00    +0.383 N 
ATOM     12  C   UNL     1      -0.675  -4.938   3.382  0.00  0.00    -0.050 C 
ATOM     13  C   UNL     1      -0.435  -3.436   3.167  0.00  0.00    +0.089 C 
ATOM     14  H   UNL     1       0.315  -6.499   4.242  0.00  0.00    -0.085 HD
ATOM     15  H   UNL     1       0.698  -5.034   4.887  0.00  0.00    -0.085 HD
BRANCH  12  16
ATOM     16  C   UNL     1      -1.903  -5.135   4.273  0.00  0.00    +0.021 C 
BRANCH  16  17
ATOM     17  C   UNL     1      -2.209  -6.606   4.388  0.00  0.00    -0.049 A 
ATOM     18  C   UNL     1      -3.055  -7.209   3.475  0.00  0.00    +0.003 A 
ATOM     19  C   UNL     1      -3.336  -8.558   3.580  0.00  0.00    +0.000 A 
ATOM     20  C   UNL     1      -2.772  -9.305   4.597  0.00  0.00    +0.000 A 
ATOM     21  C   UNL     1      -1.925  -8.702   5.509  0.00  0.00    +0.000 A 
ATOM     22  C   UNL     1      -1.641  -7.354   5.402  0.00  0.00    +0.003 A 
ENDBRANCH  16  17
ENDBRANCH  12  16
ENDBRANCH   6   8
BRANCH   5  23
ATOM     23  N   UNL     1       0.305  -4.386  -0.099  0.00  0.00    -0.214 N 
ATOM     24  H   UNL     1      -0.216  -4.825   0.592  0.00  0.00    +0.174 HD
BRANCH  23  25
ATOM     25  S   UNL     1       0.827  -5.246  -1.414  0.00  0.00    +0.076 S 
ATOM     26  O   UNL     1       2.195  -4.911  -1.602  0.00  0.00    -0.150 OA
ATOM     27  O   UNL     1       0.389  -6.585  -1.224  0.00  0.00    -0.150 OA
BRANCH  25  28
ATOM     28  C   UNL     1      -0.040  -4.628  -2.818  0.00  0.00    +0.150 A 
ATOM     29  C   UNL     1       0.653  -4.016  -3.845  0.00  0.00    +0.032 A 
ATOM     30  C   UNL     1      -0.026  -3.530  -4.946  0.00  0.00    +0.002 A 
ATOM     31  C   UNL     1      -1.401  -3.656  -5.024  0.00  0.00    +0.004 A 
ATOM     32  C   UNL     1      -2.099  -4.268  -4.001  0.00  0.00    +0.047 A 
ATOM     33  C   UNL     1      -1.419  -4.761  -2.897  0.00  0.00    +0.143 A 
BRANCH  33  34
ATOM     34  O   UNL     1      -2.102  -5.368  -1.891  0.00  0.00    -0.505 OA
ATOM     35  H   UNL     1      -2.414  -4.761  -1.206  0.00  0.00    +0.292 HD
ENDBRANCH  33  34
ENDBRANCH  25  28
ENDBRANCH  23  25
ENDBRANCH   5  23
TORSDOF 7
