REMARK  Name = ZINC39623749
REMARK  6 active torsions:
REMARK  status: ('A' for Active; 'I' for Inactive)
REMARK    1  A    between atoms: C_4  and  C_7
REMARK    2  A    between atoms: C_7  and  C_8
REMARK    3  A    between atoms: C_8  and  C_9
REMARK    4  A    between atoms: C_9  and  N_10
REMARK    5  A    between atoms: C_11  and  C_13
REMARK    6  A    between atoms: C_24  and  C_26
REMARK                            x       y       z     vdW  Elec       q    Type
REMARK                         _______ _______ _______ _____ _____    ______ ____
ROOT
ATOM      1  C   UNL     1       7.555  -2.852   4.415  0.00  0.00    +0.100 C 
ATOM      2  C   UNL     1       6.491  -3.666   5.184  0.00  0.00    +0.121 C 
ATOM      3  N   UNL     1       6.928  -5.076   5.049  0.00  0.00    -0.296 N 
ATOM      4  C   UNL     1       8.404  -5.018   5.179  0.00  0.00    +0.115 C 
ATOM      5  C   UNL     1       8.810  -3.741   4.417  0.00  0.00    -0.004 C 
ATOM      6  C   UNL     1       9.955  -3.037   5.138  0.00  0.00    -0.010 C 
ATOM      7  C   UNL     1      11.208  -3.915   5.077  0.00  0.00    -0.082 C 
ATOM      8  N   UNL     1      11.566  -4.164   3.675  0.00  0.00    +0.379 N 
ATOM      9  C   UNL     1      10.498  -4.923   3.013  0.00  0.00    -0.082 C 
ATOM     10  C   UNL     1       9.215  -4.088   2.987  0.00  0.00    -0.010 C 
ATOM     11  C   UNL     1       6.158  -6.164   4.854  0.00  0.00    +0.248 C 
ATOM     12  O   UNL     1       4.961  -6.038   4.670  0.00  0.00    -0.270 OA
ATOM     13  H   UNL     1      11.693  -3.282   3.200  0.00  0.00    -0.086 HD
ATOM     14  H   UNL     1      12.425  -4.691   3.636  0.00  0.00    -0.086 HD
ENDROOT
BRANCH  11  15
ATOM     15  C   UNL     1       6.762  -7.502   4.862  0.00  0.00    +0.052 A 
ATOM     16  C   UNL     1       7.803  -7.796   5.684  0.00  0.00    +0.059 A 
ATOM     17  S   UNL     1       8.176  -9.402   5.375  0.00  0.00    -0.096 S 
ATOM     18  C   UNL     1       6.967  -9.772   4.134  0.00  0.00    +0.020 A 
ATOM     19  C   UNL     1       6.258  -8.564   3.988  0.00  0.00    +0.001 A 
ATOM     20  C   UNL     1       5.205  -8.544   3.053  0.00  0.00    +0.010 A 
ATOM     21  C   UNL     1       4.896  -9.669   2.330  0.00  0.00    +0.001 A 
ATOM     22  C   UNL     1       5.608 -10.848   2.497  0.00  0.00    +0.001 A 
ATOM     23  C   UNL     1       6.653 -10.894   3.399  0.00  0.00    +0.015 A 
ENDBRANCH  11  15
BRANCH   1  25
ATOM     24  N   UNL     1       7.489  -1.475   2.361  0.00  0.00    -0.315 N 
ATOM     25  C   UNL     1       7.098  -2.594   3.002  0.00  0.00    +0.218 C 
ATOM     26  O   UNL     1       6.378  -3.393   2.442  0.00  0.00    -0.275 OA
ATOM     27  H   UNL     1       8.066  -0.836   2.809  0.00  0.00    +0.149 HD
BRANCH  24  28
ATOM     28  C   UNL     1       7.045  -1.223   0.988  0.00  0.00    +0.104 C 
BRANCH  28  29
ATOM     29  C   UNL     1       7.627   0.104   0.499  0.00  0.00    +0.023 C 
BRANCH  29  30
ATOM     30  C   UNL     1       7.163   0.367  -0.935  0.00  0.00    +0.036 C 
BRANCH  30  34
ATOM     31  C   UNL     1       8.786   4.073  -2.304  0.00  0.00    +0.000 A 
ATOM     32  C   UNL     1       9.487   2.898  -2.499  0.00  0.00    +0.000 A 
ATOM     33  C   UNL     1       8.962   1.698  -2.056  0.00  0.00    +0.003 A 
ATOM     34  C   UNL     1       7.736   1.675  -1.417  0.00  0.00    -0.047 A 
ATOM     35  C   UNL     1       7.035   2.850  -1.222  0.00  0.00    +0.003 A 
ATOM     36  C   UNL     1       7.560   4.050  -1.666  0.00  0.00    +0.000 A 
ENDBRANCH  30  34
ENDBRANCH  29  30
ENDBRANCH  28  29
ENDBRANCH  24  28
ENDBRANCH   1  25
TORSDOF 6
