REMARK  Name = ZINC67394337
REMARK  7 active torsions:
REMARK  status: ('A' for Active; 'I' for Inactive)
REMARK    1  A    between atoms: C_1  and  C_2
REMARK    2  A    between atoms: C_9  and  C_11
REMARK    3  A    between atoms: C_14  and  N_17
REMARK    4  A    between atoms: C_18  and  C_20
REMARK    5  A    between atoms: N_22  and  C_23
REMARK    6  A    between atoms: C_23  and  C_24
REMARK    7  A    between atoms: N_27  and  C_29
REMARK                            x       y       z     vdW  Elec       q    Type
REMARK                         _______ _______ _______ _____ _____    ______ ____
ROOT
ATOM      1  C   UNL     1       0.045  -1.383   4.760  0.00  0.00    +0.002 A 
ATOM      2  C   UNL     1       0.085  -2.585   5.464  0.00  0.00    +0.012 A 
ATOM      3  C   UNL     1       0.105  -2.575   6.843  0.00  0.00    +0.024 A 
ATOM      4  C   UNL     1       0.084  -1.367   7.530  0.00  0.00    +0.034 A 
ATOM      5  C   UNL     1       0.044  -0.166   6.830  0.00  0.00    +0.024 A 
ATOM      6  C   UNL     1       0.030  -0.172   5.451  0.00  0.00    +0.012 A 
ENDROOT
BRANCH   1  15
ATOM      7  C   UNL     1      -0.080   1.532   0.021  0.00  0.00    +0.047 C 
ATOM      8  C   UNL     1      -0.051   0.026   0.007  0.00  0.00    -0.008 A 
ATOM      9  C   UNL     1      -0.049  -0.650  -1.173  0.00  0.00    +0.008 A 
ATOM     10  C   UNL     1      -0.022  -2.055  -1.170  0.00  0.00    +0.018 A 
ATOM     11  C   UNL     1       0.003  -2.733  -0.004  0.00  0.00    +0.093 A 
ATOM     12  N   UNL     1       0.002  -2.067   1.188  0.00  0.00    -0.306 N 
ATOM     13  C   UNL     1      -0.019  -0.697   1.218  0.00  0.00    +0.141 A 
ATOM     14  N   UNL     1      -0.009  -0.308   2.484  0.00  0.00    -0.228 NA
ATOM     15  C   UNL     1       0.024  -1.391   3.276  0.00  0.00    +0.090 A 
ATOM     16  C   UNL     1       0.023  -2.500   2.485  0.00  0.00    +0.121 A 
ENDBRANCH   1  15
BRANCH   4  17
ATOM     17  N   UNL     1       0.104  -1.358   8.927  0.00  0.00    -0.278 N 
ATOM     18  C   UNL     1       0.761  -0.384   9.586  0.00  0.00    +0.303 C 
ATOM     19  O   UNL     1       1.265   0.533   8.969  0.00  0.00    -0.265 OA
ATOM     20  H   UNL     1      -0.355  -2.054   9.422  0.00  0.00    +0.155 HD
BRANCH  18  21
ATOM     21  C   UNL     1       0.870  -0.431  11.074  0.00  0.00    +0.300 C 
ATOM     22  O   UNL     1       0.366  -1.347  11.691  0.00  0.00    -0.265 OA
ATOM     23  N   UNL     1       1.527   0.544  11.733  0.00  0.00    -0.303 N 
ATOM     24  H   UNL     1       1.929   1.277  11.241  0.00  0.00    +0.149 HD
BRANCH  23  25
ATOM     25  C   UNL     1       1.633   0.498  13.194  0.00  0.00    +0.143 C 
BRANCH  25  26
ATOM     26  C   UNL     1       2.410   1.695  13.679  0.00  0.00    +0.007 A 
ATOM     27  C   UNL     1       3.797   1.762  13.849  0.00  0.00    +0.139 A 
ATOM     28  N   UNL     1       4.098   2.959  14.283  0.00  0.00    -0.180 NA
ATOM     29  N   UNL     1       2.910   3.692  14.403  0.00  0.00    -0.274 N 
ATOM     30  C   UNL     1       1.890   2.896  14.021  0.00  0.00    +0.113 A 
ATOM     31  C   UNL     1       2.796   5.081  14.857  0.00  0.00    +0.172 C 
ENDBRANCH  25  26
ENDBRANCH  23  25
ENDBRANCH  18  21
ENDBRANCH   4  17
TORSDOF 5
