REMARK  Name = ZINC15906031
REMARK  7 active torsions:
REMARK  status: ('A' for Active; 'I' for Inactive)
REMARK    1  A    between atoms: C_1  and  C_2
REMARK    2  A    between atoms: C_2  and  C_3
REMARK    3  A    between atoms: C_3  and  C_5
REMARK    4  A    between atoms: C_3  and  N_6
REMARK    5  A    between atoms: C_9  and  C_20
REMARK    6  A    between atoms: C_10  and  N_11
REMARK    7  A    between atoms: C_12  and  C_14
REMARK                            x       y       z     vdW  Elec       q    Type
REMARK                         _______ _______ _______ _____ _____    ______ ____
ROOT
ATOM      1  N   UNL     1       2.987   6.732  -0.183  0.00  0.00    -0.308 N 
ATOM      2  C   UNL     1       3.490   8.009  -0.049  0.00  0.00    +0.163 A 
ATOM      3  C   UNL     1       2.344   8.923  -0.058  0.00  0.00    +0.128 A 
ATOM      4  C   UNL     1       1.161   8.062  -0.214  0.00  0.00    +0.119 A 
ATOM      5  C   UNL     1       1.629   6.757  -0.276  0.00  0.00    +0.127 A 
ATOM      6  N   UNL     1       2.532  10.222   0.055  0.00  0.00    -0.241 NA
ATOM      7  C   UNL     1       3.776  10.701   0.178  0.00  0.00    +0.090 A 
ATOM      8  C   UNL     1       3.995  12.086   0.301  0.00  0.00    +0.030 A 
ATOM      9  C   UNL     1       5.263  12.562   0.425  0.00  0.00    +0.002 A 
ATOM     10  C   UNL     1       6.355  11.695   0.434  0.00  0.00    +0.002 A 
ATOM     11  C   UNL     1       6.182  10.351   0.318  0.00  0.00    +0.030 A 
ATOM     12  C   UNL     1       4.885   9.820   0.187  0.00  0.00    +0.092 A 
ATOM     13  N   UNL     1       4.706   8.498   0.074  0.00  0.00    -0.226 NA
ENDROOT
BRANCH   5  14
ATOM     14  N   UNL     1       0.831   5.643  -0.418  0.00  0.00    -0.264 N 
ATOM     15  C   UNL     1       0.391   5.280  -1.640  0.00  0.00    +0.285 C 
ATOM     16  O   UNL     1       0.625   5.984  -2.604  0.00  0.00    -0.266 OA
ATOM     17  H   UNL     1       0.586   5.120   0.361  0.00  0.00    +0.157 HD
BRANCH  15  18
ATOM     18  C   UNL     1      -0.367   4.039  -1.806  0.00  0.00    +0.191 A 
ATOM     19  C   UNL     1      -0.869   3.556  -2.982  0.00  0.00    +0.056 A 
ATOM     20  C   UNL     1      -1.520   2.351  -2.678  0.00  0.00    +0.058 A 
ATOM     21  C   UNL     1      -1.394   2.155  -1.345  0.00  0.00    +0.171 A 
ATOM     22  O   UNL     1      -0.694   3.171  -0.825  0.00  0.00    -0.444 OA
ATOM     23 BR   UNL     1      -2.087   0.685  -0.377  0.00  0.00    -0.008 Br
ENDBRANCH  15  18
ENDBRANCH   5  14
BRANCH   1  24
ATOM     24  C   UNL     1       3.803   5.515  -0.221  0.00  0.00    +0.087 C 
ATOM     25  C   UNL     1       4.699   5.465   1.018  0.00  0.00    +0.031 C 
BRANCH  24  27
ATOM     26  C   UNL     1       5.430   4.197  -1.583  0.00  0.00    +0.006 C 
ATOM     27  C   UNL     1       4.672   5.522  -1.480  0.00  0.00    +0.021 C 
ENDBRANCH  24  27
ENDBRANCH   1  24
BRANCH   4  28
ATOM     28  C   UNL     1      -0.205   8.486  -0.283  0.00  0.00    +0.105 C 
ATOM     29  N   UNL     1      -1.288   8.824  -0.339  0.00  0.00    -0.191 NA
ENDBRANCH   4  28
TORSDOF 5
