REMARK  Name = ZINC12444691
REMARK  8 active torsions:
REMARK  status: ('A' for Active; 'I' for Inactive)
REMARK    1  A    between atoms: C_3  and  O_7
REMARK    2  A    between atoms: O_7  and  C_8
REMARK    3  A    between atoms: C_8  and  C_9
REMARK    4  A    between atoms: C_9  and  C_10
REMARK    5  A    between atoms: C_10  and  N_58
REMARK    6  A    between atoms: C_11  and  C_12
REMARK    7  A    between atoms: C_11  and  N_58
REMARK    8  A    between atoms: C_13  and  C_20
REMARK                            x       y       z     vdW  Elec       q    Type
REMARK                         _______ _______ _______ _____ _____    ______ ____
ROOT
ATOM      1  C   UNL     1      -6.145  10.090   0.109  0.00  0.00    +0.039 A 
ATOM      2  C   UNL     1      -6.893  10.410  -0.982  0.00  0.00    +0.146 A 
ATOM      3  N   UNL     1      -8.082  10.899  -0.541  0.00  0.00    -0.216 NA
ATOM      4  C   UNL     1      -8.076  10.895   0.758  0.00  0.00    +0.178 A 
ATOM      5  N   UNL     1      -6.888  10.398   1.234  0.00  0.00    -0.299 N 
ATOM      6  C   UNL     1      -6.744  10.336   2.603  0.00  0.00    +0.100 A 
ATOM      7  C   UNL     1      -7.721  10.742   3.412  0.00  0.00    +0.067 A 
ATOM      8  S   UNL     1      -8.971  11.265   2.249  0.00  0.00    -0.058 S 
ENDROOT
BRANCH   2   9
ATOM      9  C   UNL     1      -6.488  10.251  -2.389  0.00  0.00    +0.267 C 
ATOM     10  O   UNL     1      -5.393   9.796  -2.659  0.00  0.00    -0.268 OA
ATOM     11  N   UNL     1      -7.331  10.610  -3.377  0.00  0.00    -0.296 N 
ATOM     12  C   UNL     1      -8.659  11.155  -3.061  0.00  0.00    +0.108 C 
ATOM     13  C   UNL     1      -8.487  12.535  -2.426  0.00  0.00    +0.019 C 
ATOM     14  C   UNL     1      -8.058  13.541  -3.507  0.00  0.00    +0.002 C 
ATOM     15  C   UNL     1      -6.574  13.362  -3.806  0.00  0.00    +0.000 C 
ATOM     16  C   UNL     1      -6.365  12.843  -5.240  0.00  0.00    +0.002 C 
ATOM     17  C   UNL     1      -7.359  11.719  -5.532  0.00  0.00    +0.019 C 
ATOM     18  C   UNL     1      -6.940  10.456  -4.769  0.00  0.00    +0.108 C 
ENDBRANCH   2   9
BRANCH   1  19
ATOM     19  C   UNL     1      -4.755   9.509   0.093  0.00  0.00    -0.025 C 
BRANCH  19  20
ATOM     20  N   UNL     1      -4.845   8.037   0.087  0.00  0.00    +0.383 N 
ATOM     21  H   UNL     1      -5.344   7.725   0.928  0.00  0.00    -0.085 HD
ATOM     22  H   UNL     1      -5.359   7.733  -0.749  0.00  0.00    -0.085 HD
BRANCH  20  23
ATOM     23  C   UNL     1      -3.496   7.441   0.072  0.00  0.00    -0.079 C 
BRANCH  23  24
ATOM     24  C   UNL     1      -3.622   5.916   0.065  0.00  0.00    +0.022 C 
BRANCH  24  25
ATOM     25  C   UNL     1      -2.226   5.290   0.050  0.00  0.00    +0.227 C 
BRANCH  25  26
ATOM     26  O   UNL     1      -2.344   3.865   0.043  0.00  0.00    -0.491 OA
BRANCH  26  29
ATOM     27  C   UNL     1      -0.013   1.076   0.008  0.00  0.00    +0.023 A 
ATOM     28  C   UNL     1      -1.217   1.760   0.017  0.00  0.00    +0.048 A 
ATOM     29  C   UNL     1      -1.187   3.151   0.029  0.00  0.00    +0.138 A 
ATOM     30  C   UNL     1       0.040   3.799   0.022  0.00  0.00    +0.156 A 
ATOM     31  N   UNL     1       1.164   3.110   0.008  0.00  0.00    -0.260 NA
ATOM     32  C   UNL     1       1.170   1.791   0.001  0.00  0.00    +0.111 A 
ENDBRANCH  26  29
ENDBRANCH  25  26
ENDBRANCH  24  25
ENDBRANCH  23  24
ENDBRANCH  20  23
ENDBRANCH  19  20
ENDBRANCH   1  19
TORSDOF 8
