REMARK  Name = ZINC49068278
REMARK  5 active torsions:
REMARK  status: ('A' for Active; 'I' for Inactive)
REMARK    1  A    between atoms: C_3  and  C_8
REMARK    2  A    between atoms: C_5  and  O_7
REMARK    3  A    between atoms: C_9  and  C_33
REMARK    4  A    between atoms: C_16  and  C_17
REMARK    5  A    between atoms: C_20  and  N_24
REMARK                            x       y       z     vdW  Elec       q    Type
REMARK                         _______ _______ _______ _____ _____    ______ ____
ROOT
ATOM      1  C   UNL     1       3.657   2.169  -0.022  0.00  0.00    +0.054 A 
ATOM      2  C   UNL     1       4.117   3.019  -1.047  0.00  0.00    +0.103 A 
ATOM      3  N   UNL     1       5.287   3.513  -0.690  0.00  0.00    -0.164 NA
ATOM      4  N   UNL     1       5.632   3.010   0.569  0.00  0.00    -0.213 N 
ATOM      5  C   UNL     1       4.624   2.182   0.990  0.00  0.00    +0.164 A 
ATOM      6  N   UNL     1       4.694   1.566   2.174  0.00  0.00    -0.236 NA
ATOM      7  C   UNL     1       5.725   1.734   2.973  0.00  0.00    +0.115 A 
ATOM      8  C   UNL     1       6.779   2.569   2.598  0.00  0.00    +0.048 A 
ATOM      9  C   UNL     1       6.729   3.209   1.374  0.00  0.00    +0.079 A 
ENDROOT
BRANCH   9  10
ATOM     10  C   UNL     1       7.824   4.099   0.947  0.00  0.00    +0.036 A 
ATOM     11  C   UNL     1       8.725   3.680  -0.036  0.00  0.00    +0.014 A 
ATOM     12  C   UNL     1       9.746   4.514  -0.433  0.00  0.00    +0.024 A 
ATOM     13  C   UNL     1       9.882   5.774   0.142  0.00  0.00    +0.033 A 
ATOM     14  C   UNL     1       8.989   6.197   1.120  0.00  0.00    +0.062 A 
ATOM     15  C   UNL     1       7.960   5.370   1.519  0.00  0.00    +0.134 A 
ATOM     16  F   UNL     1       7.088   5.782   2.465  0.00  0.00    -0.205 F 
BRANCH  13  17
ATOM     17  N   UNL     1      10.917   6.614  -0.264  0.00  0.00    -0.330 N 
ATOM     18  C   UNL     1      11.944   6.328  -1.288  0.00  0.00    +0.090 C 
ATOM     19  C   UNL     1      12.870   7.584  -1.299  0.00  0.00    -0.053 C 
ATOM     20  C   UNL     1      12.783   7.987   0.217  0.00  0.00    +0.006 C 
ATOM     21  C   UNL     1      11.209   7.988   0.244  0.00  0.00    +0.055 C 
ATOM     22  C   UNL     1      10.924   8.914  -0.979  0.00  0.00    -0.060 C 
ATOM     23  N   UNL     1      12.035   8.645  -1.946  0.00  0.00    +0.383 N 
ATOM     24  H   UNL     1      12.583   9.481  -2.087  0.00  0.00    -0.085 HD
ATOM     25  H   UNL     1      11.672   8.313  -2.827  0.00  0.00    -0.085 HD
ENDBRANCH  13  17
ENDBRANCH   9  10
BRANCH   1  28
ATOM     26  C   UNL     1      -0.017   1.378   0.010  0.00  0.00    +0.004 A 
ATOM     27  C   UNL     1       1.167   2.089   0.002  0.00  0.00    +0.009 A 
ATOM     28  C   UNL     1       2.386   1.411  -0.013  0.00  0.00    -0.009 A 
ATOM     29  C   UNL     1       2.404   0.016  -0.021  0.00  0.00    +0.054 A 
ATOM     30  C   UNL     1       1.211  -0.687  -0.013  0.00  0.00    +0.117 A 
ATOM     31  C   UNL     1       0.002  -0.004   0.002  0.00  0.00    +0.045 A 
BRANCH  30  32
ATOM     32  O   UNL     1       1.224  -2.046  -0.021  0.00  0.00    -0.507 OA
ATOM     33  H   UNL     1       1.236  -2.444   0.860  0.00  0.00    +0.292 HD
ENDBRANCH  30  32
ENDBRANCH   1  28
BRANCH   2  34
ATOM     34  C   UNL     1       3.406   3.309  -2.316  0.00  0.00    +0.006 A 
ATOM     35  C   UNL     1       2.639   2.327  -2.950  0.00  0.00    +0.030 A 
ATOM     36  C   UNL     1       1.994   2.639  -4.128  0.00  0.00    +0.111 A 
ATOM     37  N   UNL     1       2.094   3.844  -4.657  0.00  0.00    -0.263 NA
ATOM     38  C   UNL     1       2.807   4.799  -4.091  0.00  0.00    +0.111 A 
ATOM     39  C   UNL     1       3.479   4.574  -2.907  0.00  0.00    +0.030 A 
ENDBRANCH   2  34
TORSDOF 5
