REMARK  Name = ZINC20693829
REMARK  7 active torsions:
REMARK  status: ('A' for Active; 'I' for Inactive)
REMARK    1  A    between atoms: C_1  and  C_2
REMARK    2  A    between atoms: C_2  and  O_3
REMARK    3  A    between atoms: O_3  and  C_4
REMARK    4  A    between atoms: C_17  and  C_20
REMARK    5  A    between atoms: C_24  and  O_27
REMARK    6  A    between atoms: C_25  and  O_26
REMARK    7  A    between atoms: O_27  and  C_28
REMARK                            x       y       z     vdW  Elec       q    Type
REMARK                         _______ _______ _______ _____ _____    ______ ____
ROOT
ATOM      1  C   UNL     1       2.819   0.033  -1.115  0.00  0.00    +0.121 A 
ATOM      2  C   UNL     1       3.622   0.019   0.016  0.00  0.00    +0.047 A 
ATOM      3  C   UNL     1       3.350   0.886   1.056  0.00  0.00    +0.027 A 
ATOM      4  C   UNL     1       2.279   1.766   0.969  0.00  0.00    +0.032 A 
ATOM      5  C   UNL     1       1.475   1.788  -0.160  0.00  0.00    -0.016 A 
ATOM      6  C   UNL     1       1.753   0.912  -1.201  0.00  0.00    +0.051 A 
ATOM      7  C   UNL     1       0.315   2.721  -0.299  0.00  0.00    +0.049 C 
ATOM      8  C   UNL     1      -0.999   1.998  -0.123  0.00  0.00    -0.023 C 
ATOM      9  C   UNL     1      -1.861   2.768   0.495  0.00  0.00    -0.030 C 
ATOM     10  C   UNL     1      -1.236   4.112   0.820  0.00  0.00    +0.033 C 
ATOM     11  C   UNL     1       0.292   3.819   0.782  0.00  0.00    +0.029 C 
ATOM     12  C   UNL     1       0.677   3.224   2.140  0.00  0.00    +0.109 C 
ATOM     13  N   UNL     1       2.015   2.634   2.037  0.00  0.00    -0.336 N 
ATOM     14  H   UNL     1       2.782   2.876   2.788  0.00  0.00    +0.147 HD
ENDROOT
BRANCH  12  15
ATOM     15  C   UNL     1      -0.317   2.158   2.523  0.00  0.00    +0.018 A 
ATOM     16  C   UNL     1      -0.164   0.868   2.050  0.00  0.00    +0.009 A 
ATOM     17  C   UNL     1      -1.070  -0.113   2.404  0.00  0.00    +0.004 A 
ATOM     18  C   UNL     1      -2.141   0.193   3.224  0.00  0.00    +0.049 A 
ATOM     19  C   UNL     1      -2.303   1.485   3.697  0.00  0.00    +0.162 A 
ATOM     20  C   UNL     1      -1.387   2.472   3.345  0.00  0.00    +0.163 A 
BRANCH  20  21
ATOM     21  O   UNL     1      -1.542   3.742   3.807  0.00  0.00    -0.503 OA
ATOM     22  H   UNL     1      -2.392   3.989   4.460  0.00  0.00    +0.292 HD
ENDBRANCH  20  21
BRANCH  19  23
ATOM     23  O   UNL     1      -3.355   1.788   4.504  0.00  0.00    -0.491 OA
ATOM     24  C   UNL     1      -4.255   0.725   4.824  0.00  0.00    +0.277 C 
ENDBRANCH  19  23
ENDBRANCH  12  15
BRANCH   1  25
ATOM     25  O   UNL     1       3.080  -0.819  -2.142  0.00  0.00    -0.492 OA
BRANCH  25  27
ATOM     26  C   UNL     1       4.330  -2.576  -3.234  0.00  0.00    +0.048 C 
ATOM     27  C   UNL     1       4.195  -1.700  -1.987  0.00  0.00    +0.225 C 
ENDBRANCH  25  27
ENDBRANCH   1  25
TORSDOF 5
