REMARK  Name = ZINC39466170
REMARK  7 active torsions:
REMARK  status: ('A' for Active; 'I' for Inactive)
REMARK    1  A    between atoms: C_1  and  C_2
REMARK    2  A    between atoms: C_2  and  C_3
REMARK    3  A    between atoms: C_2  and  S_4
REMARK    4  A    between atoms: S_4  and  P_7
REMARK    5  A    between atoms: C_15  and  O_30
REMARK    6  A    between atoms: C_16  and  C_23
REMARK    7  A    between atoms: C_28  and  O_29
REMARK                            x       y       z     vdW  Elec       q    Type
REMARK                         _______ _______ _______ _____ _____    ______ ____
ROOT
ATOM      1  P   UNL     1      -1.503  -2.736   0.180  0.00  0.00    +0.419 P 
ATOM      2  O   UNL     1      -0.828  -3.088   1.450  0.00  0.00    -0.246 OA
ATOM      3  N   UNL     1      -2.989  -3.457   0.101  0.00  0.00    -0.161 NA
ATOM      4  N   UNL     1      -3.010  -4.786  -0.258  0.00  0.00    -0.224 NA
ATOM      5  C   UNL     1      -4.399  -5.269  -0.300  0.00  0.00    +0.108 C 
ATOM      6  C   UNL     1      -4.386  -6.796  -0.366  0.00  0.00    +0.052 C 
ATOM      7  C   UNL     1      -3.489  -7.248  -1.490  0.00  0.00    -0.038 A 
ATOM      8  C   UNL     1      -3.636  -8.540  -1.972  0.00  0.00    +0.050 A 
ATOM      9  C   UNL     1      -2.834  -9.000  -3.001  0.00  0.00    +0.125 A 
ATOM     10  C   UNL     1      -1.871  -8.152  -3.556  0.00  0.00    +0.027 A 
ATOM     11  C   UNL     1      -1.731  -6.858  -3.066  0.00  0.00    +0.017 A 
ATOM     12  C   UNL     1      -2.539  -6.408  -2.034  0.00  0.00    -0.023 A 
ATOM     13  C   UNL     1      -2.344  -4.997  -1.543  0.00  0.00    +0.129 C 
ATOM     14  C   UNL     1      -0.843  -4.709  -1.438  0.00  0.00    +0.195 C 
ATOM     15  O   UNL     1      -0.664  -3.323  -1.083  0.00  0.00    -0.298 OA
ATOM     16  H   UNL     1      -3.804  -2.969   0.297  0.00  0.00    +0.152 HD
ENDROOT
BRANCH  10  17
ATOM     17  C   UNL     1      -1.003  -8.629  -4.660  0.00  0.00    +0.027 A 
ATOM     18  C   UNL     1       0.370  -8.762  -4.464  0.00  0.00    +0.012 A 
ATOM     19  C   UNL     1       1.173  -9.207  -5.495  0.00  0.00    +0.001 A 
ATOM     20  C   UNL     1       0.619  -9.522  -6.723  0.00  0.00    +0.004 A 
ATOM     21  C   UNL     1      -0.742  -9.394  -6.929  0.00  0.00    +0.046 A 
ATOM     22  C   UNL     1      -1.560  -8.954  -5.901  0.00  0.00    +0.125 A 
BRANCH  22  23
ATOM     23  O   UNL     1      -2.899  -8.832  -6.100  0.00  0.00    -0.506 OA
ATOM     24  H   UNL     1      -3.171  -7.964  -6.427  0.00  0.00    +0.292 HD
ENDBRANCH  22  23
ENDBRANCH  10  17
BRANCH   1  25
ATOM     25  S   UNL     1      -1.700  -0.632   0.015  0.00  0.00    +0.058 S 
ATOM     26  O   UNL     1      -2.359  -0.234   1.209  0.00  0.00    -0.164 OA
ATOM     27  O   UNL     1      -2.308  -0.423  -1.252  0.00  0.00    -0.164 OA
BRANCH  25  29
ATOM     28  C   UNL     1      -0.019   1.526   0.010  0.00  0.00    +0.032 C 
ATOM     29  C   UNL     1       0.002  -0.004   0.002  0.00  0.00    +0.136 C 
ATOM     30  C   UNL     1       0.742  -0.511   1.242  0.00  0.00    +0.032 C 
ENDBRANCH  25  29
ENDBRANCH   1  25
BRANCH   9  31
ATOM     31  O   UNL     1      -2.982 -10.267  -3.470  0.00  0.00    -0.506 OA
ATOM     32  H   UNL     1      -3.617 -10.347  -4.195  0.00  0.00    +0.292 HD
ENDBRANCH   9  31
TORSDOF 5
