REMARK  Name = ZINC39462682
REMARK  7 active torsions:
REMARK  status: ('A' for Active; 'I' for Inactive)
REMARK    1  A    between atoms: C_1  and  C_2
REMARK    2  A    between atoms: C_2  and  C_23
REMARK    3  A    between atoms: C_5  and  C_10
REMARK    4  A    between atoms: C_7  and  C_8
REMARK    5  A    between atoms: C_7  and  C_9
REMARK    6  A    between atoms: N_12  and  N_13
REMARK    7  A    between atoms: C_14  and  C_16
REMARK                            x       y       z     vdW  Elec       q    Type
REMARK                         _______ _______ _______ _____ _____    ______ ____
ROOT
ATOM      1  C   UNL     1       0.139  -2.750   2.224  0.00  0.00    +0.233 C 
ATOM      2  O   UNL     1       0.225  -3.674   1.443  0.00  0.00    -0.274 OA
ATOM      3  N   UNL     1       0.524  -2.913   3.505  0.00  0.00    -0.234 N 
ATOM      4  H   UNL     1       0.455  -2.174   4.130  0.00  0.00    +0.173 HD
ENDROOT
BRANCH   1   9
ATOM      5  C   UNL     1       0.246   1.764   0.331  0.00  0.00    +0.023 C 
ATOM      6  C   UNL     1       0.210   0.260   0.054  0.00  0.00    +0.075 C 
ATOM      7  C   UNL     1      -1.247  -0.205  -0.152  0.00  0.00    +0.019 C 
ATOM      8  C   UNL     1      -1.297  -1.603   0.514  0.00  0.00    +0.014 C 
ATOM      9  C   UNL     1      -0.398  -1.420   1.761  0.00  0.00    +0.083 C 
ATOM     10  C   UNL     1       0.750  -0.513   1.271  0.00  0.00    -0.008 C 
ATOM     11  C   UNL     1       1.952  -1.365   0.859  0.00  0.00    +0.013 C 
ATOM     12  C   UNL     1       1.153   0.465   2.376  0.00  0.00    +0.013 C 
BRANCH   6  13
ATOM     13  C   UNL     1       1.032  -0.060  -1.167  0.00  0.00    +0.362 C 
ATOM     14  O   UNL     1       1.612   0.832  -1.762  0.00  0.00    -0.246 OA
ATOM     15  O   UNL     1       1.118  -1.211  -1.560  0.00  0.00    -0.246 OA
ENDBRANCH   6  13
ENDBRANCH   1   9
BRANCH   3  16
ATOM     16  N   UNL     1       1.023  -4.150   3.935  0.00  0.00    -0.234 N 
ATOM     17  C   UNL     1       1.408  -4.312   5.216  0.00  0.00    +0.233 C 
ATOM     18  O   UNL     1       1.322  -3.389   5.997  0.00  0.00    -0.274 OA
ATOM     19  H   UNL     1       1.091  -4.889   3.310  0.00  0.00    +0.173 HD
BRANCH  17  20
ATOM     20  C   UNL     1       1.944  -5.643   5.679  0.00  0.00    +0.083 C 
ATOM     21  C   UNL     1       1.086  -6.451   6.656  0.00  0.00    +0.021 C 
ATOM     22  C   UNL     1       2.360  -5.765   7.141  0.00  0.00    -0.017 C 
ATOM     23  C   UNL     1       2.509  -4.656   8.188  0.00  0.00    +0.008 C 
ATOM     24  C   UNL     1       3.281  -5.679   9.039  0.00  0.00    +0.001 C 
ATOM     25  C   UNL     1       3.625  -6.402   7.725  0.00  0.00    +0.008 C 
ENDBRANCH  17  20
ENDBRANCH   3  16
TORSDOF 4
