REMARK  Name = ZINC63745626
REMARK  8 active torsions:
REMARK  status: ('A' for Active; 'I' for Inactive)
REMARK    1  A    between atoms: C_1  and  S_2
REMARK    2  A    between atoms: S_2  and  C_3
REMARK    3  A    between atoms: C_3  and  C_4
REMARK    4  A    between atoms: C_4  and  C_5
REMARK    5  A    between atoms: C_5  and  C_6
REMARK    6  A    between atoms: C_5  and  N_22
REMARK    7  A    between atoms: C_11  and  C_14
REMARK    8  A    between atoms: C_14  and  N_15
REMARK                            x       y       z     vdW  Elec       q    Type
REMARK                         _______ _______ _______ _____ _____    ______ ____
ROOT
ATOM      1  C   UNL     1       1.882  -4.238  -2.621  0.00  0.00    +0.236 C 
ATOM      2  O   UNL     1       2.771  -5.005  -2.316  0.00  0.00    -0.274 OA
ATOM      3  N   UNL     1       0.777  -4.699  -3.241  0.00  0.00    -0.300 N 
ATOM      4  C   UNL     1      -0.305  -3.782  -3.622  0.00  0.00    +0.108 C 
ATOM      5  C   UNL     1      -1.623  -4.307  -3.043  0.00  0.00    +0.021 C 
ATOM      6  C   UNL     1      -1.835  -5.753  -3.497  0.00  0.00    -0.025 C 
ATOM      7  C   UNL     1      -0.694  -6.627  -2.971  0.00  0.00    +0.021 C 
ATOM      8  C   UNL     1       0.636  -6.128  -3.554  0.00  0.00    +0.108 C 
ENDROOT
BRANCH   1   9
ATOM      9  C   UNL     1       2.011  -2.770  -2.306  0.00  0.00    +0.161 C 
BRANCH   9  10
ATOM     10  N   UNL     1       3.422  -2.440  -2.090  0.00  0.00    -0.288 N 
ATOM     11  C   UNL     1       4.113  -3.047  -1.104  0.00  0.00    +0.298 C 
ATOM     12  O   UNL     1       3.565  -3.868  -0.394  0.00  0.00    -0.253 OA
ATOM     13  N   UNL     1       5.411  -2.743  -0.905  0.00  0.00    -0.313 N 
ATOM     14  H   UNL     1       3.859  -1.785  -2.656  0.00  0.00    +0.151 HD
ATOM     15  H   UNL     1       5.848  -2.088  -1.472  0.00  0.00    +0.146 HD
ATOM     16  H   UNL     1       5.908  -3.180  -0.196  0.00  0.00    +0.146 HD
ENDBRANCH   9  10
BRANCH   9  17
ATOM     17  C   UNL     1       1.213  -2.447  -1.042  0.00  0.00    +0.042 C 
BRANCH  17  18
ATOM     18  C   UNL     1       1.242  -0.938  -0.792  0.00  0.00    +0.071 C 
BRANCH  18  20
ATOM     19  C   UNL     1       0.425   1.248   0.860  0.00  0.00    +0.084 C 
ATOM     20  S   UNL     1       0.294  -0.555   0.707  0.00  0.00    -0.164 S 
ENDBRANCH  18  20
ENDBRANCH  17  18
ENDBRANCH   9  17
ENDBRANCH   1   9
BRANCH   6  21
ATOM     21  C   UNL     1      -3.167  -6.269  -2.948  0.00  0.00    -0.075 C 
BRANCH  21  22
ATOM     22  N   UNL     1      -3.409  -7.628  -3.450  0.00  0.00    +0.380 N 
ATOM     23  C   UNL     1      -3.536  -7.575  -4.919  0.00  0.00    -0.079 C 
ATOM     24  C   UNL     1      -3.180  -8.931  -5.474  0.00  0.00    -0.019 C 
ATOM     25  C   UNL     1      -4.437  -9.788  -5.716  0.00  0.00    -0.002 C 
ATOM     26  C   UNL     1      -5.462  -9.635  -4.575  0.00  0.00    -0.002 C 
ATOM     27  C   UNL     1      -4.810  -9.610  -3.216  0.00  0.00    -0.019 C 
ATOM     28  C   UNL     1      -4.540  -8.145  -2.815  0.00  0.00    -0.079 C 
ATOM     29  H   UNL     1      -2.615  -8.205  -3.216  0.00  0.00    -0.082 HD
ENDBRANCH  21  22
ENDBRANCH   6  21
TORSDOF 7
