REMARK  Name = ZINC02411052
REMARK  2 active torsions:
REMARK  status: ('A' for Active; 'I' for Inactive)
REMARK    1  A    between atoms: C_1  and  C_2
REMARK    2  A    between atoms: N_20  and  C_23
REMARK                            x       y       z     vdW  Elec       q    Type
REMARK                         _______ _______ _______ _____ _____    ______ ____
ROOT
ATOM      1  C   UNL     1       6.649   3.951  -0.417  0.00  0.00    +0.044 C 
ATOM      2  C   UNL     1       5.216   4.391  -0.266  0.00  0.00    -0.050 A 
ATOM      3  C   UNL     1       4.925   5.647   0.234  0.00  0.00    +0.005 A 
ATOM      4  C   UNL     1       3.615   6.055   0.374  0.00  0.00    +0.024 A 
ATOM      5  C   UNL     1       2.574   5.203   0.013  0.00  0.00    +0.036 A 
ATOM      6  C   UNL     1       2.878   3.942  -0.489  0.00  0.00    -0.027 A 
ATOM      7  C   UNL     1       4.187   3.539  -0.626  0.00  0.00    +0.008 A 
ATOM      8  C   UNL     1       1.558   3.284  -0.778  0.00  0.00    +0.053 C 
ATOM      9  C   UNL     1       1.432   2.903  -2.258  0.00  0.00    +0.089 C 
ATOM     10  C   UNL     1       1.770   1.388  -2.304  0.00  0.00    +0.074 C 
ATOM     11  C   UNL     1       2.056   0.993  -0.844  0.00  0.00    -0.054 C 
ATOM     12  C   UNL     1      -0.042   1.634   0.018  0.00  0.00    -0.076 C 
ATOM     13  C   UNL     1      -0.038   0.093   0.062  0.00  0.00    -0.020 C 
ATOM     14  C   UNL     1       1.327  -0.324  -0.520  0.00  0.00    -0.016 C 
ATOM     15  C   UNL     1       0.472   0.754  -2.751  0.00  0.00    +0.228 C 
ATOM     16  O   UNL     1       0.293  -0.433  -2.917  0.00  0.00    -0.275 OA
ATOM     17  N   UNL     1      -0.448   1.708  -2.936  0.00  0.00    -0.210 N 
ATOM     18  C   UNL     1      -0.017   2.951  -2.689  0.00  0.00    +0.229 C 
ATOM     19  O   UNL     1      -0.684   3.958  -2.795  0.00  0.00    -0.275 OA
ATOM     20  C   UNL     1       0.521   4.304  -0.388  0.00  0.00    +0.212 C 
ATOM     21  O   UNL     1      -0.683   4.177  -0.462  0.00  0.00    -0.277 OA
ATOM     22  N   UNL     1       1.190   5.384   0.059  0.00  0.00    -0.286 N 
ATOM     23  H   UNL     1       0.760   6.193   0.377  0.00  0.00    +0.155 HD
ATOM     24  N   UNL     1       1.387   2.005  -0.059  0.00  0.00    +0.395 N 
ATOM     25  H   UNL     1       1.789   2.068   0.884  0.00  0.00    -0.079 HD
ENDROOT
BRANCH  17  26
ATOM     26  C   UNL     1      -1.757   1.429  -3.353  0.00  0.00    +0.044 A 
ATOM     27  C   UNL     1      -1.990   0.940  -4.631  0.00  0.00    +0.024 A 
ATOM     28  C   UNL     1      -3.280   0.660  -5.038  0.00  0.00    +0.002 A 
ATOM     29  C   UNL     1      -4.340   0.878  -4.178  0.00  0.00    +0.000 A 
ATOM     30  C   UNL     1      -4.112   1.371  -2.906  0.00  0.00    +0.002 A 
ATOM     31  C   UNL     1      -2.823   1.646  -2.491  0.00  0.00    +0.024 A 
ENDBRANCH  17  26
TORSDOF 1
