REMARK  Name = ZINC39952811
REMARK  3 active torsions:
REMARK  status: ('A' for Active; 'I' for Inactive)
REMARK    1  A    between atoms: C_1  and  C_2
REMARK    2  A    between atoms: N_5  and  C_9
REMARK    3  A    between atoms: C_14  and  C_15
REMARK                            x       y       z     vdW  Elec       q    Type
REMARK                         _______ _______ _______ _____ _____    ______ ____
ROOT
ATOM      1  C   UNL     1      -0.019   1.526   0.010  0.00  0.00    -0.012 C 
ATOM      2  C   UNL     1       0.002  -0.004   0.002  0.00  0.00    -0.057 C 
ATOM      3  C   UNL     1      -1.435  -0.535   0.013  0.00  0.00    +0.089 C 
ATOM      4  N   UNL     1      -1.391  -2.000   0.137  0.00  0.00    -0.333 N 
ATOM      5  C   UNL     1      -0.566  -2.580   1.208  0.00  0.00    +0.086 C 
ATOM      6  C   UNL     1       0.830  -1.953   1.140  0.00  0.00    -0.063 C 
ATOM      7  N   UNL     1       0.712  -0.491   1.192  0.00  0.00    +0.383 N 
ATOM      8  H   UNL     1       1.633  -0.081   1.223  0.00  0.00    -0.085 HD
ATOM      9  H   UNL     1       0.200  -0.225   2.019  0.00  0.00    -0.085 HD
ENDROOT
BRANCH   4  10
ATOM     10  C   UNL     1      -2.106  -2.811  -0.732  0.00  0.00    +0.044 A 
ATOM     11  C   UNL     1      -1.522  -3.258  -1.911  0.00  0.00    +0.024 A 
ATOM     12  C   UNL     1      -2.235  -4.065  -2.773  0.00  0.00    +0.002 A 
ATOM     13  C   UNL     1      -3.537  -4.436  -2.473  0.00  0.00    +0.001 A 
ATOM     14  C   UNL     1      -4.134  -4.004  -1.311  0.00  0.00    +0.017 A 
ATOM     15  C   UNL     1      -3.423  -3.190  -0.422  0.00  0.00    +0.084 A 
BRANCH  15  16
ATOM     16  C   UNL     1      -4.052  -2.729   0.825  0.00  0.00    +0.388 C 
ATOM     17  O   UNL     1      -5.199  -3.061   1.090  0.00  0.00    -0.241 OA
ATOM     18  O   UNL     1      -3.428  -2.013   1.596  0.00  0.00    -0.241 OA
ENDBRANCH  15  16
ENDBRANCH   4  10
TORSDOF 2
