REMARK  Name = ZINC39747360
REMARK  9 active torsions:
REMARK  status: ('A' for Active; 'I' for Inactive)
REMARK    1  A    between atoms: C_1  and  C_2
REMARK    2  A    between atoms: C_8  and  C_10
REMARK    3  A    between atoms: C_10  and  N_11
REMARK    4  A    between atoms: C_12  and  C_14
REMARK    5  A    between atoms: C_21  and  O_23
REMARK    6  A    between atoms: O_23  and  C_24
REMARK    7  A    between atoms: C_24  and  C_25
REMARK    8  A    between atoms: C_24  and  C_26
REMARK    9  A    between atoms: C_24  and  C_27
REMARK                            x       y       z     vdW  Elec       q    Type
REMARK                         _______ _______ _______ _____ _____    ______ ____
ROOT
ATOM      1  N   UNL     1       1.439  -1.259   3.235  0.00  0.00    -0.314 N 
ATOM      2  C   UNL     1       2.580  -1.300   3.952  0.00  0.00    +0.218 C 
ATOM      3  O   UNL     1       3.601  -0.834   3.493  0.00  0.00    -0.275 OA
ATOM      4  H   UNL     1       0.622  -1.631   3.602  0.00  0.00    +0.149 HD
ENDROOT
BRANCH   2   5
ATOM      5  C   UNL     1       2.586  -1.924   5.323  0.00  0.00    +0.092 C 
ATOM      6  C   UNL     1       3.995  -1.842   5.915  0.00  0.00    +0.016 C 
ATOM      7  C   UNL     1       3.996  -2.447   7.321  0.00  0.00    +0.020 C 
ATOM      8  C   UNL     1       3.591  -3.922   7.239  0.00  0.00    +0.111 C 
ATOM      9  N   UNL     1       2.302  -4.020   6.540  0.00  0.00    -0.267 N 
ATOM     10  C   UNL     1       2.165  -3.393   5.218  0.00  0.00    +0.123 C 
ATOM     11  C   UNL     1       1.265  -4.673   7.101  0.00  0.00    +0.403 C 
ATOM     12  O   UNL     1       0.204  -4.747   6.512  0.00  0.00    -0.226 OA
BRANCH  11  13
ATOM     13  O   UNL     1       1.404  -5.244   8.312  0.00  0.00    -0.445 OA
BRANCH  13  14
ATOM     14  C   UNL     1       0.264  -5.919   8.846  0.00  0.00    +0.107 C 
ATOM     15  C   UNL     1      -0.145  -7.053   7.903  0.00  0.00    +0.055 C 
ATOM     16  C   UNL     1       0.611  -6.499  10.219  0.00  0.00    +0.055 C 
ATOM     17  C   UNL     1      -0.895  -4.931   8.988  0.00  0.00    +0.055 C 
ENDBRANCH  13  14
ENDBRANCH  11  13
ENDBRANCH   2   5
BRANCH   1  18
ATOM     18  C   UNL     1       1.433  -0.652   1.902  0.00  0.00    +0.121 C 
BRANCH  18  26
ATOM     19  C   UNL     1      -0.018   1.503   0.010  0.00  0.00    +0.040 C 
ATOM     20  C   UNL     1       0.002  -0.004   0.002  0.00  0.00    -0.058 C 
ATOM     21  C   UNL     1       0.005  -0.637  -1.160  0.00  0.00    +0.022 C 
ATOM     22  C   UNL     1       0.017  -2.113  -1.190  0.00  0.00    +0.026 C 
ATOM     23  N   UNL     1      -0.331  -2.811  -0.026  0.00  0.00    -0.285 N 
ATOM     24  C   UNL     1      -0.360  -2.176   1.156  0.00  0.00    +0.226 C 
ATOM     25  O   UNL     1      -0.705  -2.796   2.140  0.00  0.00    -0.275 OA
ATOM     26  C   UNL     1       0.024  -0.735   1.310  0.00  0.00    +0.118 C 
ATOM     27  C   UNL     1       0.353  -2.770  -2.303  0.00  0.00    +0.033 C 
ATOM     28  H   UNL     1      -0.553  -3.753  -0.075  0.00  0.00    +0.155 HD
ENDBRANCH  18  26
ENDBRANCH   1  18
TORSDOF 5
