REMARK  Name = ZINC52002034
REMARK  6 active torsions:
REMARK  status: ('A' for Active; 'I' for Inactive)
REMARK    1  A    between atoms: C_1  and  C_2
REMARK    2  A    between atoms: C_2  and  N_3
REMARK    3  A    between atoms: C_5  and  N_20
REMARK    4  A    between atoms: C_7  and  C_8
REMARK    5  A    between atoms: N_10  and  C_11
REMARK    6  A    between atoms: C_17  and  O_19
REMARK                            x       y       z     vdW  Elec       q    Type
REMARK                         _______ _______ _______ _____ _____    ______ ____
ROOT
ATOM      1  C   UNL     1       3.043  -0.568  -0.258  0.00  0.00    +0.261 C 
ATOM      2  O   UNL     1       4.226  -0.681  -0.519  0.00  0.00    -0.269 OA
ATOM      3  N   UNL     1       2.654  -0.299   1.005  0.00  0.00    -0.305 N 
ATOM      4  H   UNL     1       1.710  -0.282   1.228  0.00  0.00    +0.149 HD
ENDROOT
BRANCH   3   5
ATOM      5  C   UNL     1       3.657  -0.032   2.039  0.00  0.00    +0.102 C 
ATOM      6  C   UNL     1       4.147  -1.357   2.627  0.00  0.00    +0.025 C 
ATOM      7  C   UNL     1       5.195  -1.078   3.707  0.00  0.00    +0.002 C 
ATOM      8  C   UNL     1       4.571  -0.228   4.815  0.00  0.00    +0.003 C 
ATOM      9  C   UNL     1       4.081   1.097   4.227  0.00  0.00    +0.033 C 
ATOM     10  C   UNL     1       3.033   0.818   3.147  0.00  0.00    +0.135 C 
BRANCH  10  11
ATOM     11  O   UNL     1       2.575   2.055   2.597  0.00  0.00    -0.390 OA
ATOM     12  H   UNL     1       2.167   2.646   3.245  0.00  0.00    +0.210 HD
ENDBRANCH  10  11
ENDBRANCH   3   5
BRANCH   1  17
ATOM     13  N   UNL     1       2.282  -1.096  -2.619  0.00  0.00    -0.341 N 
ATOM     14  C   UNL     1       1.103  -1.133  -3.286  0.00  0.00    +0.119 A 
ATOM     15  C   UNL     1       0.107  -0.785  -2.436  0.00  0.00    +0.144 A 
ATOM     16  C   UNL     1       0.682  -0.519  -1.189  0.00  0.00    +0.065 A 
ATOM     17  C   UNL     1       2.039  -0.723  -1.316  0.00  0.00    +0.107 A 
BRANCH  15  18
ATOM     18  N   UNL     1      -1.332  -0.700  -2.768  0.00  0.00    +0.058 N 
ATOM     19  O   UNL     1      -1.710  -0.954  -3.888  0.00  0.00    -0.126 OA
ATOM     20  O   UNL     1      -2.130  -0.376  -1.920  0.00  0.00    -0.126 OA
ENDBRANCH  15  18
BRANCH  13  22
ATOM     21  C   UNL     1       3.982  -2.843  -2.823  0.00  0.00    +0.027 C 
ATOM     22  C   UNL     1       3.596  -1.408  -3.188  0.00  0.00    +0.118 C 
ENDBRANCH  13  22
ENDBRANCH   1  17
TORSDOF 5
