REMARK  Name = ZINC38008950
REMARK  5 active torsions:
REMARK  status: ('A' for Active; 'I' for Inactive)
REMARK    1  A    between atoms: C_4  and  N_20
REMARK    2  A    between atoms: C_6  and  S_7
REMARK    3  A    between atoms: S_7  and  N_10
REMARK    4  A    between atoms: N_10  and  C_11
REMARK    5  A    between atoms: N_20  and  N_21
REMARK                            x       y       z     vdW  Elec       q    Type
REMARK                         _______ _______ _______ _____ _____    ______ ____
ROOT
ATOM      1  S   UNL     1      -1.500  -0.925   0.012  0.00  0.00    +0.059 S 
ATOM      2  O   UNL     1      -1.189  -2.202   0.553  0.00  0.00    -0.153 OA
ATOM      3  O   UNL     1      -2.492  -0.079   0.577  0.00  0.00    -0.153 OA
ENDROOT
BRANCH   1   9
ATOM      4  C   UNL     1      -0.017   1.384   0.010  0.00  0.00    +0.048 A 
ATOM      5  C   UNL     1       1.178   2.077   0.002  0.00  0.00    +0.115 A 
ATOM      6  N   UNL     1       2.331   1.436  -0.013  0.00  0.00    -0.239 NA
ATOM      7  C   UNL     1       2.391   0.113  -0.020  0.00  0.00    +0.134 A 
ATOM      8  C   UNL     1       1.227  -0.648  -0.014  0.00  0.00    +0.073 A 
ATOM      9  C   UNL     1       0.002  -0.004   0.002  0.00  0.00    +0.110 A 
BRANCH   7  10
ATOM     10  N   UNL     1       3.628  -0.520  -0.035  0.00  0.00    -0.267 N 
ATOM     11  H   UNL     1       3.677  -1.489  -0.041  0.00  0.00    +0.167 HD
BRANCH  10  12
ATOM     12  N   UNL     1       4.775   0.221  -0.042  0.00  0.00    -0.255 NA
ATOM     13  H   UNL     1       4.801   0.855   0.742  0.00  0.00    +0.140 HD
ATOM     14  H   UNL     1       5.590  -0.373  -0.053  0.00  0.00    +0.140 HD
ENDBRANCH  10  12
ENDBRANCH   7  10
ENDBRANCH   1   9
BRANCH   1  15
ATOM     15  N   UNL     1      -1.933  -1.173  -1.567  0.00  0.00    -0.188 NA
ATOM     16  H   UNL     1      -2.746  -0.774  -1.915  0.00  0.00    +0.148 HD
BRANCH  15  17
ATOM     17  C   UNL     1      -1.088  -1.994  -2.438  0.00  0.00    +0.063 C 
ATOM     18  C   UNL     1      -1.615  -3.430  -2.458  0.00  0.00    -0.058 C 
ATOM     19  N   UNL     1      -1.984  -3.811  -3.823  0.00  0.00    +0.381 N 
ATOM     20  C   UNL     1      -3.051  -2.946  -4.329  0.00  0.00    -0.078 C 
ATOM     21  C   UNL     1      -2.572  -1.493  -4.372  0.00  0.00    -0.014 C 
ATOM     22  C   UNL     1      -1.122  -1.432  -3.865  0.00  0.00    +0.002 C 
ATOM     23  C   UNL     1      -0.260  -2.332  -4.761  0.00  0.00    -0.014 C 
ATOM     24  C   UNL     1      -0.816  -3.760  -4.706  0.00  0.00    -0.078 C 
ATOM     25  H   UNL     1      -2.331  -4.758  -3.808  0.00  0.00    -0.082 HD
ENDBRANCH  15  17
ENDBRANCH   1  15
TORSDOF 5
