REMARK  Name = ZINC00672991
REMARK  3 active torsions:
REMARK  status: ('A' for Active; 'I' for Inactive)
REMARK    1  A    between atoms: C_4  and  N_10
REMARK    2  A    between atoms: C_6  and  N_7
REMARK    3  A    between atoms: C_11  and  C_13
REMARK                            x       y       z     vdW  Elec       q    Type
REMARK                         _______ _______ _______ _____ _____    ______ ____
ROOT
ATOM      1  N   UNL     1       0.002  -0.004   0.002  0.00  0.00    -0.279 N 
ATOM      2  C   UNL     1      -0.015   1.343   0.016  0.00  0.00    +0.256 C 
ATOM      3  O   UNL     1       1.030   1.966   0.006  0.00  0.00    -0.269 OA
ATOM      4  H   UNL     1      -0.828  -0.501   0.075  0.00  0.00    +0.155 HD
ENDROOT
BRANCH   2   5
ATOM      5  C   UNL     1      -1.296   2.060   0.038  0.00  0.00    +0.094 A 
ATOM      6  C   UNL     1      -1.515   3.404   0.060  0.00  0.00    +0.068 A 
ATOM      7  C   UNL     1      -2.833   3.898   0.075  0.00  0.00    +0.008 A 
ATOM      8  C   UNL     1      -3.262   5.250   0.094  0.00  0.00    +0.013 A 
ATOM      9  C   UNL     1      -4.584   5.560   0.113  0.00  0.00    +0.039 A 
ATOM     10  C   UNL     1      -5.564   4.572   0.114  0.00  0.00    +0.124 A 
ATOM     11  C   UNL     1      -5.189   3.241   0.095  0.00  0.00    +0.054 A 
ATOM     12  C   UNL     1      -3.850   2.914   0.077  0.00  0.00    +0.024 A 
ATOM     13  S   UNL     1      -2.947   1.386   0.050  0.00  0.00    -0.082 S 
ATOM     14  F   UNL     1      -6.872   4.910   0.132  0.00  0.00    -0.205 F 
ATOM     15 CL   UNL     1      -0.173   4.504   0.065  0.00  0.00    -0.082 Cl
ENDBRANCH   2   5
BRANCH   1  19
ATOM     16  C   UNL     1       3.623  -2.037  -0.357  0.00  0.00    +0.035 A 
ATOM     17  C   UNL     1       2.481  -2.556  -0.940  0.00  0.00    +0.042 A 
ATOM     18  C   UNL     1       1.276  -1.888  -0.819  0.00  0.00    +0.145 A 
ATOM     19  C   UNL     1       1.218  -0.687  -0.119  0.00  0.00    +0.071 A 
ATOM     20  C   UNL     1       2.367  -0.170   0.464  0.00  0.00    +0.059 A 
ATOM     21  C   UNL     1       3.566  -0.846   0.343  0.00  0.00    +0.128 A 
ATOM     22  F   UNL     1       0.160  -2.398  -1.383  0.00  0.00    -0.204 F 
BRANCH  21  23
ATOM     23  N   UNL     1       4.791  -0.295   0.964  0.00  0.00    +0.056 N 
ATOM     24  O   UNL     1       4.742   0.753   1.582  0.00  0.00    -0.126 OA
ATOM     25  O   UNL     1       5.848  -0.890   0.858  0.00  0.00    -0.126 OA
ENDBRANCH  21  23
ENDBRANCH   1  19
TORSDOF 3
