REMARK  Name = ZINC58456739
REMARK  3 active torsions:
REMARK  status: ('A' for Active; 'I' for Inactive)
REMARK    1  A    between atoms: C_4  and  S_20
REMARK    2  A    between atoms: C_6  and  C_7
REMARK    3  A    between atoms: S_20  and  N_23
REMARK                            x       y       z     vdW  Elec       q    Type
REMARK                         _______ _______ _______ _____ _____    ______ ____
ROOT
ATOM      1  C   UNL     1      -2.136  -2.918   0.902  0.00  0.00    +0.016 A 
ATOM      2  C   UNL     1      -2.115  -4.296   0.952  0.00  0.00    +0.041 A 
ATOM      3  C   UNL     1      -1.212  -5.006   0.176  0.00  0.00    +0.150 A 
ATOM      4  C   UNL     1      -0.326  -4.335  -0.654  0.00  0.00    +0.141 A 
ATOM      5  C   UNL     1      -0.338  -2.959  -0.711  0.00  0.00    +0.044 A 
ATOM      6  C   UNL     1      -1.246  -2.238   0.068  0.00  0.00    +0.039 A 
ATOM      7  F   UNL     1      -1.195  -6.356   0.228  0.00  0.00    -0.203 F 
ENDROOT
BRANCH   6   8
ATOM      8  C   UNL     1      -1.265  -0.762   0.011  0.00  0.00    +0.251 C 
ATOM      9  O   UNL     1      -0.222  -0.140   0.041  0.00  0.00    -0.270 OA
ATOM     10  N   UNL     1      -2.439  -0.106  -0.076  0.00  0.00    -0.267 N 
ATOM     11  C   UNL     1      -3.710  -0.844  -0.063  0.00  0.00    +0.114 C 
ATOM     12  C   UNL     1      -4.603  -0.259  -1.165  0.00  0.00    +0.024 C 
ATOM     13  C   UNL     1      -4.906   1.202  -0.831  0.00  0.00    +0.038 C 
ATOM     14  C   UNL     1      -3.632   1.952  -0.542  0.00  0.00    -0.025 A 
ATOM     15  C   UNL     1      -2.469   1.291  -0.174  0.00  0.00    +0.040 A 
ATOM     16  C   UNL     1      -1.312   2.013   0.096  0.00  0.00    +0.025 A 
ATOM     17  C   UNL     1      -1.319   3.391   0.001  0.00  0.00    +0.022 A 
ATOM     18  C   UNL     1      -2.479   4.051  -0.362  0.00  0.00    +0.041 A 
ATOM     19  C   UNL     1      -3.631   3.333  -0.642  0.00  0.00    +0.025 A 
ATOM     20 CL   UNL     1      -2.489   5.783  -0.483  0.00  0.00    -0.084 Cl
ENDBRANCH   6   8
BRANCH   4  21
ATOM     21  S   UNL     1       0.820  -5.246  -1.636  0.00  0.00    +0.059 S 
ATOM     22  O   UNL     1       0.073  -6.261  -2.294  0.00  0.00    -0.153 OA
ATOM     23  O   UNL     1       1.596  -4.290  -2.345  0.00  0.00    -0.153 OA
BRANCH  21  24
ATOM     24  N   UNL     1       1.852  -6.017  -0.596  0.00  0.00    -0.203 NA
ATOM     25  H   UNL     1       1.745  -5.909   0.362  0.00  0.00    +0.144 HD
ATOM     26  H   UNL     1       2.564  -6.576  -0.945  0.00  0.00    +0.144 HD
ENDBRANCH  21  24
ENDBRANCH   4  21
TORSDOF 3
