REMARK  Name = ZINC54089991
REMARK  11 active torsions:
REMARK  status: ('A' for Active; 'I' for Inactive)
REMARK    1  A    between atoms: C_1  and  C_2
REMARK    2  A    between atoms: C_6  and  O_8
REMARK    3  A    between atoms: O_8  and  C_9
REMARK    4  A    between atoms: C_9  and  C_10
REMARK    5  A    between atoms: N_12  and  N_13
REMARK    6  A    between atoms: N_16  and  C_17
REMARK    7  A    between atoms: C_17  and  C_19
REMARK    8  A    between atoms: C_17  and  C_20
REMARK    9  A    between atoms: C_22  and  C_28
REMARK   10  A    between atoms: C_25  and  O_26
REMARK   11  A    between atoms: O_26  and  C_27
REMARK                            x       y       z     vdW  Elec       q    Type
REMARK                         _______ _______ _______ _____ _____    ______ ____
ROOT
ATOM      1  N   UNL     1       0.814  -6.795   5.390  0.00  0.00    -0.218 N 
ATOM      2  C   UNL     1       0.585  -8.121   5.455  0.00  0.00    +0.316 C 
ATOM      3  O   UNL     1       0.536  -8.677   6.536  0.00  0.00    -0.251 OA
ATOM      4  N   UNL     1       0.409  -8.831   4.324  0.00  0.00    -0.292 N 
ATOM      5  H   UNL     1       0.941  -6.284   6.204  0.00  0.00    +0.174 HD
ATOM      6  H   UNL     1       0.447  -8.388   3.462  0.00  0.00    +0.151 HD
ENDROOT
BRANCH   1   9
ATOM      7  C   UNL     1       1.100  -4.828   4.079  0.00  0.00    +0.267 C 
ATOM      8  O   UNL     1       1.258  -4.189   5.098  0.00  0.00    -0.271 OA
ATOM      9  N   UNL     1       0.870  -6.154   4.145  0.00  0.00    -0.230 N 
ATOM     10  H   UNL     1       0.744  -6.665   3.330  0.00  0.00    +0.173 HD
BRANCH   7  11
ATOM     11  C   UNL     1       1.160  -4.139   2.740  0.00  0.00    +0.326 C 
BRANCH  11  12
ATOM     12  O   UNL     1       1.413  -2.746   2.932  0.00  0.00    -0.483 OA
BRANCH  12  18
ATOM     13  C   UNL     1       2.091   1.647   0.916  0.00  0.00    +0.044 C 
ATOM     14  C   UNL     1       1.827   0.169   0.794  0.00  0.00    -0.047 A 
ATOM     15  C   UNL     1       1.670  -0.404  -0.455  0.00  0.00    +0.003 A 
ATOM     16  C   UNL     1       1.427  -1.760  -0.570  0.00  0.00    +0.004 A 
ATOM     17  C   UNL     1       1.341  -2.547   0.563  0.00  0.00    +0.045 A 
ATOM     18  C   UNL     1       1.498  -1.974   1.817  0.00  0.00    +0.121 A 
ATOM     19  C   UNL     1       1.747  -0.614   1.929  0.00  0.00    +0.049 A 
ENDBRANCH  12  18
ENDBRANCH  11  12
ENDBRANCH   7  11
ENDBRANCH   1   9
BRANCH   4  20
ATOM     20  C   UNL     1       0.159 -10.273   4.395  0.00  0.00    +0.105 C 
ATOM     21  C   UNL     1      -1.342 -10.524   4.553  0.00  0.00    +0.033 C 
BRANCH  20  22
ATOM     22  C   UNL     1       0.648 -10.931   3.130  0.00  0.00    +0.014 A 
ATOM     23  C   UNL     1       0.697 -10.212   1.952  0.00  0.00    +0.012 A 
ATOM     24  C   UNL     1       1.145 -10.815   0.791  0.00  0.00    -0.050 A 
ATOM     25  C   UNL     1       1.546 -12.139   0.807  0.00  0.00    +0.007 A 
ATOM     26  C   UNL     1       1.499 -12.861   1.983  0.00  0.00    +0.046 A 
ATOM     27  C   UNL     1       1.055 -12.257   3.150  0.00  0.00    +0.125 A 
ATOM     28  C   UNL     1       1.196 -10.029  -0.494  0.00  0.00    +0.044 C 
BRANCH  27  29
ATOM     29  O   UNL     1       1.013 -12.964   4.310  0.00  0.00    -0.495 OA
ATOM     30  C   UNL     1       1.447 -14.325   4.255  0.00  0.00    +0.277 C 
ENDBRANCH  27  29
ENDBRANCH  20  22
ENDBRANCH   4  20
TORSDOF 7
