REMARK  Name = ZINC39523458
REMARK  7 active torsions:
REMARK  status: ('A' for Active; 'I' for Inactive)
REMARK    1  A    between atoms: C_1  and  C_2
REMARK    2  A    between atoms: C_2  and  C_3
REMARK    3  A    between atoms: C_2  and  S_4
REMARK    4  A    between atoms: S_4  and  C_7
REMARK    5  A    between atoms: N_13  and  O_14
REMARK    6  A    between atoms: C_18  and  S_21
REMARK    7  A    between atoms: S_21  and  C_22
REMARK                            x       y       z     vdW  Elec       q    Type
REMARK                         _______ _______ _______ _____ _____    ______ ____
ROOT
ATOM      1  C   UNL     1      -1.020  -2.678   0.018  0.00  0.00    +0.225 C 
ATOM      2  C   UNL     1      -2.301  -3.497  -0.155  0.00  0.00    +0.044 C 
ATOM      3  C   UNL     1      -2.063  -4.920   0.360  0.00  0.00    +0.005 C 
ATOM      4  C   UNL     1      -1.627  -4.857   1.826  0.00  0.00    +0.025 C 
ATOM      5  C   UNL     1      -0.366  -3.998   1.943  0.00  0.00    +0.050 C 
ATOM      6  N   UNL     1      -0.645  -2.648   1.438  0.00  0.00    -0.161 NA
ATOM      7  C   UNL     1       0.758  -4.630   1.120  0.00  0.00    +0.025 C 
ATOM      8  C   UNL     1       2.021  -3.775   1.240  0.00  0.00    +0.003 C 
ATOM      9  C   UNL     1       2.446  -3.695   2.708  0.00  0.00    +0.014 C 
ATOM     10  C   UNL     1       1.322  -3.061   3.529  0.00  0.00    +0.048 C 
ATOM     11  C   UNL     1       0.059  -3.917   3.410  0.00  0.00    +0.039 C 
ENDROOT
BRANCH   1  12
ATOM     12  S   UNL     1      -1.302  -0.985  -0.569  0.00  0.00    -0.011 S 
ATOM     13  O   UNL     1      -0.098  -0.247  -0.409  0.00  0.00    -0.173 OA
ATOM     14  O   UNL     1      -2.495  -0.495   0.028  0.00  0.00    -0.173 OA
BRANCH  12  16
ATOM     15  C   UNL     1      -1.897   0.133  -2.993  0.00  0.00    +0.031 C 
ATOM     16  C   UNL     1      -1.601  -1.220  -2.342  0.00  0.00    +0.126 C 
ATOM     17  C   UNL     1      -0.360  -1.837  -2.991  0.00  0.00    +0.031 C 
ENDBRANCH  12  16
ENDBRANCH   1  12
BRANCH   6  18
ATOM     18  O   UNL     1       0.497  -1.760   1.659  0.00  0.00    -0.310 OA
ATOM     19  H   UNL     1       0.297  -0.823   1.527  0.00  0.00    +0.237 HD
ENDBRANCH   6  18
BRANCH  10  20
ATOM     20  S   UNL     1       1.825  -2.965   5.269  0.00  0.00    -0.161 S 
ATOM     21  C   UNL     1       3.223  -1.809   5.258  0.00  0.00    +0.084 C 
ENDBRANCH  10  20
TORSDOF 4
