REMARK  Name = ZINC04623404
REMARK  4 active torsions:
REMARK  status: ('A' for Active; 'I' for Inactive)
REMARK    1  A    between atoms: C_1  and  O_2
REMARK    2  A    between atoms: O_2  and  C_3
REMARK    3  A    between atoms: C_3  and  C_5
REMARK    4  A    between atoms: C_18  and  C_21
REMARK                            x       y       z     vdW  Elec       q    Type
REMARK                         _______ _______ _______ _____ _____    ______ ____
ROOT
ATOM      1  C   UNL     1      -0.740   1.275   0.171  0.00  0.00    +0.065 A 
ATOM      2  C   UNL     1       0.307   2.156   0.444  0.00  0.00    +0.017 A 
ATOM      3  C   UNL     1       1.606   1.692   0.433  0.00  0.00    +0.022 A 
ATOM      4  C   UNL     1       1.871   0.365   0.161  0.00  0.00    +0.062 A 
ATOM      5  C   UNL     1       0.837  -0.537  -0.109  0.00  0.00    +0.051 A 
ATOM      6  C   UNL     1      -0.474  -0.063  -0.111  0.00  0.00    -0.004 A 
ATOM      7  C   UNL     1      -1.554  -1.018  -0.443  0.00  0.00    +0.049 C 
ATOM      8  C   UNL     1      -2.953  -0.901   0.064  0.00  0.00    -0.023 C 
ATOM      9  C   UNL     1      -3.458  -2.118   0.234  0.00  0.00    -0.030 C 
ATOM     10  C   UNL     1      -2.413  -3.173  -0.142  0.00  0.00    +0.033 C 
ATOM     11  C   UNL     1      -1.107  -2.410   0.104  0.00  0.00    +0.029 C 
ATOM     12  C   UNL     1       0.100  -2.779  -0.734  0.00  0.00    +0.106 C 
ATOM     13  N   UNL     1       1.188  -1.865  -0.351  0.00  0.00    -0.335 N 
ATOM     14 CL   UNL     1       3.514  -0.193   0.153  0.00  0.00    -0.082 Cl
ATOM     15  H   UNL     1       1.955  -1.923  -1.004  0.00  0.00    +0.147 HD
ENDROOT
BRANCH  12  16
ATOM     16  C   UNL     1      -0.220  -2.612  -2.197  0.00  0.00    -0.009 A 
ATOM     17  C   UNL     1       0.060  -1.419  -2.846  0.00  0.00    +0.008 A 
ATOM     18  C   UNL     1      -0.247  -1.313  -4.193  0.00  0.00    +0.020 A 
ATOM     19  C   UNL     1      -0.829  -2.389  -4.838  0.00  0.00    +0.111 A 
ATOM     20  N   UNL     1      -1.086  -3.506  -4.188  0.00  0.00    -0.263 NA
ATOM     21  C   UNL     1      -0.802  -3.645  -2.908  0.00  0.00    +0.116 A 
ENDBRANCH  12  16
BRANCH   1  22
ATOM     22  C   UNL     1      -2.134   1.764   0.174  0.00  0.00    +0.339 C 
ATOM     23  O   UNL     1      -2.841   1.589  -0.798  0.00  0.00    -0.245 OA
BRANCH  22  25
ATOM     24  C   UNL     1      -3.998   2.858   1.188  0.00  0.00    +0.280 C 
ATOM     25  O   UNL     1      -2.620   2.405   1.255  0.00  0.00    -0.464 OA
ENDBRANCH  22  25
ENDBRANCH   1  22
TORSDOF 3
