REMARK  Name = ZINC39664447
REMARK  6 active torsions:
REMARK  status: ('A' for Active; 'I' for Inactive)
REMARK    1  A    between atoms: C_4  and  C_7
REMARK    2  A    between atoms: C_7  and  C_9
REMARK    3  A    between atoms: C_7  and  N_35
REMARK    4  A    between atoms: C_9  and  N_10
REMARK    5  A    between atoms: C_11  and  C_13
REMARK    6  A    between atoms: C_24  and  C_26
REMARK                            x       y       z     vdW  Elec       q    Type
REMARK                         _______ _______ _______ _____ _____    ______ ____
ROOT
ATOM      1  C   UNL     1       7.187  -3.373   1.802  0.00  0.00    +0.100 C 
ATOM      2  C   UNL     1       6.631  -4.611   1.064  0.00  0.00    +0.121 C 
ATOM      3  N   UNL     1       7.101  -5.766   1.863  0.00  0.00    -0.296 N 
ATOM      4  C   UNL     1       6.968  -5.319   3.271  0.00  0.00    +0.115 C 
ATOM      5  C   UNL     1       7.406  -3.842   3.250  0.00  0.00    -0.004 C 
ATOM      6  C   UNL     1       8.880  -3.723   3.626  0.00  0.00    -0.010 C 
ATOM      7  C   UNL     1       9.064  -4.141   5.088  0.00  0.00    -0.082 C 
ATOM      8  N   UNL     1       8.247  -3.280   5.951  0.00  0.00    +0.379 N 
ATOM      9  C   UNL     1       6.824  -3.470   5.645  0.00  0.00    -0.082 C 
ATOM     10  C   UNL     1       6.545  -3.023   4.207  0.00  0.00    -0.010 C 
ATOM     11  C   UNL     1       7.550  -6.955   1.413  0.00  0.00    +0.248 C 
ATOM     12  O   UNL     1       7.809  -7.845   2.201  0.00  0.00    -0.270 OA
ATOM     13  H   UNL     1       8.416  -3.517   6.917  0.00  0.00    -0.086 HD
ATOM     14  H   UNL     1       8.498  -2.315   5.796  0.00  0.00    -0.086 HD
ENDROOT
BRANCH  11  15
ATOM     15  C   UNL     1       7.726  -7.175  -0.028  0.00  0.00    +0.052 A 
ATOM     16  C   UNL     1       6.873  -6.622  -0.930  0.00  0.00    +0.059 A 
ATOM     17  S   UNL     1       7.430  -7.120  -2.432  0.00  0.00    -0.096 S 
ATOM     18  C   UNL     1       8.828  -8.092  -1.942  0.00  0.00    +0.020 A 
ATOM     19  C   UNL     1       8.829  -7.993  -0.538  0.00  0.00    +0.001 A 
ATOM     20  C   UNL     1       9.848  -8.672   0.156  0.00  0.00    +0.010 A 
ATOM     21  C   UNL     1      10.795  -9.390  -0.530  0.00  0.00    +0.001 A 
ATOM     22  C   UNL     1      10.775  -9.468  -1.915  0.00  0.00    +0.001 A 
ATOM     23  C   UNL     1       9.780  -8.821  -2.622  0.00  0.00    +0.015 A 
ENDBRANCH  11  15
BRANCH   1  25
ATOM     24  N   UNL     1       6.601  -0.972   1.919  0.00  0.00    -0.313 N 
ATOM     25  C   UNL     1       6.188  -2.245   1.761  0.00  0.00    +0.218 C 
ATOM     26  O   UNL     1       5.011  -2.483   1.586  0.00  0.00    -0.275 OA
ATOM     27  H   UNL     1       7.542  -0.782   2.059  0.00  0.00    +0.149 HD
BRANCH  24  28
ATOM     28  C   UNL     1       5.630   0.124   1.880  0.00  0.00    +0.127 C 
BRANCH  28  29
ATOM     29  C   UNL     1       6.367   1.462   1.967  0.00  0.00    +0.104 C 
BRANCH  29  33
ATOM     30  C   UNL     1       8.300   1.780   5.763  0.00  0.00    +0.000 A 
ATOM     31  C   UNL     1       9.027   1.412   4.647  0.00  0.00    +0.000 A 
ATOM     32  C   UNL     1       8.401   1.309   3.418  0.00  0.00    +0.005 A 
ATOM     33  C   UNL     1       7.049   1.573   3.307  0.00  0.00    -0.029 A 
ATOM     34  C   UNL     1       6.322   1.941   4.424  0.00  0.00    +0.005 A 
ATOM     35  C   UNL     1       6.948   2.045   5.652  0.00  0.00    +0.000 A 
ENDBRANCH  29  33
BRANCH  29  36
ATOM     36  N   UNL     1       5.405   2.562   1.814  0.00  0.00    -0.290 NA
ATOM     37  C   UNL     1       4.614   2.402   0.586  0.00  0.00    +0.113 C 
ATOM     38  C   UNL     1       3.587   3.534   0.496  0.00  0.00    +0.175 C 
ATOM     39  O   UNL     1       4.266   4.792   0.544  0.00  0.00    -0.377 OA
ATOM     40  C   UNL     1       5.045   4.981   1.728  0.00  0.00    +0.175 C 
ATOM     41  C   UNL     1       6.088   3.864   1.829  0.00  0.00    +0.113 C 
ENDBRANCH  29  36
ENDBRANCH  28  29
ENDBRANCH  24  28
ENDBRANCH   1  25
TORSDOF 6
