REMARK  Name = ZINC09068734
REMARK  6 active torsions:
REMARK  status: ('A' for Active; 'I' for Inactive)
REMARK    1  A    between atoms: C_1  and  C_2
REMARK    2  A    between atoms: C_5  and  N_8
REMARK    3  A    between atoms: C_10  and  C_15
REMARK    4  A    between atoms: C_15  and  N_16
REMARK    5  A    between atoms: C_17  and  C_19
REMARK    6  A    between atoms: C_24  and  C_25
REMARK                            x       y       z     vdW  Elec       q    Type
REMARK                         _______ _______ _______ _____ _____    ______ ____
ROOT
ATOM      1  N   UNL     1       0.629   3.608  -1.847  0.00  0.00    -0.234 N 
ATOM      2  C   UNL     1       0.819   2.795  -0.636  0.00  0.00    +0.163 C 
ATOM      3  C   UNL     1      -0.506   2.018  -0.505  0.00  0.00    +0.213 C 
ATOM      4  O   UNL     1      -1.294   2.471  -1.643  0.00  0.00    -0.444 OA
ATOM      5  C   UNL     1      -0.588   3.362  -2.349  0.00  0.00    +0.408 C 
ATOM      6  O   UNL     1      -1.013   3.899  -3.353  0.00  0.00    -0.226 OA
ENDROOT
BRANCH   1  11
ATOM      7  C   UNL     1       4.435   7.202  -4.035  0.00  0.00    +0.044 C 
ATOM      8  C   UNL     1       3.425   6.247  -3.454  0.00  0.00    -0.050 A 
ATOM      9  C   UNL     1       2.198   6.082  -4.070  0.00  0.00    +0.005 A 
ATOM     10  C   UNL     1       1.269   5.208  -3.539  0.00  0.00    +0.024 A 
ATOM     11  C   UNL     1       1.568   4.495  -2.386  0.00  0.00    +0.040 A 
ATOM     12  C   UNL     1       2.799   4.667  -1.767  0.00  0.00    +0.024 A 
ATOM     13  C   UNL     1       3.726   5.538  -2.305  0.00  0.00    +0.005 A 
ENDBRANCH   1  11
BRANCH   3  14
ATOM     14  C   UNL     1      -1.206   2.370   0.809  0.00  0.00    +0.150 C 
BRANCH  14  15
ATOM     15  N   UNL     1      -2.423   1.566   0.945  0.00  0.00    -0.308 N 
ATOM     16  C   UNL     1      -3.207   1.707   2.032  0.00  0.00    +0.244 C 
ATOM     17  O   UNL     1      -2.904   2.501   2.901  0.00  0.00    -0.270 OA
ATOM     18  H   UNL     1      -2.665   0.932   0.251  0.00  0.00    +0.149 HD
BRANCH  16  19
ATOM     19  C   UNL     1      -4.435   0.895   2.168  0.00  0.00    +0.040 A 
ATOM     20  C   UNL     1      -4.856   0.079   1.117  0.00  0.00    +0.013 A 
ATOM     21  C   UNL     1      -6.003  -0.676   1.251  0.00  0.00    +0.001 A 
ATOM     22  C   UNL     1      -6.736  -0.625   2.424  0.00  0.00    +0.000 A 
ATOM     23  C   UNL     1      -6.324   0.181   3.469  0.00  0.00    +0.004 A 
ATOM     24  C   UNL     1      -5.176   0.938   3.350  0.00  0.00    -0.038 A 
ATOM     25  C   UNL     1      -4.726   1.812   4.492  0.00  0.00    +0.044 C 
ENDBRANCH  16  19
ENDBRANCH  14  15
ENDBRANCH   3  14
TORSDOF 4
