REMARK  Name = ZINC59373316
REMARK  6 active torsions:
REMARK  status: ('A' for Active; 'I' for Inactive)
REMARK    1  A    between atoms: C_1  and  C_2
REMARK    2  A    between atoms: C_2  and  C_4
REMARK    3  A    between atoms: C_2  and  S_23
REMARK    4  A    between atoms: N_6  and  C_7
REMARK    5  A    between atoms: C_15  and  C_20
REMARK    6  A    between atoms: S_23  and  C_24
REMARK                            x       y       z     vdW  Elec       q    Type
REMARK                         _______ _______ _______ _____ _____    ______ ____
ROOT
ATOM      1  C   UNL     1       0.968  -0.274  -3.808  0.00  0.00    +0.105 C 
ATOM      2  C   UNL     1       0.068  -0.796  -4.925  0.00  0.00    +0.027 C 
ATOM      3  C   UNL     1       0.869  -0.782  -6.232  0.00  0.00    +0.008 C 
ATOM      4  C   UNL     1       1.099   0.672  -6.636  0.00  0.00    +0.054 C 
ATOM      5  C   UNL     1       1.670   1.462  -5.485  0.00  0.00    +0.024 A 
ATOM      6  C   UNL     1       1.604   1.034  -4.204  0.00  0.00    -0.007 A 
ATOM      7  C   UNL     1       2.143   1.821  -3.176  0.00  0.00    +0.025 A 
ATOM      8  C   UNL     1       2.746   3.035  -3.483  0.00  0.00    +0.101 A 
ATOM      9  C   UNL     1       2.798   3.439  -4.843  0.00  0.00    +0.261 A 
ATOM     10  O   UNL     1       3.322   4.496  -5.149  0.00  0.00    -0.267 OA
ATOM     11  N   UNL     1       2.268   2.650  -5.787  0.00  0.00    -0.325 N 
ATOM     12  H   UNL     1       2.310   2.933  -6.714  0.00  0.00    +0.169 HD
ENDROOT
BRANCH   8  13
ATOM     13  C   UNL     1       3.317   3.881  -2.424  0.00  0.00    +0.247 C 
ATOM     14  O   UNL     1       3.357   3.476  -1.278  0.00  0.00    -0.270 OA
ATOM     15  N   UNL     1       3.796   5.104  -2.724  0.00  0.00    -0.325 N 
ATOM     16  H   UNL     1       3.827   5.400  -3.647  0.00  0.00    +0.145 HD
ATOM     17  H   UNL     1       4.110   5.689  -2.016  0.00  0.00    +0.145 HD
ENDBRANCH   8  13
BRANCH   1  20
ATOM     18  C   UNL     1       0.756  -0.125  -1.385  0.00  0.00    +0.227 C 
ATOM     19  O   UNL     1       1.947  -0.335  -1.297  0.00  0.00    -0.275 OA
ATOM     20  N   UNL     1       0.168  -0.074  -2.597  0.00  0.00    -0.308 N 
ATOM     21  H   UNL     1      -0.785   0.094  -2.667  0.00  0.00    +0.149 HD
BRANCH  18  23
ATOM     22  C   UNL     1      -0.299   1.577   0.078  0.00  0.00    +0.029 C 
ATOM     23  C   UNL     1      -0.067   0.081  -0.140  0.00  0.00    +0.134 C 
BRANCH  23  24
ATOM     24  S   UNL     1       0.815  -0.608   1.288  0.00  0.00    -0.111 S 
BRANCH  24  25
ATOM     25  C   UNL     1       0.732  -2.351   1.041  0.00  0.00    +0.027 A 
ATOM     26  C   UNL     1       0.104  -2.865  -0.087  0.00  0.00    +0.016 A 
ATOM     27  C   UNL     1       0.041  -4.231  -0.278  0.00  0.00    +0.001 A 
ATOM     28  C   UNL     1       0.601  -5.088   0.652  0.00  0.00    +0.001 A 
ATOM     29  C   UNL     1       1.226  -4.581   1.776  0.00  0.00    +0.021 A 
ATOM     30  C   UNL     1       1.299  -3.215   1.971  0.00  0.00    +0.054 A 
ATOM     31 CL   UNL     1       2.091  -2.578   3.379  0.00  0.00    -0.082 Cl
ENDBRANCH  24  25
ENDBRANCH  23  24
ENDBRANCH  18  23
ENDBRANCH   1  20
TORSDOF 5
