REMARK  Name = ZINC02138946
REMARK  8 active torsions:
REMARK  status: ('A' for Active; 'I' for Inactive)
REMARK    1  A    between atoms: C_1  and  C_2
REMARK    2  A    between atoms: C_4  and  C_36
REMARK    3  A    between atoms: C_13  and  C_15
REMARK    4  A    between atoms: C_15  and  C_16
REMARK    5  A    between atoms: N_21  and  C_24
REMARK    6  A    between atoms: C_24  and  C_25
REMARK    7  A    between atoms: C_30  and  O_31
REMARK    8  A    between atoms: O_31  and  C_32
REMARK                            x       y       z     vdW  Elec       q    Type
REMARK                         _______ _______ _______ _____ _____    ______ ____
ROOT
ATOM      1  C   UNL     1      -3.450  -2.517  -2.679  0.00  0.00    +0.044 C 
ATOM      2  C   UNL     1      -3.251  -1.066  -2.324  0.00  0.00    -0.050 A 
ATOM      3  C   UNL     1      -4.323  -0.193  -2.351  0.00  0.00    +0.008 A 
ATOM      4  C   UNL     1      -4.147   1.137  -2.028  0.00  0.00    -0.029 A 
ATOM      5  C   UNL     1      -2.886   1.610  -1.671  0.00  0.00    +0.039 A 
ATOM      6  C   UNL     1      -1.815   0.722  -1.645  0.00  0.00    -0.027 A 
ATOM      7  C   UNL     1      -1.996  -0.604  -1.970  0.00  0.00    +0.008 A 
ATOM      8  C   UNL     1      -0.621   1.532  -1.227  0.00  0.00    +0.050 C 
ATOM      9  C   UNL     1       0.483   1.493  -2.292  0.00  0.00    +0.088 C 
ATOM     10  C   UNL     1       1.808   1.498  -1.481  0.00  0.00    +0.073 C 
ATOM     11  C   UNL     1       1.369   1.557  -0.003  0.00  0.00    -0.049 C 
ATOM     12  C   UNL     1       2.417   0.145  -1.770  0.00  0.00    +0.224 C 
ATOM     13  O   UNL     1       3.467  -0.261  -1.320  0.00  0.00    -0.275 OA
ATOM     14  N   UNL     1       1.595  -0.528  -2.606  0.00  0.00    -0.237 N 
ATOM     15  C   UNL     1       0.491   0.138  -2.963  0.00  0.00    +0.225 C 
ATOM     16  O   UNL     1      -0.368  -0.279  -3.709  0.00  0.00    -0.275 OA
ATOM     17  C   UNL     1      -1.144   2.928  -1.030  0.00  0.00    +0.211 C 
ATOM     18  O   UNL     1      -0.504   3.900  -0.688  0.00  0.00    -0.277 OA
ATOM     19  N   UNL     1      -2.462   2.890  -1.309  0.00  0.00    -0.286 N 
ATOM     20  C   UNL     1      -5.322   2.080  -2.063  0.00  0.00    +0.045 C 
ATOM     21  H   UNL     1      -3.047   3.662  -1.263  0.00  0.00    +0.155 HD
ATOM     22  N   UNL     1       0.004   1.026  -0.018  0.00  0.00    +0.394 N 
ATOM     23  H   UNL     1       0.022  -0.000  -0.029  0.00  0.00    -0.083 HD
ATOM     24  H   UNL     1      -0.511   1.350   0.810  0.00  0.00    -0.083 HD
ENDROOT
BRANCH  11  25
ATOM     25  C   UNL     1       2.292   0.697   0.864  0.00  0.00    +0.080 C 
BRANCH  25  26
ATOM     26  C   UNL     1       1.874   0.808   2.307  0.00  0.00    +0.209 C 
ATOM     27  O   UNL     1       0.930   1.506   2.613  0.00  0.00    -0.276 OA
ATOM     28  N   UNL     1       2.548   0.132   3.258  0.00  0.00    -0.329 N 
ATOM     29  H   UNL     1       3.303  -0.426   3.014  0.00  0.00    +0.145 HD
ATOM     30  H   UNL     1       2.278   0.204   4.187  0.00  0.00    +0.145 HD
ENDBRANCH  25  26
ENDBRANCH  11  25
BRANCH  14  31
ATOM     31  C   UNL     1       1.895  -1.879  -3.087  0.00  0.00    +0.155 C 
BRANCH  31  32
ATOM     32  C   UNL     1       2.690  -1.792  -4.364  0.00  0.00    +0.012 A 
ATOM     33  C   UNL     1       2.062  -1.966  -5.583  0.00  0.00    +0.009 A 
ATOM     34  C   UNL     1       2.791  -1.882  -6.755  0.00  0.00    +0.001 A 
ATOM     35  C   UNL     1       4.150  -1.634  -6.711  0.00  0.00    +0.004 A 
ATOM     36  C   UNL     1       4.784  -1.465  -5.495  0.00  0.00    +0.046 A 
ATOM     37  C   UNL     1       4.054  -1.544  -4.317  0.00  0.00    +0.125 A 
BRANCH  37  38
ATOM     38  O   UNL     1       4.675  -1.378  -3.120  0.00  0.00    -0.495 OA
ATOM     39  C   UNL     1       6.081  -1.125  -3.148  0.00  0.00    +0.277 C 
ENDBRANCH  37  38
ENDBRANCH  31  32
ENDBRANCH  14  31
TORSDOF 5
