REMARK  Name = ZINC13127006
REMARK  8 active torsions:
REMARK  status: ('A' for Active; 'I' for Inactive)
REMARK    1  A    between atoms: C_1  and  C_2
REMARK    2  A    between atoms: C_7  and  N_8
REMARK    3  A    between atoms: C_9  and  C_11
REMARK    4  A    between atoms: C_12  and  C_31
REMARK    5  A    between atoms: C_19  and  C_21
REMARK    6  A    between atoms: C_24  and  C_27
REMARK    7  A    between atoms: C_27  and  O_29
REMARK    8  A    between atoms: O_29  and  C_30
REMARK                            x       y       z     vdW  Elec       q    Type
REMARK                         _______ _______ _______ _____ _____    ______ ____
ROOT
ATOM      1  C   UNL     1       0.114   0.173   4.707  0.00  0.00    +0.060 C 
ATOM      2  C   UNL     1       0.201  -0.453   5.889  0.00  0.00    +0.018 C 
ATOM      3  N   UNL     1       0.225   0.232   7.080  0.00  0.00    -0.287 N 
ATOM      4  C   UNL     1      -0.108   1.579   7.048  0.00  0.00    +0.218 A 
ATOM      5  N   UNL     1      -0.379   2.403   8.023  0.00  0.00    -0.201 NA
ATOM      6  C   UNL     1      -0.652   3.613   7.524  0.00  0.00    +0.247 A 
ATOM      7  N   UNL     1      -0.556   3.571   6.218  0.00  0.00    -0.156 NA
ATOM      8  N   UNL     1      -0.202   2.266   5.882  0.00  0.00    -0.221 N 
ATOM      9  C   UNL     1       0.051   1.671   4.572  0.00  0.00    +0.177 C 
ATOM     10  C   UNL     1       0.277  -1.958   5.914  0.00  0.00    +0.061 C 
ATOM     11  H   UNL     1       0.464  -0.209   7.910  0.00  0.00    +0.155 HD
ENDROOT
BRANCH   9  12
ATOM     12  C   UNL     1       1.359   2.181   4.026  0.00  0.00    -0.018 A 
ATOM     13  C   UNL     1       2.533   1.951   4.723  0.00  0.00    +0.007 A 
ATOM     14  C   UNL     1       3.734   2.416   4.229  0.00  0.00    +0.015 A 
ATOM     15  C   UNL     1       3.764   3.120   3.024  0.00  0.00    +0.059 A 
ATOM     16  C   UNL     1       2.577   3.349   2.326  0.00  0.00    +0.015 A 
ATOM     17  C   UNL     1       1.383   2.873   2.828  0.00  0.00    +0.007 A 
BRANCH  15  18
ATOM     18  C   UNL     1       5.047   3.621   2.489  0.00  0.00    +0.339 C 
ATOM     19  O   UNL     1       6.079   3.420   3.099  0.00  0.00    -0.245 OA
BRANCH  18  20
ATOM     20  O   UNL     1       5.073   4.300   1.326  0.00  0.00    -0.464 OA
ATOM     21  C   UNL     1       6.348   4.755   0.869  0.00  0.00    +0.280 C 
ENDBRANCH  18  20
ENDBRANCH  15  18
ENDBRANCH   9  12
BRANCH   1  23
ATOM     22  N   UNL     1       1.198  -1.247   3.115  0.00  0.00    -0.281 N 
ATOM     23  C   UNL     1       0.084  -0.612   3.530  0.00  0.00    +0.248 C 
ATOM     24  O   UNL     1      -0.948  -0.714   2.891  0.00  0.00    -0.270 OA
ATOM     25  H   UNL     1       2.005  -1.212   3.653  0.00  0.00    +0.155 HD
BRANCH  22  32
ATOM     26  C   UNL     1       3.579  -1.269   1.557  0.00  0.00    +0.045 C 
ATOM     27  C   UNL     1       2.332  -1.993   1.118  0.00  0.00    -0.029 A 
ATOM     28  C   UNL     1       2.324  -2.699  -0.069  0.00  0.00    +0.005 A 
ATOM     29  C   UNL     1       1.180  -3.364  -0.472  0.00  0.00    +0.000 A 
ATOM     30  C   UNL     1       0.041  -3.324   0.311  0.00  0.00    +0.002 A 
ATOM     31  C   UNL     1       0.043  -2.620   1.499  0.00  0.00    +0.023 A 
ATOM     32  C   UNL     1       1.192  -1.956   1.910  0.00  0.00    +0.037 A 
ENDBRANCH  22  32
ENDBRANCH   1  23
TORSDOF 5
