REMARK  Name = ZINC64663081
REMARK  8 active torsions:
REMARK  status: ('A' for Active; 'I' for Inactive)
REMARK    1  A    between atoms: C_1  and  C_2
REMARK    2  A    between atoms: C_2  and  C_3
REMARK    3  A    between atoms: N_5  and  C_6
REMARK    4  A    between atoms: C_9  and  O_27
REMARK    5  A    between atoms: C_10  and  C_12
REMARK    6  A    between atoms: N_14  and  C_15
REMARK    7  A    between atoms: N_21  and  C_26
REMARK    8  A    between atoms: N_24  and  C_25
REMARK                            x       y       z     vdW  Elec       q    Type
REMARK                         _______ _______ _______ _____ _____    ______ ____
ROOT
ATOM      1  C   UNL     1       2.929  -5.668   3.699  0.00  0.00    +0.252 C 
ATOM      2  O   UNL     1       3.698  -6.110   4.531  0.00  0.00    -0.270 OA
ATOM      3  N   UNL     1       2.272  -6.508   2.875  0.00  0.00    -0.281 N 
ATOM      4  H   UNL     1       1.716  -6.154   2.163  0.00  0.00    +0.155 HD
ENDROOT
BRANCH   3   5
ATOM      5  C   UNL     1       2.392  -7.893   3.045  0.00  0.00    +0.036 A 
ATOM      6  C   UNL     1       2.540  -8.424   4.321  0.00  0.00    +0.025 A 
ATOM      7  C   UNL     1       2.660  -9.788   4.496  0.00  0.00    +0.030 A 
ATOM      8  C   UNL     1       2.631 -10.632   3.396  0.00  0.00    +0.070 A 
ATOM      9  C   UNL     1       2.482 -10.101   2.113  0.00  0.00    +0.071 A 
ATOM     10  C   UNL     1       2.357  -8.732   1.941  0.00  0.00    +0.051 A 
ATOM     11  N   UNL     1       2.490 -11.178   1.228  0.00  0.00    -0.295 N 
ATOM     12  C   UNL     1       2.636 -12.311   1.940  0.00  0.00    +0.330 A 
ATOM     13  O   UNL     1       2.682 -13.433   1.469  0.00  0.00    -0.246 OA
ATOM     14  N   UNL     1       2.725 -12.016   3.250  0.00  0.00    -0.295 N 
ATOM     15  C   UNL     1       2.892 -12.983   4.338  0.00  0.00    +0.154 C 
ATOM     16  C   UNL     1       2.359 -11.091  -0.228  0.00  0.00    +0.154 C 
ENDBRANCH   3   5
BRANCH   1  21
ATOM     17  C   UNL     1       1.637  -2.334   2.542  0.00  0.00    +0.034 A 
ATOM     18  C   UNL     1       2.317  -1.471   3.395  0.00  0.00    +0.027 A 
ATOM     19  C   UNL     1       3.190  -1.969   4.340  0.00  0.00    +0.048 A 
ATOM     20  C   UNL     1       3.396  -3.336   4.447  0.00  0.00    +0.129 A 
ATOM     21  C   UNL     1       2.715  -4.213   3.592  0.00  0.00    +0.080 A 
ATOM     22  C   UNL     1       1.829  -3.701   2.641  0.00  0.00    +0.040 A 
BRANCH  17  25
ATOM     23  C   UNL     1       1.027  -0.650   0.974  0.00  0.00    +0.217 C 
ATOM     24  O   UNL     1       1.996  -0.002   1.311  0.00  0.00    -0.275 OA
ATOM     25  N   UNL     1       0.752  -1.819   1.586  0.00  0.00    -0.285 N 
ATOM     26  H   UNL     1      -0.058  -2.304   1.363  0.00  0.00    +0.155 HD
BRANCH  23  28
ATOM     27  C   UNL     1       0.662   1.190  -0.647  0.00  0.00    +0.013 C 
ATOM     28  C   UNL     1       0.130  -0.147  -0.128  0.00  0.00    +0.093 C 
ENDBRANCH  23  28
ENDBRANCH  17  25
BRANCH  20  29
ATOM     29  O   UNL     1       4.256  -3.824   5.377  0.00  0.00    -0.506 OA
ATOM     30  H   UNL     1       3.844  -4.020   6.229  0.00  0.00    +0.292 HD
ENDBRANCH  20  29
ENDBRANCH   1  21
TORSDOF 5
