REMARK  Name = ZINC38762567
REMARK  7 active torsions:
REMARK  status: ('A' for Active; 'I' for Inactive)
REMARK    1  A    between atoms: C_1  and  C_2
REMARK    2  A    between atoms: C_2  and  C_4
REMARK    3  A    between atoms: C_2  and  S_19
REMARK    4  A    between atoms: N_9  and  C_12
REMARK    5  A    between atoms: C_12  and  C_13
REMARK    6  A    between atoms: S_19  and  C_20
REMARK    7  A    between atoms: C_24  and  C_26
REMARK                            x       y       z     vdW  Elec       q    Type
REMARK                         _______ _______ _______ _____ _____    ______ ____
ROOT
ATOM      1  C   UNL     1      -0.019   1.526   0.010  0.00  0.00    +0.029 C 
ATOM      2  C   UNL     1       0.002  -0.004   0.002  0.00  0.00    +0.134 C 
ENDROOT
BRANCH   2   3
ATOM      3  C   UNL     1      -1.412  -0.526   0.013  0.00  0.00    +0.228 C 
ATOM      4  O   UNL     1      -1.927  -0.901  -1.019  0.00  0.00    -0.274 OA
ATOM      5  N   UNL     1      -2.103  -0.575   1.169  0.00  0.00    -0.298 N 
ATOM      6  C   UNL     1      -1.499  -0.119   2.430  0.00  0.00    +0.123 C 
ATOM      7  C   UNL     1      -2.459   0.869   3.100  0.00  0.00    +0.103 C 
ATOM      8  N   UNL     1      -3.783   0.246   3.235  0.00  0.00    -0.295 NA
ATOM      9  C   UNL     1      -4.364  -0.060   1.921  0.00  0.00    +0.103 C 
ATOM     10  C   UNL     1      -3.484  -1.080   1.201  0.00  0.00    +0.123 C 
BRANCH   8  11
ATOM     11  C   UNL     1      -4.685   1.093   4.026  0.00  0.00    +0.119 C 
BRANCH  11  12
ATOM     12  C   UNL     1      -5.940   0.324   4.351  0.00  0.00    -0.033 A 
ATOM     13  C   UNL     1      -7.020   0.368   3.490  0.00  0.00    +0.005 A 
ATOM     14  C   UNL     1      -8.171  -0.338   3.788  0.00  0.00    +0.000 A 
ATOM     15  C   UNL     1      -8.241  -1.087   4.947  0.00  0.00    +0.000 A 
ATOM     16  C   UNL     1      -7.161  -1.131   5.808  0.00  0.00    +0.000 A 
ATOM     17  C   UNL     1      -6.008  -0.429   5.508  0.00  0.00    +0.005 A 
ENDBRANCH  11  12
ENDBRANCH   8  11
ENDBRANCH   2   3
BRANCH   2  18
ATOM     18  S   UNL     1       0.851  -0.589  -1.490  0.00  0.00    -0.084 S 
BRANCH  18  19
ATOM     19  C   UNL     1       2.558  -0.012  -1.279  0.00  0.00    +0.340 C 
ATOM     20  N   UNL     1       2.591   1.453  -1.131  0.00  0.00    -0.219 N 
ATOM     21  N   UNL     1       3.140   1.690   0.138  0.00  0.00    -0.145 NA
ATOM     22  C   UNL     1       3.422   0.557   0.725  0.00  0.00    +0.238 C 
ATOM     23  O   UNL     1       3.107  -0.512  -0.052  0.00  0.00    -0.443 OA
ATOM     24  H   UNL     1       2.295   2.115  -1.775  0.00  0.00    +0.173 HD
BRANCH  22  25
ATOM     25  C   UNL     1       3.984   0.456   2.005  0.00  0.00    +0.043 C 
ATOM     26  C   UNL     1       4.328   1.504   2.860  0.00  0.00    +0.008 A 
ATOM     27  C   UNL     1       4.235   2.906   2.735  0.00  0.00    +0.010 A 
ATOM     28  C   UNL     1       4.657   3.702   3.751  0.00  0.00    +0.001 A 
ATOM     29  C   UNL     1       5.185   3.168   4.928  0.00  0.00    +0.002 A 
ATOM     30  C   UNL     1       5.304   1.831   5.116  0.00  0.00    +0.026 A 
ATOM     31  C   UNL     1       4.885   0.935   4.099  0.00  0.00    +0.043 A 
ATOM     32  N   UNL     1       4.894  -0.382   4.038  0.00  0.00    -0.380 N 
ATOM     33  C   UNL     1       4.338  -0.811   2.751  0.00  0.00    +0.154 C 
ATOM     34  H   UNL     1       5.215  -0.974   4.736  0.00  0.00    +0.160 HD
ENDBRANCH  22  25
ENDBRANCH  18  19
ENDBRANCH   2  18
TORSDOF 6
