REMARK  Name = ZINC09906168
REMARK  8 active torsions:
REMARK  status: ('A' for Active; 'I' for Inactive)
REMARK    1  A    between atoms: C_4  and  C_7
REMARK    2  A    between atoms: C_8  and  C_31
REMARK    3  A    between atoms: C_10  and  C_12
REMARK    4  A    between atoms: C_12  and  C_13
REMARK    5  A    between atoms: C_13  and  C_14
REMARK    6  A    between atoms: N_16  and  C_17
REMARK    7  A    between atoms: C_19  and  C_28
REMARK    8  A    between atoms: C_22  and  N_23
REMARK                            x       y       z     vdW  Elec       q    Type
REMARK                         _______ _______ _______ _____ _____    ______ ____
ROOT
ATOM      1  C   UNL     1      -1.397   8.742  -1.717  0.00  0.00    +0.218 C 
ATOM      2  O   UNL     1      -1.818   9.133  -0.648  0.00  0.00    -0.275 OA
ATOM      3  N   UNL     1      -1.681   9.425  -2.844  0.00  0.00    -0.284 N 
ATOM      4  H   UNL     1      -1.406   9.075  -3.705  0.00  0.00    +0.155 HD
ENDROOT
BRANCH   3   5
ATOM      5  C   UNL     1      -2.373  10.642  -2.770  0.00  0.00    +0.055 A 
ATOM      6  C   UNL     1      -3.335  10.832  -1.796  0.00  0.00    +0.038 A 
ATOM      7  C   UNL     1      -4.023  12.047  -1.726  0.00  0.00    +0.038 A 
ATOM      8  C   UNL     1      -3.735  13.065  -2.640  0.00  0.00    +0.015 A 
ATOM      9  C   UNL     1      -2.776  12.870  -3.609  0.00  0.00    +0.026 A 
ATOM     10  C   UNL     1      -2.087  11.665  -3.678  0.00  0.00    +0.051 A 
BRANCH  10  11
ATOM     11  N   UNL     1      -1.114  11.475  -4.656  0.00  0.00    -0.328 N 
ATOM     12  C   UNL     1      -0.867  12.729  -5.412  0.00  0.00    +0.105 C 
ATOM     13  C   UNL     1       0.531  12.497  -6.037  0.00  0.00    +0.020 C 
ATOM     14  C   UNL     1       1.285  11.734  -4.924  0.00  0.00    +0.020 C 
ATOM     15  C   UNL     1       0.184  11.109  -4.048  0.00  0.00    +0.105 C 
ENDBRANCH  10  11
BRANCH   7  16
ATOM     16  C   UNL     1      -5.051  12.255  -0.688  0.00  0.00    +0.242 C 
ATOM     17  O   UNL     1      -5.300  11.369   0.106  0.00  0.00    -0.270 OA
ATOM     18  N   UNL     1      -5.713  13.427  -0.621  0.00  0.00    -0.325 N 
ATOM     19  H   UNL     1      -5.514  14.133  -1.255  0.00  0.00    +0.145 HD
ATOM     20  H   UNL     1      -6.389  13.563   0.061  0.00  0.00    +0.145 HD
ENDBRANCH   7  16
ENDBRANCH   3   5
BRANCH   1  21
ATOM     21  C   UNL     1      -0.556   7.493  -1.784  0.00  0.00    +0.105 C 
BRANCH  21  22
ATOM     22  C   UNL     1      -0.385   6.917  -0.377  0.00  0.00    +0.105 C 
BRANCH  22  26
ATOM     23  C   UNL     1       2.163   4.349  -0.452  0.00  0.00    +0.117 A 
ATOM     24  C   UNL     1       1.032   3.577  -0.625  0.00  0.00    +0.163 A 
ATOM     25  O   UNL     1      -0.017   4.427  -0.622  0.00  0.00    -0.439 OA
ATOM     26  C   UNL     1       0.456   5.668  -0.445  0.00  0.00    +0.197 A 
ATOM     27  N   UNL     1       1.753   5.631  -0.346  0.00  0.00    -0.213 NA
BRANCH  23  31
ATOM     28  C   UNL     1       6.175   2.957  -0.285  0.00  0.00    +0.000 A 
ATOM     29  C   UNL     1       5.295   2.414  -1.204  0.00  0.00    +0.001 A 
ATOM     30  C   UNL     1       3.991   2.862  -1.263  0.00  0.00    +0.010 A 
ATOM     31  C   UNL     1       3.561   3.864  -0.394  0.00  0.00    +0.004 A 
ATOM     32  C   UNL     1       4.455   4.411   0.527  0.00  0.00    +0.010 A 
ATOM     33  C   UNL     1       5.754   3.951   0.580  0.00  0.00    +0.001 A 
ENDBRANCH  23  31
BRANCH  24  34
ATOM     34  C   UNL     1       0.981   2.111  -0.789  0.00  0.00    +0.019 A 
ATOM     35  C   UNL     1       1.731   1.285   0.051  0.00  0.00    +0.011 A 
ATOM     36  C   UNL     1       1.678  -0.085  -0.107  0.00  0.00    +0.001 A 
ATOM     37  C   UNL     1       0.884  -0.640  -1.095  0.00  0.00    +0.000 A 
ATOM     38  C   UNL     1       0.138   0.173  -1.930  0.00  0.00    +0.001 A 
ATOM     39  C   UNL     1       0.182   1.544  -1.784  0.00  0.00    +0.011 A 
ENDBRANCH  24  34
ENDBRANCH  22  26
ENDBRANCH  21  22
ENDBRANCH   1  21
TORSDOF 8
