REMARK  Name = ZINC13351846
REMARK  5 active torsions:
REMARK  status: ('A' for Active; 'I' for Inactive)
REMARK    1  A    between atoms: C_5  and  O_20
REMARK    2  A    between atoms: C_6  and  C_7
REMARK    3  A    between atoms: N_11  and  C_15
REMARK    4  A    between atoms: C_15  and  C_16
REMARK    5  A    between atoms: C_16  and  C_17
REMARK                            x       y       z     vdW  Elec       q    Type
REMARK                         _______ _______ _______ _____ _____    ______ ____
ROOT
ATOM      1  C   UNL     1      -1.256  -0.760   0.011  0.00  0.00    +0.032 C 
ATOM      2  C   UNL     1      -2.440  -0.106   0.128  0.00  0.00    +0.077 C 
ATOM      3  C   UNL     1      -2.716   1.345   0.154  0.00  0.00    +0.258 C 
ATOM      4  O   UNL     1      -1.823   2.167   0.064  0.00  0.00    -0.269 OA
ATOM      5  N   UNL     1      -3.982   1.705   0.281  0.00  0.00    -0.255 N 
ATOM      6  C   UNL     1      -4.968   0.791   0.380  0.00  0.00    +0.121 C 
ATOM      7  S   UNL     1      -6.651   1.057   0.548  0.00  0.00    -0.027 S 
ATOM      8  S   UNL     1      -4.095  -0.764   0.286  0.00  0.00    -0.061 S 
ENDROOT
BRANCH   1  14
ATOM      9  C   UNL     1       0.171   1.028   0.985  0.00  0.00    +0.031 A 
ATOM     10  C   UNL     1       1.359   1.727   1.025  0.00  0.00    +0.043 A 
ATOM     11  C   UNL     1       2.389   1.408   0.154  0.00  0.00    +0.043 A 
ATOM     12  C   UNL     1       2.238   0.386  -0.765  0.00  0.00    +0.084 A 
ATOM     13  C   UNL     1       1.051  -0.329  -0.821  0.00  0.00    +0.142 A 
ATOM     14  C   UNL     1       0.005  -0.010   0.060  0.00  0.00    +0.020 A 
ATOM     15 CL   UNL     1       3.536  -0.003  -1.850  0.00  0.00    -0.080 Cl
ATOM     16 CL   UNL     1       1.565   3.014   2.172  0.00  0.00    -0.083 Cl
BRANCH  13  17
ATOM     17  O   UNL     1       0.901  -1.332  -1.723  0.00  0.00    -0.505 OA
ATOM     18  H   UNL     1       1.177  -2.199  -1.396  0.00  0.00    +0.292 HD
ENDBRANCH  13  17
ENDBRANCH   1  14
BRANCH   5  19
ATOM     19  C   UNL     1      -4.320   3.130   0.314  0.00  0.00    +0.126 C 
BRANCH  19  20
ATOM     20  C   UNL     1      -4.581   3.625  -1.110  0.00  0.00    +0.144 C 
BRANCH  20  21
ATOM     21  C   UNL     1      -4.930   5.091  -1.076  0.00  0.00    +0.358 C 
ATOM     22  O   UNL     1      -4.966   5.685  -0.012  0.00  0.00    -0.246 OA
ATOM     23  O   UNL     1      -5.176   5.684  -2.113  0.00  0.00    -0.246 OA
ENDBRANCH  20  21
ENDBRANCH  19  20
ENDBRANCH   5  19
TORSDOF 5
