REMARK  Name = ZINC31161239
REMARK  9 active torsions:
REMARK  status: ('A' for Active; 'I' for Inactive)
REMARK    1  A    between atoms: C_1  and  C_2
REMARK    2  A    between atoms: C_2  and  C_3
REMARK    3  A    between atoms: C_2  and  C_4
REMARK    4  A    between atoms: C_2  and  O_28
REMARK    5  A    between atoms: C_4  and  C_5
REMARK    6  A    between atoms: C_5  and  C_6
REMARK    7  A    between atoms: C_11  and  O_12
REMARK    8  A    between atoms: C_24  and  O_27
REMARK    9  A    between atoms: C_25  and  O_26
REMARK                            x       y       z     vdW  Elec       q    Type
REMARK                         _______ _______ _______ _____ _____    ______ ____
ROOT
ATOM      1  C   UNL     1       3.756   5.092  -6.442  0.00  0.00    -0.005 A 
ATOM      2  C   UNL     1       2.804   4.452  -5.657  0.00  0.00    +0.015 A 
ATOM      3  C   UNL     1       3.186   4.061  -4.393  0.00  0.00    +0.005 A 
ATOM      4  C   UNL     1       4.493   4.286  -3.908  0.00  0.00    +0.129 A 
ATOM      5  C   UNL     1       5.434   4.933  -4.699  0.00  0.00    +0.091 A 
ATOM      6  C   UNL     1       5.037   5.329  -5.973  0.00  0.00    +0.124 A 
ATOM      7  O   UNL     1       4.643   3.772  -2.653  0.00  0.00    -0.483 OA
ATOM      8  C   UNL     1       3.680   2.733  -2.531  0.00  0.00    +0.218 C 
ATOM      9  C   UNL     1       2.469   3.382  -3.287  0.00  0.00    +0.105 C 
ATOM     10  C   UNL     1       1.501   2.266  -3.588  0.00  0.00    +0.241 C 
ATOM     11  O   UNL     1       1.237   1.533  -2.385  0.00  0.00    -0.487 OA
ATOM     12  C   UNL     1       1.843   1.830  -1.210  0.00  0.00    +0.172 A 
ATOM     13  C   UNL     1       3.113   2.424  -1.185  0.00  0.00    +0.039 A 
ATOM     14  C   UNL     1       3.748   2.694  -0.001  0.00  0.00    +0.015 A 
ATOM     15  C   UNL     1       3.127   2.394   1.201  0.00  0.00    +0.050 A 
ATOM     16  C   UNL     1       1.863   1.823   1.198  0.00  0.00    +0.162 A 
ATOM     17  C   UNL     1       1.225   1.533  -0.001  0.00  0.00    +0.201 A 
ENDROOT
BRANCH   6  18
ATOM     18  O   UNL     1       5.929   5.964  -6.777  0.00  0.00    -0.506 OA
ATOM     19  H   UNL     1       6.950   6.159  -6.418  0.00  0.00    +0.292 HD
ENDBRANCH   6  18
BRANCH  17  20
ATOM     20  O   UNL     1      -0.011   0.963   0.007  0.00  0.00    -0.501 OA
ATOM     21  H   UNL     1      -0.501   0.727   0.963  0.00  0.00    +0.292 HD
ENDBRANCH  17  20
BRANCH  16  22
ATOM     22  O   UNL     1       1.247   1.539   2.377  0.00  0.00    -0.503 OA
ATOM     23  H   UNL     1       0.245   1.086   2.379  0.00  0.00    +0.292 HD
ENDBRANCH  16  22
BRANCH   1  24
ATOM     24  C   UNL     1       3.385   5.538  -7.833  0.00  0.00    +0.041 C 
BRANCH  24  25
ATOM     25  C   UNL     1       3.071   7.035  -7.822  0.00  0.00    +0.039 C 
BRANCH  25  27
ATOM     26  C   UNL     1       2.502   9.006  -9.249  0.00  0.00    +0.041 C 
ATOM     27  C   UNL     1       2.695   7.488  -9.234  0.00  0.00    +0.061 C 
ATOM     28  C   UNL     1       3.813   7.107 -10.206  0.00  0.00    +0.041 C 
BRANCH  27  29
ATOM     29  O   UNL     1       1.480   6.850  -9.632  0.00  0.00    -0.389 OA
ATOM     30  H   UNL     1       1.426   5.752  -9.681  0.00  0.00    +0.210 HD
ENDBRANCH  27  29
ENDBRANCH  25  27
ENDBRANCH  24  25
ENDBRANCH   1  24
TORSDOF 7
