REMARK  Name = ZINC40468674
REMARK  5 active torsions:
REMARK  status: ('A' for Active; 'I' for Inactive)
REMARK    1  A    between atoms: C_1  and  C_2
REMARK    2  A    between atoms: C_2  and  C_4
REMARK    3  A    between atoms: C_2  and  N_11
REMARK    4  A    between atoms: C_12  and  C_14
REMARK    5  A    between atoms: C_14  and  C_19
REMARK                            x       y       z     vdW  Elec       q    Type
REMARK                         _______ _______ _______ _____ _____    ______ ____
ROOT
ATOM      1  N   UNL     1       0.629  -0.500   1.230  0.00  0.00    -0.307 N 
ATOM      2  C   UNL     1      -0.119  -0.712   2.330  0.00  0.00    +0.234 C 
ATOM      3  O   UNL     1      -1.311  -0.491   2.305  0.00  0.00    -0.274 OA
ATOM      4  H   UNL     1       1.583  -0.676   1.250  0.00  0.00    +0.149 HD
ENDROOT
BRANCH   2   5
ATOM      5  C   UNL     1       0.526  -1.222   3.593  0.00  0.00    +0.133 C 
ATOM      6  C   UNL     1       1.124  -2.623   3.352  0.00  0.00    +0.031 C 
ATOM      7  C   UNL     1       0.862  -3.381   4.678  0.00  0.00    +0.002 C 
ATOM      8  C   UNL     1      -0.541  -2.872   5.091  0.00  0.00    +0.002 C 
ATOM      9  C   UNL     1      -0.532  -1.380   4.699  0.00  0.00    +0.031 C 
BRANCH   5  10
ATOM     10  C   UNL     1       1.579  -0.292   4.032  0.00  0.00    +0.079 C 
ATOM     11  N   UNL     1       2.392   0.426   4.371  0.00  0.00    -0.195 NA
ENDBRANCH   5  10
ENDBRANCH   2   5
BRANCH   1  13
ATOM     12  C   UNL     1      -0.038   1.525   0.032  0.00  0.00    +0.033 C 
ATOM     13  C   UNL     1       0.002  -0.004   0.002  0.00  0.00    +0.102 C 
BRANCH  13  14
ATOM     14  C   UNL     1       0.801  -0.463  -1.191  0.00  0.00    -0.009 A 
ATOM     15  C   UNL     1       2.154  -0.715  -1.061  0.00  0.00    +0.007 A 
ATOM     16  C   UNL     1       2.886  -1.136  -2.155  0.00  0.00    +0.000 A 
ATOM     17  C   UNL     1       2.267  -1.305  -3.380  0.00  0.00    +0.001 A 
ATOM     18  C   UNL     1       0.914  -1.053  -3.510  0.00  0.00    +0.020 A 
ATOM     19  C   UNL     1       0.179  -0.637  -2.414  0.00  0.00    +0.046 A 
ATOM     20 CL   UNL     1      -1.521  -0.326  -2.576  0.00  0.00    -0.083 Cl
ENDBRANCH  13  14
ENDBRANCH   1  13
TORSDOF 4
