REMARK  Name = ZINC20331306
REMARK  10 active torsions:
REMARK  status: ('A' for Active; 'I' for Inactive)
REMARK    1  A    between atoms: C_1  and  C_2
REMARK    2  A    between atoms: C_4  and  C_33
REMARK    3  A    between atoms: C_6  and  N_8
REMARK    4  A    between atoms: C_9  and  C_11
REMARK    5  A    between atoms: C_11  and  C_12
REMARK    6  A    between atoms: C_12  and  C_13
REMARK    7  A    between atoms: C_13  and  C_14
REMARK    8  A    between atoms: C_14  and  N_15
REMARK    9  A    between atoms: C_22  and  O_28
REMARK   10  A    between atoms: O_28  and  C_29
REMARK                            x       y       z     vdW  Elec       q    Type
REMARK                         _______ _______ _______ _____ _____    ______ ____
ROOT
ATOM      1  N   UNL     1      -2.827  -4.059   0.023  0.00  0.00    -0.287 N 
ATOM      2  C   UNL     1      -2.829  -4.722  -1.150  0.00  0.00    +0.279 A 
ATOM      3  O   UNL     1      -2.846  -4.109  -2.203  0.00  0.00    -0.265 OA
ATOM      4  C   UNL     1      -2.805  -6.141  -1.149  0.00  0.00    +0.129 A 
ATOM      5  C   UNL     1      -2.791  -6.800   0.067  0.00  0.00    +0.079 A 
ATOM      6  C   UNL     1      -2.773  -8.232  -0.228  0.00  0.00    +0.027 A 
ATOM      7  C   UNL     1      -2.755  -9.381   0.569  0.00  0.00    +0.057 A 
ATOM      8  C   UNL     1      -2.740 -10.625  -0.025  0.00  0.00    +0.121 A 
ATOM      9  C   UNL     1      -2.745 -10.740  -1.414  0.00  0.00    +0.047 A 
ATOM     10  C   UNL     1      -2.763  -9.618  -2.209  0.00  0.00    +0.030 A 
ATOM     11  C   UNL     1      -2.778  -8.351  -1.630  0.00  0.00    +0.049 A 
ATOM     12  N   UNL     1      -2.797  -7.081  -2.165  0.00  0.00    -0.349 N 
ATOM     13  H   UNL     1      -2.806  -6.755  -3.216  0.00  0.00    +0.166 HD
ATOM     14  N   UNL     1      -2.795  -6.065   1.239  0.00  0.00    -0.333 N 
ATOM     15  C   UNL     1      -2.813  -4.719   1.194  0.00  0.00    +0.161 A 
ATOM     16  S   UNL     1      -2.818  -3.831   2.657  0.00  0.00    -0.013 S 
ATOM     17  H   UNL     1      -2.784  -6.580   2.211  0.00  0.00    +0.168 HD
ENDROOT
BRANCH   8  18
ATOM     18  O   UNL     1      -2.722 -11.745   0.747  0.00  0.00    -0.495 OA
ATOM     19  C   UNL     1      -2.708 -13.002   0.067  0.00  0.00    +0.277 C 
ENDBRANCH   8  18
BRANCH   1  20
ATOM     20  C   UNL     1      -2.847  -2.594   0.022  0.00  0.00    +0.127 C 
BRANCH  20  21
ATOM     21  C   UNL     1      -1.412  -2.064   0.016  0.00  0.00    +0.022 C 
BRANCH  21  22
ATOM     22  C   UNL     1      -1.433  -0.534   0.015  0.00  0.00    +0.011 C 
BRANCH  22  23
ATOM     23  C   UNL     1       0.002  -0.004   0.009  0.00  0.00    +0.096 C 
BRANCH  23  25
ATOM     24  N   UNL     1       1.139   2.192   0.003  0.00  0.00    -0.285 N 
ATOM     25  C   UNL     1      -0.018   1.503   0.008  0.00  0.00    +0.217 C 
ATOM     26  O   UNL     1      -1.077   2.095   0.007  0.00  0.00    -0.275 OA
ATOM     27  H   UNL     1       2.098   1.658   0.076  0.00  0.00    +0.155 HD
BRANCH  24  33
ATOM     28  C   UNL     1      -1.013   6.483   1.067  0.00  0.00    +0.044 C 
ATOM     29  C   UNL     1       0.090   5.693   0.411  0.00  0.00    -0.048 A 
ATOM     30  C   UNL     1       1.087   6.348  -0.289  0.00  0.00    +0.006 A 
ATOM     31  C   UNL     1       2.101   5.627  -0.893  0.00  0.00    -0.048 A 
ATOM     32  C   UNL     1       2.121   4.249  -0.797  0.00  0.00    +0.026 A 
ATOM     33  C   UNL     1       1.122   3.588  -0.095  0.00  0.00    +0.034 A 
ATOM     34  C   UNL     1       0.102   4.315   0.505  0.00  0.00    +0.026 A 
ATOM     35  C   UNL     1       3.184   6.345  -1.655  0.00  0.00    +0.044 C 
ENDBRANCH  24  33
ENDBRANCH  23  25
ENDBRANCH  22  23
ENDBRANCH  21  22
ENDBRANCH  20  21
ENDBRANCH   1  20
TORSDOF 7
