REMARK  Name = ZINC02312456
REMARK  15 active torsions:
REMARK  status: ('A' for Active; 'I' for Inactive)
REMARK    1  A    between atoms: C_1  and  O_2
REMARK    2  A    between atoms: O_2  and  C_3
REMARK    3  A    between atoms: C_8  and  C_9
REMARK    4  A    between atoms: C_11  and  C_36
REMARK    5  A    between atoms: C_16  and  S_20
REMARK    6  A    between atoms: C_17  and  C_18
REMARK    7  A    between atoms: S_20  and  C_21
REMARK    8  A    between atoms: C_21  and  C_22
REMARK    9  A    between atoms: N_24  and  C_25
REMARK   10  A    between atoms: C_27  and  O_34
REMARK   11  A    between atoms: C_30  and  O_31
REMARK   12  A    between atoms: O_31  and  C_32
REMARK   13  A    between atoms: O_34  and  C_35
REMARK   14  A    between atoms: C_36  and  O_38
REMARK   15  A    between atoms: O_38  and  C_39
REMARK                            x       y       z     vdW  Elec       q    Type
REMARK                         _______ _______ _______ _____ _____    ______ ____
ROOT
ATOM      1  C   UNL     1       2.675   3.985  -0.006  0.00  0.00    +0.088 C 
ATOM      2  C   UNL     1       1.216   3.526   0.011  0.00  0.00    +0.196 C 
ATOM      3  C   UNL     1       0.536   4.054   1.247  0.00  0.00    +0.232 C 
ATOM      4  O   UNL     1      -0.634   4.370   1.202  0.00  0.00    -0.275 OA
ATOM      5  N   UNL     1       1.218   4.180   2.401  0.00  0.00    -0.279 N 
ATOM      6  C   UNL     1       2.550   3.832   2.473  0.00  0.00    +0.082 C 
ATOM      7  C   UNL     1       3.299   3.724   1.341  0.00  0.00    +0.066 C 
ATOM      8  H   UNL     1       0.767   4.518   3.190  0.00  0.00    +0.155 HD
ENDROOT
BRANCH   1  14
ATOM      9  C   UNL     1       3.421   5.910  -1.429  0.00  0.00    +0.124 A 
ATOM     10  C   UNL     1       3.470   7.268  -1.708  0.00  0.00    +0.046 A 
ATOM     11  C   UNL     1       2.845   8.168  -0.868  0.00  0.00    +0.004 A 
ATOM     12  C   UNL     1       2.166   7.717   0.249  0.00  0.00    +0.001 A 
ATOM     13  C   UNL     1       2.111   6.364   0.527  0.00  0.00    +0.008 A 
ATOM     14  C   UNL     1       2.735   5.459  -0.310  0.00  0.00    +0.004 A 
BRANCH   9  16
ATOM     15  C   UNL     1       4.727   5.558  -3.383  0.00  0.00    +0.277 C 
ATOM     16  O   UNL     1       4.040   5.023  -2.251  0.00  0.00    -0.495 OA
ENDBRANCH   9  16
ENDBRANCH   1  14
BRANCH   7  17
ATOM     17  C   UNL     1       4.681   3.362   1.430  0.00  0.00    +0.098 C 
ATOM     18  N   UNL     1       5.778   3.075   1.501  0.00  0.00    -0.191 NA
ENDBRANCH   7  17
BRANCH   2  19
ATOM     19  C   UNL     1       1.163   2.020   0.014  0.00  0.00    +0.320 C 
ATOM     20  O   UNL     1       2.187   1.379   0.004  0.00  0.00    -0.250 OA
BRANCH  19  21
ATOM     21  O   UNL     1      -0.022   1.390   0.029  0.00  0.00    -0.467 OA
ATOM     22  C   UNL     1       0.003  -0.062   0.031  0.00  0.00    +0.280 C 
ENDBRANCH  19  21
ENDBRANCH   2  19
BRANCH   6  23
ATOM     23  S   UNL     1       3.290   3.526   4.042  0.00  0.00    -0.100 S 
BRANCH  23  24
ATOM     24  C   UNL     1       1.865   3.811   5.122  0.00  0.00    +0.171 C 
BRANCH  24  25
ATOM     25  C   UNL     1       2.273   3.600   6.558  0.00  0.00    +0.228 C 
ATOM     26  O   UNL     1       3.414   3.287   6.824  0.00  0.00    -0.275 OA
ATOM     27  N   UNL     1       1.369   3.759   7.545  0.00  0.00    -0.282 N 
ATOM     28  H   UNL     1       0.479   4.086   7.340  0.00  0.00    +0.155 HD
BRANCH  27  29
ATOM     29  C   UNL     1       1.715   3.450   8.868  0.00  0.00    +0.079 A 
ATOM     30  C   UNL     1       2.727   2.538   9.126  0.00  0.00    +0.074 A 
ATOM     31  C   UNL     1       3.070   2.238  10.435  0.00  0.00    +0.140 A 
ATOM     32  C   UNL     1       2.396   2.843  11.487  0.00  0.00    +0.086 A 
ATOM     33  C   UNL     1       1.383   3.749  11.231  0.00  0.00    +0.071 A 
ATOM     34  C   UNL     1       1.039   4.056   9.924  0.00  0.00    +0.143 A 
ATOM     35 CL   UNL     1       2.823   2.461  13.125  0.00  0.00    -0.080 Cl
BRANCH  34  36
ATOM     36  O   UNL     1       0.043   4.947   9.673  0.00  0.00    -0.493 OA
ATOM     37  C   UNL     1      -0.607   5.530  10.805  0.00  0.00    +0.277 C 
ENDBRANCH  34  36
BRANCH  31  38
ATOM     38  O   UNL     1       4.065   1.346  10.690  0.00  0.00    -0.494 OA
ATOM     39  C   UNL     1       4.717   0.762   9.560  0.00  0.00    +0.277 C 
ENDBRANCH  31  38
ENDBRANCH  27  29
ENDBRANCH  24  25
ENDBRANCH  23  24
ENDBRANCH   6  23
TORSDOF 11
