REMARK  Name = ZINC04480359
REMARK  7 active torsions:
REMARK  status: ('A' for Active; 'I' for Inactive)
REMARK    1  A    between atoms: C_1  and  C_2
REMARK    2  A    between atoms: C_4  and  C_28
REMARK    3  A    between atoms: C_6  and  S_8
REMARK    4  A    between atoms: S_8  and  C_9
REMARK    5  A    between atoms: C_9  and  C_11
REMARK    6  A    between atoms: C_9  and  C_12
REMARK    7  A    between atoms: N_14  and  N_15
REMARK                            x       y       z     vdW  Elec       q    Type
REMARK                         _______ _______ _______ _____ _____    ______ ____
ROOT
ATOM      1  C   UNL     1       1.170   3.341   0.009  0.00  0.00    +0.245 C 
ATOM      2  O   UNL     1       0.112   3.933   0.022  0.00  0.00    -0.273 OA
ATOM      3  N   UNL     1       1.188   1.993   0.001  0.00  0.00    -0.206 N 
ATOM      4  H   UNL     1       2.035   1.519  -0.009  0.00  0.00    +0.177 HD
ENDROOT
BRANCH   3   5
ATOM      5  N   UNL     1      -0.015   1.276   0.009  0.00  0.00    -0.189 NA
ATOM      6  C   UNL     1       0.002  -0.004   0.002  0.00  0.00    +0.037 C 
ATOM      7  C   UNL     1       1.317  -0.740  -0.021  0.00  0.00    +0.052 C 
ATOM      8  C   UNL     1       2.193  -0.245   1.138  0.00  0.00    +0.006 C 
ATOM      9  C   UNL     1       2.502  -1.411   2.080  0.00  0.00    +0.000 C 
ATOM     10  C   UNL     1       2.199  -0.996   3.521  0.00  0.00    +0.000 C 
ATOM     11  C   UNL     1       1.293  -2.042   4.173  0.00  0.00    +0.000 C 
ATOM     12  C   UNL     1       0.039  -1.358   4.724  0.00  0.00    +0.000 C 
ATOM     13  C   UNL     1      -1.206  -2.060   4.178  0.00  0.00    +0.000 C 
ATOM     14  C   UNL     1      -2.139  -1.026   3.546  0.00  0.00    +0.000 C 
ATOM     15  C   UNL     1      -2.467  -1.444   2.111  0.00  0.00    +0.000 C 
ATOM     16  C   UNL     1      -2.172  -0.282   1.161  0.00  0.00    +0.006 C 
ATOM     17  C   UNL     1      -1.293  -0.775   0.010  0.00  0.00    +0.052 C 
ENDBRANCH   3   5
BRANCH   1  18
ATOM     18  C   UNL     1       2.465   4.112   0.001  0.00  0.00    +0.139 C 
ATOM     19  C   UNL     1       3.045   4.150   1.416  0.00  0.00    +0.029 C 
BRANCH  18  20
ATOM     20  S   UNL     1       2.157   5.801  -0.571  0.00  0.00    -0.074 S 
BRANCH  20  26
ATOM     21  C   UNL     1       7.187   5.117   0.078  0.00  0.00    +0.066 C 
ATOM     22  C   UNL     1       6.059   6.035  -0.315  0.00  0.00    +0.043 A 
ATOM     23  C   UNL     1       6.320   7.337  -0.713  0.00  0.00    +0.046 A 
ATOM     24  C   UNL     1       5.253   8.149  -1.066  0.00  0.00    +0.043 A 
ATOM     25  N   UNL     1       4.025   7.661  -1.012  0.00  0.00    -0.227 NA
ATOM     26  C   UNL     1       3.809   6.411  -0.627  0.00  0.00    +0.189 A 
ATOM     27  N   UNL     1       4.807   5.611  -0.278  0.00  0.00    -0.227 NA
ATOM     28  C   UNL     1       5.490   9.571  -1.505  0.00  0.00    +0.066 C 
ENDBRANCH  20  26
ENDBRANCH  18  20
ENDBRANCH   1  18
TORSDOF 4
