REMARK  Name = ZINC03999710
REMARK  9 active torsions:
REMARK  status: ('A' for Active; 'I' for Inactive)
REMARK    1  A    between atoms: C_1  and  C_2
REMARK    2  A    between atoms: C_4  and  N_12
REMARK    3  A    between atoms: C_5  and  N_9
REMARK    4  A    between atoms: C_7  and  C_8
REMARK    5  A    between atoms: N_12  and  C_13
REMARK    6  A    between atoms: C_15  and  O_27
REMARK    7  A    between atoms: C_17  and  O_26
REMARK    8  A    between atoms: C_19  and  O_25
REMARK    9  A    between atoms: C_21  and  C_24
REMARK                            x       y       z     vdW  Elec       q    Type
REMARK                         _______ _______ _______ _____ _____    ______ ____
ROOT
ATOM      1  N   UNL     1      -0.710   1.867   1.220  0.00  0.00    -0.315 N 
ATOM      2  H   UNL     1      -0.217   1.965   2.050  0.00  0.00    +0.149 HD
ENDROOT
BRANCH   1   6
ATOM      3  C   UNL     1      -4.827   2.450  -1.399  0.00  0.00    +0.044 C 
ATOM      4  C   UNL     1      -4.088   2.488  -0.086  0.00  0.00    -0.046 A 
ATOM      5  C   UNL     1      -2.747   2.161  -0.040  0.00  0.00    +0.029 A 
ATOM      6  C   UNL     1      -2.066   2.196   1.170  0.00  0.00    +0.060 A 
ATOM      7  C   UNL     1      -2.739   2.554   2.332  0.00  0.00    +0.147 A 
ATOM      8  C   UNL     1      -4.079   2.885   2.278  0.00  0.00    +0.038 A 
ATOM      9  C   UNL     1      -4.753   2.849   1.071  0.00  0.00    -0.045 A 
ATOM     10  C   UNL     1      -6.217   3.205   1.017  0.00  0.00    +0.044 C 
BRANCH   7  11
ATOM     11  N   UNL     1      -2.020   2.587   3.624  0.00  0.00    +0.058 N 
ATOM     12  O   UNL     1      -2.631   2.799   4.657  0.00  0.00    -0.126 OA
ATOM     13  O   UNL     1      -0.816   2.403   3.656  0.00  0.00    -0.126 OA
ENDBRANCH   7  11
ENDBRANCH   1   6
BRANCH   1  14
ATOM     14  C   UNL     1      -0.031   1.374   0.019  0.00  0.00    +0.235 C 
ATOM     15  C   UNL     1       1.412   1.886   0.002  0.00  0.00    +0.192 C 
ATOM     16  C   UNL     1       2.157   1.329   1.219  0.00  0.00    +0.178 C 
ATOM     17  C   UNL     1       2.083  -0.200   1.194  0.00  0.00    +0.174 C 
ATOM     18  C   UNL     1       0.614  -0.631   1.165  0.00  0.00    +0.149 C 
ATOM     19  O   UNL     1      -0.028  -0.055   0.026  0.00  0.00    -0.351 OA
ATOM     20  C   UNL     1       0.531  -2.157   1.079  0.00  0.00    +0.041 C 
BRANCH  17  21
ATOM     21  O   UNL     1       2.712  -0.729   2.363  0.00  0.00    -0.387 OA
ATOM     22  H   UNL     1       2.698  -1.694   2.415  0.00  0.00    +0.210 HD
ENDBRANCH  17  21
BRANCH  16  23
ATOM     23  O   UNL     1       3.525   1.742   1.172  0.00  0.00    -0.386 OA
ATOM     24  H   UNL     1       3.646   2.701   1.185  0.00  0.00    +0.210 HD
ENDBRANCH  16  23
BRANCH  15  25
ATOM     25  O   UNL     1       2.059   1.450  -1.195  0.00  0.00    -0.385 OA
ATOM     26  H   UNL     1       1.636   1.762  -2.007  0.00  0.00    +0.210 HD
ENDBRANCH  15  25
ENDBRANCH   1  14
TORSDOF 6
