REMARK  Name = ZINC21761331
REMARK  7 active torsions:
REMARK  status: ('A' for Active; 'I' for Inactive)
REMARK    1  A    between atoms: C_1  and  C_2
REMARK    2  A    between atoms: C_11  and  O_13
REMARK    3  A    between atoms: O_13  and  C_14
REMARK    4  A    between atoms: C_14  and  C_15
REMARK    5  A    between atoms: C_21  and  S_28
REMARK    6  A    between atoms: C_25  and  C_27
REMARK    7  A    between atoms: S_28  and  N_31
REMARK                            x       y       z     vdW  Elec       q    Type
REMARK                         _______ _______ _______ _____ _____    ______ ____
ROOT
ATOM      1  C   UNL     1      -1.895   1.344  -1.610  0.00  0.00    +0.258 C 
ATOM      2  O   UNL     1      -2.617   0.654  -0.921  0.00  0.00    -0.272 OA
ATOM      3  N   UNL     1      -0.629   1.593  -1.221  0.00  0.00    -0.265 N 
ATOM      4  C   UNL     1       0.290   2.371  -1.932  0.00  0.00    +0.040 A 
ATOM      5  C   UNL     1       0.129   3.042  -3.146  0.00  0.00    +0.026 A 
ATOM      6  C   UNL     1       1.172   3.764  -3.685  0.00  0.00    +0.030 A 
ATOM      7  C   UNL     1       2.387   3.829  -3.026  0.00  0.00    +0.105 A 
ATOM      8  C   UNL     1       2.553   3.168  -1.824  0.00  0.00    +0.034 A 
ATOM      9  C   UNL     1       1.510   2.443  -1.280  0.00  0.00    -0.022 A 
ATOM     10  C   UNL     1       1.422   1.639  -0.003  0.00  0.00    +0.059 C 
ATOM     11  C   UNL     1      -0.013   1.086   0.008  0.00  0.00    +0.083 C 
ATOM     12  C   UNL     1      -0.770   1.599   1.234  0.00  0.00    +0.029 C 
ENDROOT
BRANCH   7  13
ATOM     13  S   UNL     1       3.718   4.753  -3.718  0.00  0.00    +0.056 S 
ATOM     14  O   UNL     1       3.136   5.725  -4.576  0.00  0.00    -0.153 OA
ATOM     15  O   UNL     1       4.573   5.104  -2.639  0.00  0.00    -0.153 OA
BRANCH  13  16
ATOM     16  N   UNL     1       4.578   3.721  -4.687  0.00  0.00    -0.204 NA
ATOM     17  H   UNL     1       5.422   4.262  -5.141  0.00  0.00    +0.144 HD
ATOM     18  H   UNL     1       3.923   3.332  -5.481  0.00  0.00    +0.144 HD
ENDBRANCH  13  16
ENDBRANCH   7  13
BRANCH   1  19
ATOM     19  C   UNL     1      -2.415   1.925  -2.900  0.00  0.00    +0.325 C 
BRANCH  19  20
ATOM     20  O   UNL     1      -3.773   1.522  -3.090  0.00  0.00    -0.481 OA
BRANCH  20  31
ATOM     21  C   UNL     1      -7.770   2.969  -8.013  0.00  0.00    +0.045 C 
ATOM     22  C   UNL     1      -6.339   3.333  -7.713  0.00  0.00    -0.033 A 
ATOM     23  C   UNL     1      -5.626   4.117  -8.562  0.00  0.00    +0.096 A 
ATOM     24  C   UNL     1      -4.288   4.444  -8.259  0.00  0.00    +0.337 A 
ATOM     25  O   UNL     1      -3.660   5.148  -9.029  0.00  0.00    -0.245 OA
ATOM     26  O   UNL     1      -3.689   4.000  -7.143  0.00  0.00    -0.422 OA
ATOM     27  C   UNL     1      -4.341   3.216  -6.257  0.00  0.00    +0.143 A 
ATOM     28  C   UNL     1      -5.679   2.851  -6.497  0.00  0.00    +0.022 A 
ATOM     29  C   UNL     1      -6.359   2.040  -5.582  0.00  0.00    +0.035 A 
ATOM     30  C   UNL     1      -5.720   1.604  -4.457  0.00  0.00    +0.083 A 
ATOM     31  C   UNL     1      -4.395   1.963  -4.214  0.00  0.00    +0.143 A 
ATOM     32  C   UNL     1      -3.709   2.770  -5.107  0.00  0.00    +0.094 A 
ATOM     33 CL   UNL     1      -6.563   0.597  -3.321  0.00  0.00    -0.080 Cl
ENDBRANCH  20  31
ENDBRANCH  19  20
ENDBRANCH   1  19
TORSDOF 5
