REMARK  Name = ZINC42438939
REMARK  5 active torsions:
REMARK  status: ('A' for Active; 'I' for Inactive)
REMARK    1  A    between atoms: C_1  and  C_2
REMARK    2  A    between atoms: C_6  and  C_19
REMARK    3  A    between atoms: N_9  and  C_10
REMARK    4  A    between atoms: C_13  and  C_16
REMARK    5  A    between atoms: C_16  and  N_18
REMARK                            x       y       z     vdW  Elec       q    Type
REMARK                         _______ _______ _______ _____ _____    ______ ____
ROOT
ATOM      1  C   UNL     1      -0.030   1.510  -0.009  0.00  0.00    +0.028 C 
ATOM      2  C   UNL     1       0.006  -0.019  -0.006  0.00  0.00    +0.070 C 
ATOM      3  C   UNL     1       0.742  -0.517  -1.254  0.00  0.00    +0.023 C 
ATOM      4  C   UNL     1       2.208  -0.081  -1.185  0.00  0.00    +0.016 C 
ATOM      5  C   UNL     1       2.869  -0.702   0.048  0.00  0.00    +0.092 C 
ATOM      6  C   UNL     1       2.157  -0.206   1.310  0.00  0.00    +0.118 C 
ATOM      7  N   UNL     1       0.718  -0.493   1.188  0.00  0.00    -0.326 N 
ENDROOT
BRANCH   7   8
ATOM      8  C   UNL     1       0.046  -1.201   2.180  0.00  0.00    +0.030 A 
ATOM      9  C   UNL     1       0.756  -1.743   3.248  0.00  0.00    +0.024 A 
ATOM     10  C   UNL     1       0.095  -2.444   4.231  0.00  0.00    +0.012 A 
ATOM     11  C   UNL     1      -1.292  -2.611   4.155  0.00  0.00    +0.003 A 
ATOM     12  C   UNL     1      -2.001  -2.065   3.081  0.00  0.00    +0.012 A 
ATOM     13  C   UNL     1      -1.334  -1.361   2.104  0.00  0.00    +0.024 A 
BRANCH  11  14
ATOM     14  C   UNL     1      -2.003  -3.361   5.205  0.00  0.00    +0.077 C 
ATOM     15  S   UNL     1      -1.475  -3.267   6.831  0.00  0.00    -0.035 S 
BRANCH  14  16
ATOM     16  N   UNL     1      -3.069  -4.121   4.886  0.00  0.00    -0.352 N 
ATOM     17  H   UNL     1      -3.368  -4.174   3.965  0.00  0.00    +0.143 HD
ATOM     18  H   UNL     1      -3.538  -4.615   5.577  0.00  0.00    +0.143 HD
ENDBRANCH  14  16
ENDBRANCH  11  14
ENDBRANCH   7   8
BRANCH   5  19
ATOM     19  C   UNL     1       4.320  -0.298   0.097  0.00  0.00    +0.215 C 
ATOM     20  O   UNL     1       4.745   0.323   1.048  0.00  0.00    -0.276 OA
ATOM     21  N   UNL     1       5.146  -0.627  -0.916  0.00  0.00    -0.329 N 
ATOM     22  H   UNL     1       4.806  -1.123  -1.677  0.00  0.00    +0.145 HD
ATOM     23  H   UNL     1       6.080  -0.367  -0.885  0.00  0.00    +0.145 HD
ENDBRANCH   5  19
TORSDOF 4
