REMARK  Name = ZINC66118829
REMARK  8 active torsions:
REMARK  status: ('A' for Active; 'I' for Inactive)
REMARK    1  A    between atoms: C_1  and  C_2
REMARK    2  A    between atoms: C_2  and  C_4
REMARK    3  A    between atoms: C_2  and  N_26
REMARK    4  A    between atoms: N_6  and  C_7
REMARK    5  A    between atoms: C_7  and  C_8
REMARK    6  A    between atoms: C_13  and  C_14
REMARK    7  A    between atoms: C_17  and  C_20
REMARK    8  A    between atoms: C_20  and  N_21
REMARK                            x       y       z     vdW  Elec       q    Type
REMARK                         _______ _______ _______ _____ _____    ______ ____
ROOT
ATOM      1  C   UNL     1       0.175  -0.267  -4.925  0.00  0.00    -0.023 A 
ATOM      2  C   UNL     1      -0.724  -1.155  -5.481  0.00  0.00    +0.006 A 
ATOM      3  C   UNL     1      -1.508  -0.769  -6.552  0.00  0.00    +0.000 A 
ATOM      4  C   UNL     1      -1.397   0.508  -7.073  0.00  0.00    +0.001 A 
ATOM      5  C   UNL     1      -0.501   1.404  -6.525  0.00  0.00    +0.009 A 
ATOM      6  C   UNL     1       0.288   1.021  -5.442  0.00  0.00    -0.013 A 
ENDROOT
BRANCH   6   7
ATOM      7  C   UNL     1       1.248   1.982  -4.845  0.00  0.00    -0.018 A 
ATOM      8  C   UNL     1       2.600   1.656  -4.757  0.00  0.00    +0.009 A 
ATOM      9  C   UNL     1       3.490   2.553  -4.201  0.00  0.00    +0.006 A 
ATOM     10  C   UNL     1       3.041   3.774  -3.732  0.00  0.00    -0.026 A 
ATOM     11  C   UNL     1       1.700   4.103  -3.816  0.00  0.00    +0.006 A 
ATOM     12  C   UNL     1       0.803   3.216  -4.375  0.00  0.00    +0.009 A 
BRANCH  10  13
ATOM     13  C   UNL     1       4.017   4.750  -3.126  0.00  0.00    +0.178 C 
BRANCH  13  14
ATOM     14  N   UNL     1       4.548   5.624  -4.175  0.00  0.00    -0.267 N 
ATOM     15  C   UNL     1       4.524   6.973  -4.172  0.00  0.00    +0.108 A 
ATOM     16  C   UNL     1       5.112   7.399  -5.314  0.00  0.00    +0.041 A 
ATOM     17  C   UNL     1       5.509   6.271  -6.040  0.00  0.00    +0.134 A 
ATOM     18  N   UNL     1       5.177   5.206  -5.355  0.00  0.00    -0.179 NA
ENDBRANCH  13  14
ENDBRANCH  10  13
ENDBRANCH   6   7
BRANCH   1  19
ATOM     19  C   UNL     1       1.029  -0.690  -3.757  0.00  0.00    +0.140 C 
BRANCH  19  22
ATOM     20  C   UNL     1       1.187  -0.223  -1.370  0.00  0.00    +0.233 C 
ATOM     21  O   UNL     1       2.217  -0.864  -1.343  0.00  0.00    -0.274 OA
ATOM     22  N   UNL     1       0.515  -0.076  -2.530  0.00  0.00    -0.310 N 
ATOM     23  H   UNL     1      -0.308   0.436  -2.551  0.00  0.00    +0.149 HD
BRANCH  20  25
ATOM     24  C   UNL     1       0.570   1.924  -0.294  0.00  0.00    +0.038 C 
ATOM     25  C   UNL     1       0.659   0.408  -0.108  0.00  0.00    +0.157 C 
BRANCH  25  26
ATOM     26  N   UNL     1       1.562   0.104   1.005  0.00  0.00    -0.289 N 
ATOM     27  C   UNL     1       1.096   0.102   2.270  0.00  0.00    +0.298 C 
ATOM     28  O   UNL     1      -0.074   0.352   2.487  0.00  0.00    -0.253 OA
ATOM     29  N   UNL     1       1.927  -0.177   3.293  0.00  0.00    -0.313 N 
ATOM     30  H   UNL     1       2.495  -0.096   0.831  0.00  0.00    +0.151 HD
ATOM     31  H   UNL     1       2.860  -0.377   3.120  0.00  0.00    +0.146 HD
ATOM     32  H   UNL     1       1.592  -0.179   4.204  0.00  0.00    +0.146 HD
ENDBRANCH  25  26
ENDBRANCH  20  25
ENDBRANCH  19  22
ENDBRANCH   1  19
TORSDOF 7
