REMARK  Name = ZINC45797101
REMARK  5 active torsions:
REMARK  status: ('A' for Active; 'I' for Inactive)
REMARK    1  A    between atoms: C_1  and  C_2
REMARK    2  A    between atoms: C_8  and  N_10
REMARK    3  A    between atoms: N_10  and  S_11
REMARK    4  A    between atoms: S_11  and  C_14
REMARK    5  A    between atoms: C_16  and  C_20
REMARK                            x       y       z     vdW  Elec       q    Type
REMARK                         _______ _______ _______ _____ _____    ______ ____
ROOT
ATOM      1  C   UNL     1       3.041  -1.095   3.582  0.00  0.00    +0.123 A 
ATOM      2  C   UNL     1       2.113  -1.615   4.490  0.00  0.00    +0.060 A 
ATOM      3  C   UNL     1       2.645  -2.785   4.988  0.00  0.00    +0.104 A 
ATOM      4  N   UNL     1       3.871  -2.970   4.391  0.00  0.00    -0.355 N 
ATOM      5  H   UNL     1       4.472  -3.714   4.552  0.00  0.00    +0.166 HD
ATOM      6  C   UNL     1       4.097  -1.942   3.537  0.00  0.00    +0.112 A 
ENDROOT
BRANCH   3   7
ATOM      7  C   UNL     1       2.018  -3.672   5.974  0.00  0.00    +0.263 C 
ATOM      8  O   UNL     1       0.924  -3.397   6.431  0.00  0.00    -0.268 OA
ATOM      9  N   UNL     1       2.654  -4.791   6.374  0.00  0.00    -0.296 N 
ATOM     10  C   UNL     1       3.975  -5.238   5.911  0.00  0.00    +0.108 C 
ATOM     11  C   UNL     1       4.281  -6.575   6.618  0.00  0.00    +0.020 C 
ATOM     12  C   UNL     1       2.871  -7.091   7.010  0.00  0.00    +0.020 C 
ATOM     13  C   UNL     1       2.142  -5.766   7.354  0.00  0.00    +0.108 C 
ENDBRANCH   3   7
BRANCH   1  14
ATOM     14  S   UNL     1       2.864   0.392   2.655  0.00  0.00    +0.060 S 
ATOM     15  O   UNL     1       4.176   0.820   2.319  0.00  0.00    -0.153 OA
ATOM     16  O   UNL     1       1.955   1.214   3.375  0.00  0.00    -0.153 OA
BRANCH  14  17
ATOM     17  N   UNL     1       2.116  -0.004   1.231  0.00  0.00    -0.187 NA
ATOM     18  H   UNL     1       2.589   0.100   0.390  0.00  0.00    +0.148 HD
BRANCH  17  25
ATOM     19  C   UNL     1      -0.019   1.526   0.010  0.00  0.00    +0.009 C 
ATOM     20  C   UNL     1       0.002  -0.004   0.002  0.00  0.00    +0.005 C 
ATOM     21  C   UNL     1      -1.433  -0.534   0.013  0.00  0.00    +0.005 C 
ATOM     22  C   UNL     1      -1.413  -2.063   0.004  0.00  0.00    +0.000 C 
ATOM     23  C   UNL     1      -0.673  -2.570   1.244  0.00  0.00    +0.002 C 
ATOM     24  C   UNL     1       0.763  -2.041   1.233  0.00  0.00    +0.020 C 
ATOM     25  C   UNL     1       0.742  -0.511   1.242  0.00  0.00    +0.079 C 
ENDBRANCH  17  25
ENDBRANCH  14  17
ENDBRANCH   1  14
TORSDOF 4
