REMARK  Name = ZINC39356770
REMARK  5 active torsions:
REMARK  status: ('A' for Active; 'I' for Inactive)
REMARK    1  A    between atoms: C_1  and  N_2
REMARK    2  A    between atoms: C_6  and  C_18
REMARK    3  A    between atoms: C_8  and  N_9
REMARK    4  A    between atoms: C_10  and  C_12
REMARK    5  A    between atoms: C_35  and  C_37
REMARK                            x       y       z     vdW  Elec       q    Type
REMARK                         _______ _______ _______ _____ _____    ______ ____
ROOT
ATOM      1  C   UNL     1       0.088   1.413   0.054  0.00  0.00    +0.131 C 
ATOM      2  N   UNL     1      -0.114  -0.038   0.032  0.00  0.00    -0.312 N 
ATOM      3  C   UNL     1      -0.127  -0.853  -1.104  0.00  0.00    +0.074 A 
ATOM      4  C   UNL     1      -0.346  -2.178  -0.731  0.00  0.00    +0.052 A 
ATOM      5  C   UNL     1      -0.398  -3.168  -1.700  0.00  0.00    +0.038 A 
ATOM      6  C   UNL     1      -0.232  -2.842  -3.047  0.00  0.00    +0.041 A 
ATOM      7  C   UNL     1      -0.013  -1.513  -3.420  0.00  0.00    +0.038 A 
ATOM      8  C   UNL     1       0.039  -0.526  -2.453  0.00  0.00    +0.057 A 
ATOM      9  N   UNL     1      -0.482  -2.262   0.662  0.00  0.00    -0.324 N 
ATOM     10  C   UNL     1      -0.332  -0.903   1.197  0.00  0.00    +0.161 C 
ATOM     11  H   UNL     1      -0.641  -3.068   1.177  0.00  0.00    +0.148 HD
ENDROOT
BRANCH   6  12
ATOM     12  C   UNL     1      -0.288  -3.898  -4.076  0.00  0.00    +0.247 C 
ATOM     13  O   UNL     1      -0.819  -3.676  -5.147  0.00  0.00    -0.270 OA
ATOM     14  N   UNL     1       0.249  -5.109  -3.828  0.00  0.00    -0.291 N 
ATOM     15  C   UNL     1       0.289  -6.144  -4.872  0.00  0.00    +0.113 C 
ATOM     16  C   UNL     1       1.753  -6.448  -5.216  0.00  0.00    +0.056 C 
ATOM     17  C   UNL     1       2.538  -6.586  -3.936  0.00  0.00    -0.016 A 
ATOM     18  C   UNL     1       3.835  -7.202  -3.741  0.00  0.00    +0.003 A 
ATOM     19  C   UNL     1       4.726  -7.832  -4.615  0.00  0.00    +0.010 A 
ATOM     20  C   UNL     1       5.893  -8.311  -4.073  0.00  0.00    +0.001 A 
ATOM     21  C   UNL     1       6.186  -8.182  -2.725  0.00  0.00    +0.002 A 
ATOM     22  C   UNL     1       5.322  -7.563  -1.838  0.00  0.00    +0.026 A 
ATOM     23  C   UNL     1       4.130  -7.067  -2.360  0.00  0.00    +0.047 A 
ATOM     24  N   UNL     1       3.078  -6.415  -1.782  0.00  0.00    -0.356 N 
ATOM     25  C   UNL     1       2.131  -6.134  -2.731  0.00  0.00    +0.038 A 
ATOM     26  H   UNL     1       3.011  -6.187  -0.842  0.00  0.00    +0.166 HD
ATOM     27  C   UNL     1       0.817  -5.428  -2.507  0.00  0.00    +0.161 C 
ENDBRANCH   6  12
BRANCH   8  28
ATOM     28  N   UNL     1       0.259   0.807  -2.827  0.00  0.00    -0.282 N 
ATOM     29  C   UNL     1      -0.254   1.276  -3.982  0.00  0.00    +0.246 C 
ATOM     30  O   UNL     1      -0.833   0.525  -4.738  0.00  0.00    -0.273 OA
ATOM     31  H   UNL     1       0.781   1.391  -2.256  0.00  0.00    +0.155 HD
BRANCH  29  32
ATOM     32  C   UNL     1      -0.111   2.735  -4.332  0.00  0.00    +0.204 C 
ATOM     33  C   UNL     1      -0.897   3.596  -3.321  0.00  0.00    +0.043 C 
ATOM     34  C   UNL     1      -1.507   4.698  -4.230  0.00  0.00    +0.031 C 
ATOM     35  C   UNL     1      -1.764   3.896  -5.530  0.00  0.00    +0.161 C 
ATOM     36  O   UNL     1      -0.661   2.979  -5.631  0.00  0.00    -0.367 OA
ENDBRANCH  29  32
ENDBRANCH   8  28
BRANCH  10  37
ATOM     37  C   UNL     1      -1.607  -0.485   1.933  0.00  0.00    +0.027 C 
ATOM     38  C   UNL     1      -1.403   0.695   2.897  0.00  0.00    +0.007 C 
ATOM     39  C   UNL     1      -2.338  -0.042   3.871  0.00  0.00    +0.001 C 
ATOM     40  C   UNL     1      -1.912  -1.344   3.171  0.00  0.00    +0.007 C 
ENDBRANCH  10  37
TORSDOF 4
