REMARK  Name = ZINC03302588
REMARK  7 active torsions:
REMARK  status: ('A' for Active; 'I' for Inactive)
REMARK    1  A    between atoms: C_4  and  N_7
REMARK    2  A    between atoms: C_12  and  C_13
REMARK    3  A    between atoms: C_12  and  N_51
REMARK    4  A    between atoms: C_13  and  C_14
REMARK    5  A    between atoms: N_16  and  N_17
REMARK    6  A    between atoms: C_18  and  C_20
REMARK    7  A    between atoms: C_21  and  C_22
REMARK                            x       y       z     vdW  Elec       q    Type
REMARK                         _______ _______ _______ _____ _____    ______ ____
ROOT
ATOM      1  C   UNL     1       3.663   1.796  -0.023  0.00  0.00    +0.079 C 
ENDROOT
BRANCH   1   2
ATOM      2  C   UNL     1       2.369   1.025  -0.015  0.00  0.00    +0.227 C 
ATOM      3  O   UNL     1       2.385  -0.188  -0.022  0.00  0.00    -0.274 OA
ATOM      4  N   UNL     1       1.193   1.683  -0.000  0.00  0.00    -0.234 N 
ATOM      5  H   UNL     1       1.179   2.653   0.005  0.00  0.00    +0.173 HD
BRANCH   4   6
ATOM      6  N   UNL     1      -0.011   0.966   0.007  0.00  0.00    -0.231 N 
ATOM      7  C   UNL     1      -1.187   1.624   0.017  0.00  0.00    +0.253 C 
ATOM      8  O   UNL     1      -1.204   2.841   0.023  0.00  0.00    -0.269 OA
ATOM      9  H   UNL     1       0.002  -0.004   0.002  0.00  0.00    +0.173 HD
BRANCH   7  10
ATOM     10  C   UNL     1      -2.403   0.899   0.018  0.00  0.00    +0.072 C 
ATOM     11  C   UNL     1      -3.587   1.562   0.028  0.00  0.00    +0.051 C 
BRANCH  11  12
ATOM     12  C   UNL     1      -4.804   0.837   0.029  0.00  0.00    +0.128 A 
ATOM     13  C   UNL     1      -6.072   1.379   0.044  0.00  0.00    +0.049 A 
ATOM     14  C   UNL     1      -6.968   0.298   0.036  0.00  0.00    +0.042 A 
ATOM     15  C   UNL     1      -6.229  -0.834   0.027  0.00  0.00    +0.195 A 
ATOM     16  O   UNL     1      -4.929  -0.507   0.023  0.00  0.00    -0.464 OA
ENDBRANCH  11  12
ENDBRANCH   7  10
ENDBRANCH   4   6
ENDBRANCH   1   2
BRANCH   1  17
ATOM     17  C   UNL     1       4.840   0.818  -0.040  0.00  0.00    -0.069 C 
BRANCH  17  23
ATOM     18  N   UNL     1       8.690   2.259  -1.014  0.00  0.00    -0.333 N 
ATOM     19  C   UNL     1       8.532   1.507   0.239  0.00  0.00    +0.086 C 
ATOM     20  C   UNL     1       7.248   0.677   0.175  0.00  0.00    -0.060 C 
ATOM     21  C   UNL     1       6.259   2.321  -1.301  0.00  0.00    -0.060 C 
ATOM     22  C   UNL     1       7.543   3.151  -1.237  0.00  0.00    +0.086 C 
ATOM     23  N   UNL     1       6.102   1.588  -0.027  0.00  0.00    +0.382 N 
ATOM     24  H   UNL     1       6.072   2.264   0.746  0.00  0.00    -0.082 HD
BRANCH  18  28
ATOM     25  C   UNL     1      12.266   4.390  -1.037  0.00  0.00    +0.000 A 
ATOM     26  C   UNL     1      11.416   4.458  -2.125  0.00  0.00    +0.002 A 
ATOM     27  C   UNL     1      10.229   3.752  -2.121  0.00  0.00    +0.023 A 
ATOM     28  C   UNL     1       9.889   2.973  -1.022  0.00  0.00    +0.030 A 
ATOM     29  C   UNL     1      10.743   2.911   0.072  0.00  0.00    +0.023 A 
ATOM     30  C   UNL     1      11.931   3.616   0.059  0.00  0.00    +0.002 A 
ENDBRANCH  18  28
ENDBRANCH  17  23
ENDBRANCH   1  17
TORSDOF 7
