REMARK  Name = ZINC57862800
REMARK  6 active torsions:
REMARK  status: ('A' for Active; 'I' for Inactive)
REMARK    1  A    between atoms: C_1  and  C_2
REMARK    2  A    between atoms: C_2  and  C_3
REMARK    3  A    between atoms: C_3  and  C_28
REMARK    4  A    between atoms: N_6  and  C_10
REMARK    5  A    between atoms: C_10  and  C_11
REMARK    6  A    between atoms: N_13  and  C_14
REMARK                            x       y       z     vdW  Elec       q    Type
REMARK                         _______ _______ _______ _____ _____    ______ ____
ROOT
ATOM      1  C   UNL     1      -2.511  -5.525   3.823  0.00  0.00    +0.235 C 
ATOM      2  O   UNL     1      -2.723  -6.220   4.794  0.00  0.00    -0.274 OA
ATOM      3  N   UNL     1      -1.268  -5.062   3.584  0.00  0.00    -0.284 N 
ATOM      4  H   UNL     1      -1.083  -4.563   2.773  0.00  0.00    +0.155 HD
ENDROOT
BRANCH   3   5
ATOM      5  C   UNL     1      -0.241  -5.303   4.507  0.00  0.00    +0.037 A 
ATOM      6  C   UNL     1       0.740  -4.344   4.720  0.00  0.00    +0.027 A 
ATOM      7  C   UNL     1       1.752  -4.580   5.630  0.00  0.00    +0.051 A 
ATOM      8  C   UNL     1       1.792  -5.774   6.332  0.00  0.00    +0.167 A 
ATOM      9  C   UNL     1       0.809  -6.738   6.121  0.00  0.00    +0.169 A 
ATOM     10  C   UNL     1      -0.209  -6.498   5.213  0.00  0.00    +0.072 A 
ATOM     11  O   UNL     1       1.069  -7.811   6.926  0.00  0.00    -0.447 OA
ATOM     12  C   UNL     1       2.434  -7.656   7.338  0.00  0.00    +0.254 C 
ATOM     13  O   UNL     1       2.670  -6.242   7.269  0.00  0.00    -0.448 OA
ATOM     14  C   UNL     1       2.618  -8.157   8.767  0.00  0.00    +0.093 C 
ATOM     15  C   UNL     1       4.072  -7.953   9.197  0.00  0.00    +0.008 C 
ATOM     16  C   UNL     1       4.996  -8.720   8.249  0.00  0.00    +0.000 C 
ATOM     17  C   UNL     1       4.817  -8.194   6.823  0.00  0.00    +0.008 C 
ATOM     18  C   UNL     1       3.365  -8.397   6.384  0.00  0.00    +0.093 C 
ENDBRANCH   3   5
BRANCH   1  19
ATOM     19  C   UNL     1      -3.637  -5.178   2.884  0.00  0.00    +0.214 C 
BRANCH  19  23
ATOM     20  C   UNL     1      -6.862  -6.204   4.413  0.00  0.00    +0.110 C 
ATOM     21  C   UNL     1      -5.741  -5.205   4.208  0.00  0.00    +0.247 C 
ATOM     22  O   UNL     1      -5.641  -4.104   4.704  0.00  0.00    -0.273 OA
ATOM     23  N   UNL     1      -4.877  -5.796   3.359  0.00  0.00    -0.215 N 
ATOM     24  C   UNL     1      -5.293  -7.017   3.003  0.00  0.00    +0.310 C 
ATOM     25  O   UNL     1      -4.682  -7.745   2.245  0.00  0.00    -0.252 OA
ATOM     26  N   UNL     1      -6.463  -7.350   3.578  0.00  0.00    -0.285 N 
ATOM     27  C   UNL     1      -8.196  -5.628   3.934  0.00  0.00    +0.041 C 
ATOM     28  H   UNL     1      -6.948  -8.182   3.465  0.00  0.00    +0.151 HD
BRANCH  20  30
ATOM     29  C   UNL     1      -7.927  -7.788   6.026  0.00  0.00    +0.006 C 
ATOM     30  C   UNL     1      -6.953  -6.616   5.884  0.00  0.00    +0.031 C 
ENDBRANCH  20  30
ENDBRANCH  19  23
ENDBRANCH   1  19
TORSDOF 4
