REMARK  Name = ZINC65546278
REMARK  7 active torsions:
REMARK  status: ('A' for Active; 'I' for Inactive)
REMARK    1  A    between atoms: C_1  and  C_2
REMARK    2  A    between atoms: C_4  and  C_26
REMARK    3  A    between atoms: C_6  and  N_25
REMARK    4  A    between atoms: C_7  and  C_11
REMARK    5  A    between atoms: N_13  and  C_14
REMARK    6  A    between atoms: C_14  and  C_15
REMARK    7  A    between atoms: C_15  and  C_16
REMARK                            x       y       z     vdW  Elec       q    Type
REMARK                         _______ _______ _______ _____ _____    ______ ____
ROOT
ATOM      1  C   UNL     1      -0.018   1.503   0.010  0.00  0.00    +0.065 C 
ATOM      2  C   UNL     1       0.002  -0.004   0.002  0.00  0.00    +0.040 A 
ATOM      3  C   UNL     1       0.006  -0.686  -1.206  0.00  0.00    +0.036 A 
ATOM      4  C   UNL     1       0.025  -2.061  -1.228  0.00  0.00    +0.068 A 
ATOM      5  C   UNL     1       0.041  -2.768   0.000  0.00  0.00    +0.041 A 
ATOM      6  C   UNL     1       0.062  -4.206   0.221  0.00  0.00    +0.054 A 
ATOM      7  C   UNL     1       0.075  -4.668   1.518  0.00  0.00    +0.097 A 
ATOM      8  S   UNL     1       0.059  -3.174   2.489  0.00  0.00    -0.062 S 
ATOM      9  C   UNL     1       0.035  -1.980   1.174  0.00  0.00    +0.112 A 
ATOM     10  N   UNL     1       0.022  -0.665   1.143  0.00  0.00    -0.245 NA
ENDROOT
BRANCH   7  11
ATOM     11  C   UNL     1       0.096  -6.010   1.972  0.00  0.00    +0.253 C 
ATOM     12  O   UNL     1       0.104  -6.925   1.168  0.00  0.00    -0.270 OA
ATOM     13  N   UNL     1       0.106  -6.274   3.294  0.00  0.00    -0.311 N 
ATOM     14  H   UNL     1       0.100  -5.546   3.934  0.00  0.00    +0.149 HD
BRANCH  13  15
ATOM     15  C   UNL     1       0.128  -7.662   3.763  0.00  0.00    +0.109 C 
BRANCH  15  16
ATOM     16  C   UNL     1       0.136  -7.683   5.293  0.00  0.00    +0.052 C 
BRANCH  16  17
ATOM     17  C   UNL     1       0.158  -9.110   5.776  0.00  0.00    -0.040 C 
ATOM     18  C   UNL     1       1.246  -9.834   6.125  0.00  0.00    -0.001 A 
ATOM     19  C   UNL     1       2.680  -9.521   6.158  0.00  0.00    +0.010 A 
ATOM     20  C   UNL     1       3.550 -10.474   6.563  0.00  0.00    +0.001 A 
ATOM     21  C   UNL     1       3.118 -11.750   6.951  0.00  0.00    +0.002 A 
ATOM     22  C   UNL     1       1.818 -12.112   6.947  0.00  0.00    +0.026 A 
ATOM     23  C   UNL     1       0.816 -11.188   6.540  0.00  0.00    +0.043 A 
ATOM     24  N   UNL     1      -0.487 -11.298   6.451  0.00  0.00    -0.380 N 
ATOM     25  C   UNL     1      -1.032 -10.021   5.974  0.00  0.00    +0.144 C 
ATOM     26  H   UNL     1      -1.005 -12.089   6.668  0.00  0.00    +0.160 HD
ENDBRANCH  16  17
ENDBRANCH  15  16
ENDBRANCH  13  15
ENDBRANCH   7  11
BRANCH   4  27
ATOM     27  C   UNL     1       0.028  -2.805  -2.539  0.00  0.00    +0.418 C 
ATOM     28  F   UNL     1       0.010  -1.888  -3.595  0.00  0.00    -0.166 F 
ATOM     29  F   UNL     1       1.181  -3.592  -2.625  0.00  0.00    -0.166 F 
ATOM     30  F   UNL     1      -1.103  -3.624  -2.613  0.00  0.00    -0.166 F 
ENDBRANCH   4  27
BRANCH   6  31
ATOM     31  N   UNL     1       0.069  -5.089  -0.849  0.00  0.00    -0.356 N 
ATOM     32  H   UNL     1       0.059  -4.750  -1.758  0.00  0.00    +0.142 HD
ATOM     33  H   UNL     1       0.083  -6.046  -0.689  0.00  0.00    +0.142 HD
ENDBRANCH   6  31
TORSDOF 6
