REMARK  Name = ZINC04553996
REMARK  7 active torsions:
REMARK  status: ('A' for Active; 'I' for Inactive)
REMARK    1  A    between atoms: C_1  and  C_2
REMARK    2  A    between atoms: C_5  and  O_25
REMARK    3  A    between atoms: C_6  and  C_8
REMARK    4  A    between atoms: C_19  and  C_20
REMARK    5  A    between atoms: C_19  and  C_21
REMARK    6  A    between atoms: C_19  and  N_48
REMARK    7  A    between atoms: C_22  and  O_24
REMARK                            x       y       z     vdW  Elec       q    Type
REMARK                         _______ _______ _______ _____ _____    ______ ____
ROOT
ATOM      1  C   UNL     1      -0.715   3.958   0.570  0.00  0.00    +0.227 C 
ATOM      2  N   UNL     1      -1.040   2.629   0.021  0.00  0.00    -0.313 N 
ATOM      3  C   UNL     1      -0.021   1.707   0.011  0.00  0.00    +0.080 A 
ATOM      4  C   UNL     1       1.329   2.081   0.001  0.00  0.00    +0.067 A 
ATOM      5  C   UNL     1       2.286   0.992  -0.019  0.00  0.00    -0.027 A 
ATOM      6  C   UNL     1       1.756  -0.256  -0.020  0.00  0.00    -0.021 A 
ATOM      7  S   UNL     1       0.002  -0.004   0.002  0.00  0.00    -0.080 S 
ATOM      8  C   UNL     1       2.515  -1.544  -0.038  0.00  0.00    -0.035 C 
ATOM      9  C   UNL     1       4.446  -0.146   0.392  0.00  0.00    -0.073 C 
ATOM     10  C   UNL     1       3.799   1.175  -0.035  0.00  0.00    +0.018 C 
ATOM     11  C   UNL     1       1.632   3.535   0.016  0.00  0.00    +0.220 C 
ATOM     12  N   UNL     1       0.646   4.360   0.238  0.00  0.00    -0.223 NA
ATOM     13  H   UNL     1      -1.925   2.416  -0.314  0.00  0.00    +0.149 HD
ATOM     14  N   UNL     1       3.911  -1.244  -0.439  0.00  0.00    +0.384 N 
ATOM     15  H   UNL     1       3.922  -0.954  -1.424  0.00  0.00    -0.081 HD
ENDROOT
BRANCH   1  21
ATOM     16  C   UNL     1       0.717   5.510   5.106  0.00  0.00    +0.044 C 
ATOM     17  C   UNL     1      -0.180   4.663   4.240  0.00  0.00    -0.050 A 
ATOM     18  C   UNL     1      -1.139   3.856   4.823  0.00  0.00    +0.007 A 
ATOM     19  C   UNL     1      -1.962   3.078   4.032  0.00  0.00    +0.046 A 
ATOM     20  C   UNL     1      -1.831   3.114   2.651  0.00  0.00    +0.124 A 
ATOM     21  C   UNL     1      -0.864   3.921   2.069  0.00  0.00    +0.036 A 
ATOM     22  C   UNL     1      -0.043   4.696   2.865  0.00  0.00    +0.014 A 
BRANCH  20  23
ATOM     23  O   UNL     1      -2.644   2.355   1.870  0.00  0.00    -0.506 OA
ATOM     24  H   UNL     1      -2.299   1.471   1.685  0.00  0.00    +0.292 HD
ENDBRANCH  20  23
ENDBRANCH   1  21
BRANCH  14  25
ATOM     25  C   UNL     1       4.752  -2.451  -0.284  0.00  0.00    -0.074 C 
ATOM     26  C   UNL     1       4.746  -2.924   1.170  0.00  0.00    -0.014 C 
ATOM     27  C   UNL     1       4.202  -3.559  -1.184  0.00  0.00    -0.014 C 
ENDBRANCH  14  25
BRANCH  11  28
ATOM     28  O   UNL     1       2.890   3.990  -0.193  0.00  0.00    -0.492 OA
ATOM     29  H   UNL     1       2.970   4.952  -0.160  0.00  0.00    +0.294 HD
ENDBRANCH  11  28
TORSDOF 4
