REMARK  Name = ZINC43257339
REMARK  8 active torsions:
REMARK  status: ('A' for Active; 'I' for Inactive)
REMARK    1  A    between atoms: C_1  and  C_2
REMARK    2  A    between atoms: C_2  and  C_3
REMARK    3  A    between atoms: C_3  and  C_5
REMARK    4  A    between atoms: C_3  and  N_23
REMARK    5  A    between atoms: C_5  and  C_7
REMARK    6  A    between atoms: C_5  and  S_13
REMARK    7  A    between atoms: S_13  and  C_14
REMARK    8  A    between atoms: C_17  and  C_22
REMARK                            x       y       z     vdW  Elec       q    Type
REMARK                         _______ _______ _______ _____ _____    ______ ____
ROOT
ATOM      1  C   UNL     1       0.550  -2.023   1.374  0.00  0.00    +0.076 C 
ENDROOT
BRANCH   1   2
ATOM      2  C   UNL     1       1.128  -2.316   2.735  0.00  0.00    +0.003 A 
ATOM      3  C   UNL     1       2.120  -3.175   3.074  0.00  0.00    +0.014 A 
ATOM      4  C   UNL     1       2.490  -3.282   4.402  0.00  0.00    +0.028 A 
ATOM      5  C   UNL     1       1.850  -2.522   5.326  0.00  0.00    +0.078 A 
ATOM      6  S   UNL     1       0.690  -1.615   4.317  0.00  0.00    -0.081 S 
ATOM      7 CL   UNL     1       2.099  -2.447   7.042  0.00  0.00    -0.076 Cl
ENDBRANCH   1   2
BRANCH   1   8
ATOM      8  C   UNL     1       0.749  -0.542   1.044  0.00  0.00    -0.057 C 
BRANCH   8   9
ATOM      9  N   UNL     1       2.178  -0.211   1.119  0.00  0.00    +0.381 N 
ATOM     10  H   UNL     1       2.309   0.765   0.901  0.00  0.00    -0.090 HD
ATOM     11  H   UNL     1       2.517  -0.396   2.052  0.00  0.00    -0.090 HD
ATOM     12  H   UNL     1       2.690  -0.775   0.457  0.00  0.00    -0.090 HD
ENDBRANCH   8   9
BRANCH   8  14
ATOM     13  C   UNL     1       0.307   1.240  -0.650  0.00  0.00    +0.002 C 
ATOM     14  C   UNL     1       0.235  -0.262  -0.369  0.00  0.00    -0.018 C 
ENDBRANCH   8  14
ENDBRANCH   1   8
BRANCH   1  15
ATOM     15  S   UNL     1      -1.222  -2.410   1.374  0.00  0.00    -0.081 S 
BRANCH  15  16
ATOM     16  C   UNL     1      -1.275  -4.165   1.522  0.00  0.00    +0.170 A 
ATOM     17  N   UNL     1      -0.149  -4.852   1.496  0.00  0.00    -0.228 NA
ATOM     18  H   UNL     1      -3.295  -4.269   1.687  0.00  0.00    +0.171 HD
ATOM     19  C   UNL     1      -0.145  -6.178   1.605  0.00  0.00    +0.046 A 
ATOM     20  C   UNL     1      -1.320  -6.858   1.747  0.00  0.00    +0.093 A 
ATOM     21  C   UNL     1      -2.525  -6.134   1.776  0.00  0.00    +0.252 A 
ATOM     22  O   UNL     1      -3.593  -6.710   1.902  0.00  0.00    -0.268 OA
ATOM     23  N   UNL     1      -2.477  -4.789   1.667  0.00  0.00    -0.302 N 
ATOM     24  C   UNL     1       1.160  -6.932   1.570  0.00  0.00    +0.066 C 
ENDBRANCH  15  16
ENDBRANCH   1  15
TORSDOF 6
