REMARK  Name = ZINC20565825
REMARK  9 active torsions:
REMARK  status: ('A' for Active; 'I' for Inactive)
REMARK    1  A    between atoms: C_1  and  C_2
REMARK    2  A    between atoms: C_13  and  C_16
REMARK    3  A    between atoms: C_16  and  C_17
REMARK    4  A    between atoms: C_17  and  C_18
REMARK    5  A    between atoms: N_23  and  C_26
REMARK    6  A    between atoms: C_26  and  C_27
REMARK    7  A    between atoms: C_27  and  C_28
REMARK    8  A    between atoms: C_28  and  O_29
REMARK    9  A    between atoms: O_29  and  C_30
REMARK                            x       y       z     vdW  Elec       q    Type
REMARK                         _______ _______ _______ _____ _____    ______ ____
ROOT
ATOM      1  C   UNL     1      -0.018   1.503   0.010  0.00  0.00    +0.044 C 
ATOM      2  C   UNL     1       0.002  -0.004   0.002  0.00  0.00    -0.050 A 
ATOM      3  C   UNL     1       0.006  -0.691  -1.199  0.00  0.00    +0.005 A 
ATOM      4  C   UNL     1       0.024  -2.070  -1.212  0.00  0.00    +0.024 A 
ATOM      5  C   UNL     1       0.040  -2.782  -0.015  0.00  0.00    +0.039 A 
ATOM      6  C   UNL     1       0.037  -2.081   1.187  0.00  0.00    +0.004 A 
ATOM      7  C   UNL     1       0.023  -0.704   1.195  0.00  0.00    +0.011 A 
ATOM      8  C   UNL     1       0.061  -3.122   2.270  0.00  0.00    +0.136 C 
ATOM      9  C   UNL     1      -1.156  -3.005   3.194  0.00  0.00    +0.122 C 
ATOM     10  C   UNL     1      -0.634  -2.227   4.435  0.00  0.00    +0.107 C 
ATOM     11  C   UNL     1       0.852  -1.945   4.127  0.00  0.00    +0.068 C 
ATOM     12  N   UNL     1       1.245  -2.973   3.137  0.00  0.00    -0.295 NA
ATOM     13  C   UNL     1      -1.419  -0.936   4.392  0.00  0.00    +0.227 C 
ATOM     14  O   UNL     1      -1.321  -0.030   5.192  0.00  0.00    -0.275 OA
ATOM     15  N   UNL     1      -2.237  -0.948   3.333  0.00  0.00    -0.241 N 
ATOM     16  C   UNL     1      -2.176  -2.072   2.584  0.00  0.00    +0.228 C 
ATOM     17  O   UNL     1      -2.826  -2.300   1.586  0.00  0.00    -0.275 OA
ATOM     18  C   UNL     1       0.075  -4.440   1.545  0.00  0.00    +0.243 C 
ATOM     19  O   UNL     1       0.095  -5.543   2.048  0.00  0.00    -0.273 OA
ATOM     20  N   UNL     1       0.060  -4.157   0.228  0.00  0.00    -0.283 N 
ATOM     21  H   UNL     1       1.465  -3.842   3.601  0.00  0.00    +0.123 HD
ATOM     22  H   UNL     1       0.063  -4.830  -0.470  0.00  0.00    +0.155 HD
ENDROOT
BRANCH  11  23
ATOM     23  C   UNL     1       1.691  -2.059   5.402  0.00  0.00    +0.028 C 
BRANCH  23  24
ATOM     24  C   UNL     1       3.135  -1.655   5.100  0.00  0.00    +0.097 C 
BRANCH  24  25
ATOM     25  C   UNL     1       3.962  -1.767   6.355  0.00  0.00    +0.211 C 
ATOM     26  O   UNL     1       3.446  -2.134   7.389  0.00  0.00    -0.276 OA
ATOM     27  N   UNL     1       5.273  -1.459   6.328  0.00  0.00    -0.329 N 
ATOM     28  H   UNL     1       5.686  -1.165   5.501  0.00  0.00    +0.145 HD
ATOM     29  H   UNL     1       5.805  -1.531   7.136  0.00  0.00    +0.145 HD
ENDBRANCH  24  25
ENDBRANCH  23  24
ENDBRANCH  11  23
BRANCH  15  30
ATOM     30  C   UNL     1      -3.134   0.166   3.013  0.00  0.00    +0.118 C 
BRANCH  30  31
ATOM     31  C   UNL     1      -2.412   1.154   2.095  0.00  0.00    +0.047 C 
BRANCH  31  32
ATOM     32  C   UNL     1      -3.349   2.316   1.760  0.00  0.00    +0.161 C 
BRANCH  32  33
ATOM     33  O   UNL     1      -2.675   3.240   0.902  0.00  0.00    -0.383 OA
ATOM     34  C   UNL     1      -3.466   4.369   0.527  0.00  0.00    +0.193 C 
ENDBRANCH  32  33
ENDBRANCH  31  32
ENDBRANCH  30  31
ENDBRANCH  15  30
TORSDOF 7
