REMARK  Name = ZINC63541319
REMARK  10 active torsions:
REMARK  status: ('A' for Active; 'I' for Inactive)
REMARK    1  A    between atoms: C_1  and  C_2
REMARK    2  A    between atoms: C_4  and  C_37
REMARK    3  A    between atoms: C_5  and  N_9
REMARK    4  A    between atoms: C_6  and  C_8
REMARK    5  A    between atoms: C_10  and  C_12
REMARK    6  A    between atoms: C_12  and  S_13
REMARK    7  A    between atoms: S_13  and  C_14
REMARK    8  A    between atoms: N_25  and  C_26
REMARK    9  A    between atoms: C_26  and  C_27
REMARK   10  A    between atoms: C_27  and  C_28
REMARK                            x       y       z     vdW  Elec       q    Type
REMARK                         _______ _______ _______ _____ _____    ______ ____
ROOT
ATOM      1  C   UNL     1      -0.747  -8.897   2.088  0.00  0.00    +0.223 C 
ATOM      2  N   UNL     1      -2.084  -9.050   1.505  0.00  0.00    -0.300 N 
ATOM      3  C   UNL     1      -2.269  -8.749   0.166  0.00  0.00    +0.151 A 
ATOM      4  C   UNL     1      -1.183  -8.922  -0.712  0.00  0.00    +0.165 A 
ATOM      5  N   UNL     1      -1.332  -8.667  -2.004  0.00  0.00    -0.246 NA
ATOM      6  C   UNL     1      -2.496  -8.239  -2.455  0.00  0.00    +0.131 A 
ATOM      7  C   UNL     1      -3.562  -8.054  -1.586  0.00  0.00    +0.132 A 
ATOM      8  N   UNL     1      -3.429  -8.311  -0.296  0.00  0.00    -0.237 NA
ATOM      9  C   UNL     1       0.108  -9.374  -0.157  0.00  0.00    +0.270 C 
ATOM     10  O   UNL     1       1.019  -9.688  -0.898  0.00  0.00    -0.268 OA
ATOM     11  N   UNL     1       0.265  -9.434   1.177  0.00  0.00    -0.268 N 
ATOM     12  H   UNL     1      -2.827  -9.358   2.048  0.00  0.00    +0.150 HD
ENDROOT
BRANCH   1  13
ATOM     13  S   UNL     1      -0.418  -7.138   2.382  0.00  0.00    -0.110 S 
BRANCH  13  14
ATOM     14  C   UNL     1      -0.526  -6.390   0.733  0.00  0.00    +0.168 C 
BRANCH  14  16
ATOM     15  N   UNL     1      -0.299  -4.141  -0.272  0.00  0.00    -0.284 N 
ATOM     16  C   UNL     1      -0.270  -4.908   0.836  0.00  0.00    +0.227 C 
ATOM     17  O   UNL     1      -0.036  -4.407   1.915  0.00  0.00    -0.275 OA
ATOM     18  H   UNL     1      -0.421  -4.551  -1.143  0.00  0.00    +0.155 HD
BRANCH  15  23
ATOM     19  C   UNL     1       0.286   1.486   0.157  0.00  0.00    +0.044 C 
ATOM     20  C   UNL     1       0.130  -0.009   0.043  0.00  0.00    -0.050 A 
ATOM     21  C   UNL     1       1.121  -0.844   0.526  0.00  0.00    +0.008 A 
ATOM     22  C   UNL     1       0.982  -2.215   0.423  0.00  0.00    -0.029 A 
ATOM     23  C   UNL     1      -0.155  -2.753  -0.166  0.00  0.00    +0.039 A 
ATOM     24  C   UNL     1      -1.148  -1.911  -0.649  0.00  0.00    -0.029 A 
ATOM     25  C   UNL     1      -1.005  -0.542  -0.539  0.00  0.00    +0.008 A 
ATOM     26  C   UNL     1      -2.383  -2.491  -1.289  0.00  0.00    +0.045 C 
ATOM     27  C   UNL     1       2.062  -3.124   0.949  0.00  0.00    +0.045 C 
ENDBRANCH  15  23
ENDBRANCH  14  16
ENDBRANCH  13  14
ENDBRANCH   1  13
BRANCH  11  28
ATOM     28  C   UNL     1       1.476 -10.048   1.728  0.00  0.00    +0.115 C 
BRANCH  28  29
ATOM     29  C   UNL     1       1.238 -11.544   1.941  0.00  0.00    +0.052 C 
BRANCH  29  30
ATOM     30  C   UNL     1       2.483 -12.175   2.508  0.00  0.00    -0.040 C 
ATOM     31  C   UNL     1       2.757 -12.406   3.812  0.00  0.00    -0.001 A 
ATOM     32  C   UNL     1       2.006 -12.148   5.046  0.00  0.00    +0.010 A 
ATOM     33  C   UNL     1       2.554 -12.498   6.233  0.00  0.00    +0.001 A 
ATOM     34  C   UNL     1       3.817 -13.100   6.312  0.00  0.00    +0.002 A 
ATOM     35  C   UNL     1       4.566 -13.369   5.222  0.00  0.00    +0.026 A 
ATOM     36  C   UNL     1       4.089 -13.044   3.923  0.00  0.00    +0.043 A 
ATOM     37  N   UNL     1       4.617 -13.200   2.734  0.00  0.00    -0.380 N 
ATOM     38  C   UNL     1       3.677 -12.685   1.732  0.00  0.00    +0.144 C 
ATOM     39  H   UNL     1       5.484 -13.595   2.547  0.00  0.00    +0.160 HD
ENDBRANCH  29  30
ENDBRANCH  28  29
ENDBRANCH  11  28
TORSDOF 7
