REMARK  Name = ZINC16286413
REMARK  5 active torsions:
REMARK  status: ('A' for Active; 'I' for Inactive)
REMARK    1  A    between atoms: C_1  and  C_2
REMARK    2  A    between atoms: C_2  and  C_28
REMARK    3  A    between atoms: C_6  and  C_20
REMARK    4  A    between atoms: C_11  and  S_15
REMARK    5  A    between atoms: S_15  and  C_16
REMARK                            x       y       z     vdW  Elec       q    Type
REMARK                         _______ _______ _______ _____ _____    ______ ____
ROOT
ATOM      1  C   UNL     1      -0.019   1.526   0.010  0.00  0.00    +0.011 C 
ATOM      2  C   UNL     1       0.002  -0.004   0.002  0.00  0.00    -0.023 C 
ATOM      3  C   UNL     1      -1.433  -0.539   0.038  0.00  0.00    +0.086 C 
ATOM      4  C   UNL     1      -1.395  -2.040   0.123  0.00  0.00    +0.162 C 
ATOM      5  C   UNL     1      -0.317  -2.709   0.727  0.00  0.00    +0.024 C 
ATOM      6  C   UNL     1      -0.352  -4.216   0.769  0.00  0.00    +0.092 C 
ATOM      7  C   UNL     1       1.009  -4.786   1.041  0.00  0.00    +0.069 A 
ATOM      8  C   UNL     1       2.001  -4.011   1.556  0.00  0.00    +0.111 A 
ATOM      9  N   UNL     1       3.230  -4.568   1.796  0.00  0.00    -0.322 N 
ATOM     10  C   UNL     1       3.450  -5.883   1.518  0.00  0.00    +0.171 A 
ATOM     11  N   UNL     1       2.498  -6.643   1.017  0.00  0.00    -0.185 NA
ATOM     12  C   UNL     1       1.279  -6.144   0.764  0.00  0.00    +0.280 A 
ATOM     13  O   UNL     1       0.406  -6.861   0.296  0.00  0.00    -0.265 OA
ATOM     14  N   UNL     1       1.772  -2.683   1.830  0.00  0.00    -0.304 N 
ATOM     15  C   UNL     1       0.718  -2.024   1.258  0.00  0.00    +0.017 C 
ATOM     16  C   UNL     1       0.742  -0.515   1.240  0.00  0.00    +0.058 C 
ATOM     17  O   UNL     1      -2.315  -2.686  -0.338  0.00  0.00    -0.292 OA
ATOM     18  C   UNL     1       0.709  -0.502  -1.260  0.00  0.00    +0.011 C 
ATOM     19  H   UNL     1       2.363  -2.209   2.436  0.00  0.00    +0.153 HD
ATOM     20  H   UNL     1       3.944  -4.024   2.164  0.00  0.00    +0.169 HD
ENDROOT
BRANCH   6  21
ATOM     21  C   UNL     1      -1.296  -4.657   1.858  0.00  0.00    -0.034 A 
ATOM     22  C   UNL     1      -1.064  -4.281   3.168  0.00  0.00    +0.004 A 
ATOM     23  C   UNL     1      -1.930  -4.685   4.167  0.00  0.00    +0.001 A 
ATOM     24  C   UNL     1      -3.028  -5.465   3.857  0.00  0.00    +0.015 A 
ATOM     25  C   UNL     1      -3.261  -5.841   2.546  0.00  0.00    +0.018 A 
ATOM     26  C   UNL     1      -2.397  -5.432   1.546  0.00  0.00    +0.019 A 
ATOM     27 BR   UNL     1      -4.763  -6.909   2.121  0.00  0.00    -0.050 Br
ENDBRANCH   6  21
BRANCH  10  28
ATOM     28  S   UNL     1       5.037  -6.582   1.836  0.00  0.00    -0.091 S 
ATOM     29  C   UNL     1       4.865  -8.313   1.324  0.00  0.00    +0.093 C 
ENDBRANCH  10  28
TORSDOF 2
