REMARK  Name = ZINC06287700
REMARK  5 active torsions:
REMARK  status: ('A' for Active; 'I' for Inactive)
REMARK    1  A    between atoms: C_1  and  O_2
REMARK    2  A    between atoms: O_2  and  C_3
REMARK    3  A    between atoms: C_8  and  C_9
REMARK    4  A    between atoms: C_10  and  C_11
REMARK    5  A    between atoms: N_12  and  N_13
REMARK                            x       y       z     vdW  Elec       q    Type
REMARK                         _______ _______ _______ _____ _____    ______ ____
ROOT
ATOM      1  C   UNL     1      -5.991   3.403   0.073  0.00  0.00    +0.130 C 
ATOM      2  N   UNL     1      -4.834   4.001   0.066  0.00  0.00    -0.189 NA
ENDROOT
BRANCH   2   3
ATOM      3  N   UNL     1      -3.654   3.244   0.051  0.00  0.00    -0.219 N 
ATOM      4  C   UNL     1      -2.425   3.879   0.044  0.00  0.00    +0.168 A 
ATOM      5  C   UNL     1      -1.226   3.129   0.030  0.00  0.00    +0.027 A 
ATOM      6  C   UNL     1      -1.209   1.731   0.017  0.00  0.00    +0.012 A 
ATOM      7  C   UNL     1      -0.013   1.076   0.008  0.00  0.00    +0.001 A 
ATOM      8  C   UNL     1       1.190   1.778   0.000  0.00  0.00    +0.001 A 
ATOM      9  C   UNL     1       1.210   3.141   0.007  0.00  0.00    +0.010 A 
ATOM     10  C   UNL     1      -0.001   3.845   0.022  0.00  0.00    +0.005 A 
ATOM     11  C   UNL     1      -0.064   5.251   0.030  0.00  0.00    +0.143 A 
ATOM     12  N   UNL     1      -1.238   5.838   0.043  0.00  0.00    -0.155 NA
ATOM     13  N   UNL     1      -2.349   5.199   0.050  0.00  0.00    -0.132 NA
ATOM     14  H   UNL     1      -3.700   2.275   0.047  0.00  0.00    +0.176 HD
ENDBRANCH   2   3
BRANCH   1  16
ATOM     15  C   UNL     1      -8.383   3.549   0.095  0.00  0.00    +0.013 C 
ATOM     16  C   UNL     1      -7.184   4.168   0.087  0.00  0.00    +0.022 C 
BRANCH  15  22
ATOM     17  C   UNL     1     -10.870   3.703   0.112  0.00  0.00    +0.127 A 
ATOM     18  C   UNL     1     -12.029   4.461   0.132  0.00  0.00    +0.046 A 
ATOM     19  C   UNL     1     -11.955   5.841   0.138  0.00  0.00    +0.004 A 
ATOM     20  C   UNL     1     -10.725   6.477   0.131  0.00  0.00    +0.001 A 
ATOM     21  C   UNL     1      -9.561   5.740   0.117  0.00  0.00    +0.011 A 
ATOM     22  C   UNL     1      -9.621   4.343   0.110  0.00  0.00    +0.017 A 
BRANCH  17  24
ATOM     23  C   UNL     1     -12.247   1.766   0.101  0.00  0.00    +0.277 C 
ATOM     24  O   UNL     1     -10.942   2.347   0.099  0.00  0.00    -0.495 OA
ENDBRANCH  17  24
ENDBRANCH  15  22
ENDBRANCH   1  16
TORSDOF 4
