REMARK  Name = ZINC67642849
REMARK  8 active torsions:
REMARK  status: ('A' for Active; 'I' for Inactive)
REMARK    1  A    between atoms: C_1  and  C_2
REMARK    2  A    between atoms: C_2  and  N_3
REMARK    3  A    between atoms: C_4  and  C_6
REMARK    4  A    between atoms: C_9  and  N_30
REMARK    5  A    between atoms: C_13  and  C_15
REMARK    6  A    between atoms: C_18  and  N_21
REMARK    7  A    between atoms: C_22  and  C_24
REMARK    8  A    between atoms: C_28  and  C_29
REMARK                            x       y       z     vdW  Elec       q    Type
REMARK                         _______ _______ _______ _____ _____    ______ ____
ROOT
ATOM      1  C   UNL     1      -3.417  -2.329  -0.180  0.00  0.00    +0.161 C 
ATOM      2  C   UNL     1      -4.375  -2.255   1.028  0.00  0.00    +0.017 C 
ATOM      3  C   UNL     1      -4.361  -3.707   1.573  0.00  0.00    -0.055 C 
ATOM      4  C   UNL     1      -4.247  -4.529   0.265  0.00  0.00    +0.093 C 
ATOM      5  N   UNL     1      -3.357  -3.735  -0.607  0.00  0.00    -0.288 N 
ATOM      6  C   UNL     1      -2.613  -4.216  -1.622  0.00  0.00    +0.247 C 
ATOM      7  O   UNL     1      -1.965  -3.455  -2.315  0.00  0.00    -0.270 OA
ENDROOT
BRANCH   6   8
ATOM      8  C   UNL     1      -2.584  -5.667  -1.893  0.00  0.00    +0.037 A 
ATOM      9  C   UNL     1      -3.675  -6.466  -1.542  0.00  0.00    +0.015 A 
ATOM     10  C   UNL     1      -3.646  -7.819  -1.797  0.00  0.00    +0.024 A 
ATOM     11  C   UNL     1      -2.531  -8.390  -2.403  0.00  0.00    +0.034 A 
ATOM     12  C   UNL     1      -1.443  -7.597  -2.753  0.00  0.00    +0.024 A 
ATOM     13  C   UNL     1      -1.469  -6.243  -2.507  0.00  0.00    +0.015 A 
BRANCH  11  14
ATOM     14  N   UNL     1      -2.504  -9.760  -2.658  0.00  0.00    -0.281 N 
ATOM     15  C   UNL     1      -3.097 -10.617  -1.804  0.00  0.00    +0.252 C 
ATOM     16  O   UNL     1      -3.575 -10.205  -0.763  0.00  0.00    -0.270 OA
ATOM     17  H   UNL     1      -2.058 -10.096  -3.451  0.00  0.00    +0.155 HD
BRANCH  15  18
ATOM     18  C   UNL     1      -3.167 -12.052  -2.130  0.00  0.00    +0.078 A 
ATOM     19  C   UNL     1      -2.641 -12.717  -3.330  0.00  0.00    +0.054 A 
ATOM     20  C   UNL     1      -2.936 -14.019  -3.190  0.00  0.00    +0.196 A 
ATOM     21  O   UNL     1      -3.584 -14.200  -2.029  0.00  0.00    -0.467 OA
ATOM     22  C   UNL     1      -3.729 -13.042  -1.377  0.00  0.00    +0.114 A 
ATOM     23  C   UNL     1      -4.402 -12.860  -0.041  0.00  0.00    +0.087 C 
ENDBRANCH  15  18
ENDBRANCH  11  14
ENDBRANCH   6   8
BRANCH   1  25
ATOM     24  N   UNL     1      -1.780  -0.537   0.295  0.00  0.00    -0.314 N 
ATOM     25  C   UNL     1      -2.045  -1.857   0.224  0.00  0.00    +0.234 C 
ATOM     26  O   UNL     1      -1.178  -2.663   0.485  0.00  0.00    -0.274 OA
ATOM     27  H   UNL     1      -2.474   0.109   0.086  0.00  0.00    +0.149 HD
BRANCH  24  29
ATOM     28  C   UNL     1      -0.413   1.453   0.688  0.00  0.00    +0.024 C 
ATOM     29  C   UNL     1      -0.446  -0.077   0.687  0.00  0.00    +0.101 C 
ENDBRANCH  24  29
ENDBRANCH   1  25
BRANCH   3  30
ATOM     30  N   UNL     1      -5.610  -4.015   2.282  0.00  0.00    +0.381 N 
ATOM     31  H   UNL     1      -6.390  -3.915   1.650  0.00  0.00    -0.090 HD
ATOM     32  H   UNL     1      -5.576  -4.963   2.626  0.00  0.00    -0.090 HD
ATOM     33  H   UNL     1      -5.721  -3.380   3.058  0.00  0.00    -0.090 HD
ENDBRANCH   3  30
TORSDOF 6
