REMARK  Name = ZINC06049247
REMARK  7 active torsions:
REMARK  status: ('A' for Active; 'I' for Inactive)
REMARK    1  A    between atoms: C_1  and  C_2
REMARK    2  A    between atoms: C_7  and  N_12
REMARK    3  A    between atoms: C_9  and  C_11
REMARK    4  A    between atoms: C_13  and  C_15
REMARK    5  A    between atoms: C_15  and  O_16
REMARK    6  A    between atoms: O_16  and  C_17
REMARK    7  A    between atoms: C_17  and  C_19
REMARK                            x       y       z     vdW  Elec       q    Type
REMARK                         _______ _______ _______ _____ _____    ______ ____
ROOT
ATOM      1  C   UNL     1       1.280   1.980   0.001  0.00  0.00    +0.328 C 
ENDROOT
BRANCH   1   3
ATOM      2  N   UNL     1      -1.191   1.867   0.018  0.00  0.00    -0.309 N 
ATOM      3  C   UNL     1      -0.014   1.209   0.009  0.00  0.00    +0.251 C 
ATOM      4  O   UNL     1       0.002  -0.004   0.002  0.00  0.00    -0.272 OA
ATOM      5  H   UNL     1      -1.204   2.837   0.023  0.00  0.00    +0.149 HD
BRANCH   2  11
ATOM      6  C   UNL     1      -5.984   2.065  -1.178  0.00  0.00    +0.008 C 
ATOM      7  C   UNL     1      -4.874   1.200  -0.578  0.00  0.00    -0.009 C 
ATOM      8  C   UNL     1      -5.241   0.823   0.859  0.00  0.00    +0.003 C 
ATOM      9  C   UNL     1      -4.131  -0.043   1.458  0.00  0.00    +0.002 C 
ATOM     10  C   UNL     1      -2.816   0.740   1.456  0.00  0.00    +0.022 C 
ATOM     11  C   UNL     1      -2.449   1.117   0.020  0.00  0.00    +0.076 C 
ATOM     12  C   UNL     1      -3.559   1.982  -0.580  0.00  0.00    +0.009 C 
ATOM     13  C   UNL     1      -3.722   3.254   0.255  0.00  0.00    +0.009 C 
ENDBRANCH   2  11
ENDBRANCH   1   3
BRANCH   1  14
ATOM     14  O   UNL     1       2.397   1.051  -0.015  0.00  0.00    -0.451 OA
BRANCH  14  15
ATOM     15  C   UNL     1       3.634   1.583  -0.024  0.00  0.00    +0.356 C 
ATOM     16  O   UNL     1       3.777   2.789  -0.019  0.00  0.00    -0.243 OA
BRANCH  15  17
ATOM     17  C   UNL     1       4.822   0.696  -0.040  0.00  0.00    +0.133 A 
ATOM     18  C   UNL     1       6.073   1.226  -0.049  0.00  0.00    +0.103 A 
ATOM     19  C   UNL     1       7.219   0.309  -0.065  0.00  0.00    +0.255 A 
ATOM     20  O   UNL     1       8.357   0.740  -0.074  0.00  0.00    -0.268 OA
ATOM     21  N   UNL     1       6.989  -1.021  -0.069  0.00  0.00    -0.275 N 
ATOM     22  H   UNL     1       7.759  -1.658  -0.079  0.00  0.00    +0.173 HD
ATOM     23  C   UNL     1       5.731  -1.494  -0.060  0.00  0.00    +0.327 A 
ATOM     24  O   UNL     1       5.551  -2.696  -0.065  0.00  0.00    -0.247 OA
ATOM     25  N   UNL     1       4.667  -0.673  -0.040  0.00  0.00    -0.302 N 
ATOM     26  H   UNL     1       3.746  -1.064  -0.025  0.00  0.00    +0.171 HD
ENDBRANCH  15  17
ENDBRANCH  14  15
ENDBRANCH   1  14
TORSDOF 5
