REMARK  Name = ZINC29493680
REMARK  11 active torsions:
REMARK  status: ('A' for Active; 'I' for Inactive)
REMARK    1  A    between atoms: C_1  and  C_2
REMARK    2  A    between atoms: C_2  and  C_3
REMARK    3  A    between atoms: C_3  and  C_4
REMARK    4  A    between atoms: C_4  and  N_5
REMARK    5  A    between atoms: C_6  and  S_8
REMARK    6  A    between atoms: S_8  and  C_9
REMARK    7  A    between atoms: C_9  and  C_10
REMARK    8  A    between atoms: N_12  and  C_13
REMARK    9  A    between atoms: N_12  and  C_15
REMARK   10  A    between atoms: C_13  and  C_14
REMARK   11  A    between atoms: C_15  and  C_16
REMARK                            x       y       z     vdW  Elec       q    Type
REMARK                         _______ _______ _______ _____ _____    ______ ____
ROOT
ATOM      1  C   UNL     1       6.230  -2.784   1.261  0.00  0.00    +0.226 C 
ATOM      2  O   UNL     1       5.648  -3.715   1.778  0.00  0.00    -0.275 OA
ATOM      3  N   UNL     1       6.001  -1.526   1.686  0.00  0.00    -0.297 N 
ENDROOT
BRANCH   3   4
ATOM      4  C   UNL     1       6.704  -0.403   1.061  0.00  0.00    +0.105 C 
ATOM      5  C   UNL     1       8.015  -0.143   1.805  0.00  0.00    +0.024 C 
ENDBRANCH   3   4
BRANCH   1   6
ATOM      6  C   UNL     1       7.208  -3.036   0.142  0.00  0.00    +0.173 C 
BRANCH   6   7
ATOM      7  S   UNL     1       7.294  -4.812  -0.196  0.00  0.00    -0.084 S 
BRANCH   7   9
ATOM      8  N   UNL     1       8.989  -3.694  -1.923  0.00  0.00    -0.368 N 
ATOM      9  C   UNL     1       8.474  -4.817  -1.505  0.00  0.00    +0.126 C 
ATOM     10  N   UNL     1       8.851  -6.005  -2.086  0.00  0.00    -0.339 N 
ATOM     11  H   UNL     1       8.417  -6.952  -1.734  0.00  0.00    +0.144 HD
ATOM     12  H   UNL     1       9.588  -6.009  -2.903  0.00  0.00    +0.144 HD
ATOM     13  H   UNL     1       8.614  -2.737  -1.531  0.00  0.00    +0.161 HD
BRANCH   8  14
ATOM     14  C   UNL     1      10.068  -3.707  -2.914  0.00  0.00    +0.114 C 
BRANCH  14  15
ATOM     15  C   UNL     1       9.573  -3.071  -4.215  0.00  0.00    +0.021 C 
BRANCH  15  17
ATOM     16  C   UNL     1      10.204  -2.449  -6.551  0.00  0.00    +0.004 C 
ATOM     17  C   UNL     1      10.699  -3.085  -5.250  0.00  0.00    -0.002 C 
ENDBRANCH  15  17
ENDBRANCH  14  15
ENDBRANCH   8  14
ENDBRANCH   7   9
ENDBRANCH   6   7
ENDBRANCH   1   6
BRANCH   3  18
ATOM     18  C   UNL     1       5.051  -1.282   2.773  0.00  0.00    +0.143 C 
BRANCH  18  19
ATOM     19  C   UNL     1       3.674  -1.069   2.199  0.00  0.00    -0.026 A 
ATOM     20  C   UNL     1       2.829  -2.147   2.013  0.00  0.00    +0.009 A 
ATOM     21  C   UNL     1       1.566  -1.957   1.485  0.00  0.00    +0.050 A 
ATOM     22  C   UNL     1       1.143  -0.683   1.142  0.00  0.00    +0.166 A 
ATOM     23  C   UNL     1       1.993   0.404   1.330  0.00  0.00    +0.167 A 
ATOM     24  C   UNL     1       3.258   0.205   1.859  0.00  0.00    +0.054 A 
ATOM     25  O   UNL     1       1.351   1.536   0.920  0.00  0.00    -0.453 OA
ATOM     26  C   UNL     1      -0.044   1.187   0.861  0.00  0.00    +0.466 C 
ATOM     27  O   UNL     1      -0.032  -0.231   0.614  0.00  0.00    -0.453 OA
ENDBRANCH  18  19
ENDBRANCH   3  18
TORSDOF 9
