REMARK  Name = ZINC55477447
REMARK  5 active torsions:
REMARK  status: ('A' for Active; 'I' for Inactive)
REMARK    1  A    between atoms: C_1  and  C_2
REMARK    2  A    between atoms: C_6  and  C_11
REMARK    3  A    between atoms: C_7  and  N_8
REMARK    4  A    between atoms: N_13  and  C_14
REMARK    5  A    between atoms: N_21  and  C_23
REMARK                            x       y       z     vdW  Elec       q    Type
REMARK                         _______ _______ _______ _____ _____    ______ ____
ROOT
ATOM      1  C   UNL     1       0.052  -2.845   2.458  0.00  0.00    +0.247 C 
ATOM      2  O   UNL     1       0.049  -2.248   3.516  0.00  0.00    -0.270 OA
ATOM      3  N   UNL     1       0.071  -4.193   2.445  0.00  0.00    -0.308 N 
ATOM      4  H   UNL     1       0.073  -4.670   1.601  0.00  0.00    +0.149 HD
ENDROOT
BRANCH   3   5
ATOM      5  C   UNL     1       0.087  -4.935   3.704  0.00  0.00    +0.076 C 
ATOM      6  C   UNL     1       1.522  -5.111   4.205  0.00  0.00    -0.007 C 
ATOM      7  C   UNL     1       2.358  -5.814   3.142  0.00  0.00    +0.003 C 
ATOM      8  C   UNL     1       1.775  -7.165   2.750  0.00  0.00    +0.001 C 
ATOM      9  C   UNL     1       0.285  -7.100   2.453  0.00  0.00    +0.003 C 
ATOM     10  C   UNL     1      -0.501  -6.334   3.506  0.00  0.00    -0.007 C 
ATOM     11  C   UNL     1      -0.508  -7.064   4.845  0.00  0.00    -0.073 C 
ATOM     12  N   UNL     1       0.818  -7.155   5.447  0.00  0.00    +0.382 N 
ATOM     13  C   UNL     1       1.517  -5.877   5.520  0.00  0.00    -0.073 C 
ATOM     14  H   UNL     1       1.378  -7.836   4.960  0.00  0.00    -0.081 HD
BRANCH  12  15
ATOM     15  C   UNL     1       0.659  -7.661   6.817  0.00  0.00    -0.069 C 
ATOM     16  C   UNL     1       1.515  -8.860   7.231  0.00  0.00    -0.017 C 
ATOM     17  C   UNL     1       0.015  -9.038   6.991  0.00  0.00    -0.017 C 
ENDBRANCH  12  15
ENDBRANCH   3   5
BRANCH   1  23
ATOM     18  C   UNL     1      -0.018   1.503   0.010  0.00  0.00    +0.046 C 
ATOM     19  C   UNL     1       0.002  -0.004   0.002  0.00  0.00    -0.020 A 
ATOM     20  C   UNL     1       0.006  -0.688  -1.201  0.00  0.00    +0.005 A 
ATOM     21  C   UNL     1       0.024  -2.071  -1.218  0.00  0.00    +0.001 A 
ATOM     22  C   UNL     1       0.040  -2.778  -0.033  0.00  0.00    +0.015 A 
ATOM     23  C   UNL     1       0.036  -2.095   1.184  0.00  0.00    +0.067 A 
ATOM     24  C   UNL     1       0.023  -0.699   1.194  0.00  0.00    +0.141 A 
BRANCH  24  25
ATOM     25  N   UNL     1       0.025   0.035   2.479  0.00  0.00    +0.057 N 
ATOM     26  O   UNL     1      -1.020   0.320   3.015  0.00  0.00    -0.126 OA
ATOM     27  O   UNL     1       1.073   0.348   2.994  0.00  0.00    -0.126 OA
ENDBRANCH  24  25
ENDBRANCH   1  23
TORSDOF 4
