REMARK  Name = ZINC12520567
REMARK  9 active torsions:
REMARK  status: ('A' for Active; 'I' for Inactive)
REMARK    1  A    between atoms: C_1  and  C_2
REMARK    2  A    between atoms: C_2  and  C_3
REMARK    3  A    between atoms: C_3  and  N_4
REMARK    4  A    between atoms: C_5  and  N_30
REMARK    5  A    between atoms: C_6  and  C_13
REMARK    6  A    between atoms: C_13  and  C_15
REMARK    7  A    between atoms: C_15  and  S_16
REMARK    8  A    between atoms: S_16  and  C_17
REMARK    9  A    between atoms: C_20  and  C_23
REMARK                            x       y       z     vdW  Elec       q    Type
REMARK                         _______ _______ _______ _____ _____    ______ ____
ROOT
ATOM      1  C   UNL     1      -0.429  -2.820  -2.344  0.00  0.00    +0.182 C 
ATOM      2  O   UNL     1      -0.547  -2.245  -3.407  0.00  0.00    -0.291 OA
ENDROOT
BRANCH   1   5
ATOM      3  N   UNL     1      -0.001  -0.004  -0.004  0.00  0.00    -0.281 N 
ATOM      4  C   UNL     1      -0.231  -0.675  -1.170  0.00  0.00    +0.116 A 
ATOM      5  C   UNL     1      -0.202  -2.081  -1.163  0.00  0.00    +0.120 A 
ATOM      6  C   UNL     1       0.069  -2.755   0.113  0.00  0.00    +0.266 A 
ATOM      7  O   UNL     1       0.103  -3.970   0.179  0.00  0.00    -0.267 OA
ATOM      8  N   UNL     1       0.279  -2.000   1.211  0.00  0.00    -0.274 N 
ATOM      9  H   UNL     1       0.464  -2.444   2.087  0.00  0.00    +0.173 HD
ATOM     10  C   UNL     1       0.242  -0.659   1.142  0.00  0.00    +0.331 A 
ATOM     11  O   UNL     1       0.436  -0.016   2.155  0.00  0.00    -0.246 OA
BRANCH   4  12
ATOM     12  N   UNL     1      -0.482   0.005  -2.322  0.00  0.00    -0.344 N 
ATOM     13  H   UNL     1      -0.163   0.915  -2.427  0.00  0.00    +0.144 HD
ATOM     14  H   UNL     1      -0.979  -0.420  -3.038  0.00  0.00    +0.144 HD
ENDBRANCH   4  12
BRANCH   3  15
ATOM     15  C   UNL     1      -0.026   1.461  -0.002  0.00  0.00    +0.128 C 
BRANCH  15  17
ATOM     16  C   UNL     1       1.354   3.525  -0.285  0.00  0.00    +0.005 C 
ATOM     17  C   UNL     1       1.379   1.995  -0.287  0.00  0.00    +0.018 C 
ENDBRANCH  15  17
ENDBRANCH   3  15
ENDBRANCH   1   5
BRANCH   1  18
ATOM     18  C   UNL     1      -0.524  -4.323  -2.285  0.00  0.00    +0.157 C 
BRANCH  18  19
ATOM     19  S   UNL     1      -0.817  -4.974  -3.948  0.00  0.00    -0.080 S 
BRANCH  19  20
ATOM     20  C   UNL     1      -0.884  -6.699  -3.594  0.00  0.00    +0.167 A 
ATOM     21  N   UNL     1      -1.088  -7.689  -4.506  0.00  0.00    -0.333 N 
ATOM     22  H   UNL     1      -1.227  -7.574  -5.489  0.00  0.00    +0.168 HD
ATOM     23  C   UNL     1      -1.067  -8.886  -3.810  0.00  0.00    +0.067 A 
ATOM     24  C   UNL     1      -0.851  -8.574  -2.506  0.00  0.00    +0.139 A 
ATOM     25  N   UNL     1      -0.739  -7.244  -2.407  0.00  0.00    -0.230 NA
BRANCH  23  26
ATOM     26  C   UNL     1      -1.246 -10.240  -4.377  0.00  0.00    +0.000 A 
ATOM     27  C   UNL     1      -1.468 -10.403  -5.745  0.00  0.00    +0.013 A 
ATOM     28  C   UNL     1      -1.630 -11.669  -6.269  0.00  0.00    +0.039 A 
ATOM     29  C   UNL     1      -1.583 -12.776  -5.438  0.00  0.00    +0.123 A 
ATOM     30  C   UNL     1      -1.368 -12.620  -4.078  0.00  0.00    +0.039 A 
ATOM     31  C   UNL     1      -1.200 -11.360  -3.544  0.00  0.00    +0.013 A 
ATOM     32  F   UNL     1      -1.746 -14.014  -5.956  0.00  0.00    -0.205 F 
ENDBRANCH  23  26
ENDBRANCH  19  20
ENDBRANCH  18  19
ENDBRANCH   1  18
TORSDOF 8
