REMARK  Name = ZINC12410406
REMARK  3 active torsions:
REMARK  status: ('A' for Active; 'I' for Inactive)
REMARK    1  A    between atoms: C_10  and  C_11
REMARK    2  A    between atoms: C_10  and  N_28
REMARK    3  A    between atoms: C_11  and  C_12
REMARK                            x       y       z     vdW  Elec       q    Type
REMARK                         _______ _______ _______ _____ _____    ______ ____
ROOT
ATOM      1  C   UNL     1       1.512   1.127   0.107  0.00  0.00    +0.000 A 
ATOM      2  C   UNL     1       1.071  -0.184   0.105  0.00  0.00    +0.002 A 
ATOM      3  C   UNL     1      -0.282  -0.454   0.092  0.00  0.00    +0.023 A 
ATOM      4  C   UNL     1      -1.200   0.590   0.074  0.00  0.00    +0.035 A 
ATOM      5  C   UNL     1      -0.760   1.904   0.089  0.00  0.00    -0.026 A 
ATOM      6  C   UNL     1       0.602   2.165   0.100  0.00  0.00    +0.005 A 
ATOM      7  C   UNL     1      -1.717   3.067   0.095  0.00  0.00    +0.044 C 
ATOM      8  C   UNL     1      -3.081   2.643  -0.454  0.00  0.00    +0.074 C 
ATOM      9  C   UNL     1      -3.463   1.330   0.201  0.00  0.00    +0.072 C 
ATOM     10  N   UNL     1      -2.570   0.288   0.045  0.00  0.00    -0.304 N 
ATOM     11  H   UNL     1      -2.879  -0.622  -0.085  0.00  0.00    +0.153 HD
ATOM     12  N   UNL     1      -4.573   1.133   0.904  0.00  0.00    -0.376 N 
ATOM     13  H   UNL     1      -4.710   0.251   1.410  0.00  0.00    +0.161 HD
ENDROOT
BRANCH  12  14
ATOM     14  C   UNL     1      -5.628   2.203   0.958  0.00  0.00    +0.125 C 
BRANCH  14  15
ATOM     15  C   UNL     1      -5.725   2.718   2.396  0.00  0.00    +0.146 C 
BRANCH  15  16
ATOM     16  C   UNL     1      -6.815   3.755   2.486  0.00  0.00    +0.358 C 
ATOM     17  O   UNL     1      -7.449   4.051   1.501  0.00  0.00    -0.246 OA
ATOM     18  O   UNL     1      -7.081   4.348   3.659  0.00  0.00    -0.246 OA
ENDBRANCH  15  16
ENDBRANCH  14  15
ENDBRANCH  12  14
TORSDOF 3
