REMARK  Name = ZINC63213553
REMARK  6 active torsions:
REMARK  status: ('A' for Active; 'I' for Inactive)
REMARK    1  A    between atoms: C_1  and  C_2
REMARK    2  A    between atoms: C_3  and  S_9
REMARK    3  A    between atoms: C_4  and  C_8
REMARK    4  A    between atoms: S_9  and  N_12
REMARK    5  A    between atoms: N_12  and  C_13
REMARK    6  A    between atoms: C_20  and  N_22
REMARK                            x       y       z     vdW  Elec       q    Type
REMARK                         _______ _______ _______ _____ _____    ______ ____
ROOT
ATOM      1  N   UNL     1       1.569  -0.072  -3.243  0.00  0.00    -0.188 NA
ATOM      2  H   UNL     1       1.914   0.806  -3.466  0.00  0.00    +0.148 HD
ENDROOT
BRANCH   1   3
ATOM      3  C   UNL     1       2.444  -1.245  -3.324  0.00  0.00    +0.062 C 
ATOM      4  C   UNL     1       3.200  -1.394  -1.990  0.00  0.00    +0.019 C 
ATOM      5  C   UNL     1       4.404  -2.288  -2.108  0.00  0.00    +0.001 C 
ATOM      6  C   UNL     1       5.642  -1.409  -2.382  0.00  0.00    -0.000 C 
ATOM      7  C   UNL     1       5.743  -1.013  -3.779  0.00  0.00    -0.002 C 
ATOM      8  C   UNL     1       4.542  -0.159  -4.235  0.00  0.00    -0.015 C 
ATOM      9  C   UNL     1       3.389  -1.077  -4.529  0.00  0.00    -0.056 C 
BRANCH   9  10
ATOM     10  N   UNL     1       2.626  -0.530  -5.659  0.00  0.00    +0.381 N 
ATOM     11  H   UNL     1       2.239   0.366  -5.402  0.00  0.00    -0.090 HD
ATOM     12  H   UNL     1       3.238  -0.416  -6.454  0.00  0.00    -0.090 HD
ATOM     13  H   UNL     1       1.879  -1.164  -5.898  0.00  0.00    -0.090 HD
ENDBRANCH   9  10
ENDBRANCH   1   3
BRANCH   1  14
ATOM     14  S   UNL     1      -0.008  -0.247  -2.770  0.00  0.00    +0.062 S 
ATOM     15  O   UNL     1      -0.548  -1.312  -3.541  0.00  0.00    -0.153 OA
ATOM     16  O   UNL     1      -0.578   1.055  -2.765  0.00  0.00    -0.153 OA
BRANCH  14  19
ATOM     17  C   UNL     1      -0.018   1.503   0.010  0.00  0.00    +0.067 C 
ATOM     18  C   UNL     1       0.002  -0.004   0.002  0.00  0.00    +0.060 A 
ATOM     19  C   UNL     1       0.008  -0.796  -1.095  0.00  0.00    +0.148 A 
ATOM     20  C   UNL     1       0.028  -2.127  -0.666  0.00  0.00    +0.086 A 
ATOM     21  N   UNL     1       0.035  -2.134   0.643  0.00  0.00    -0.177 NA
ATOM     22  N   UNL     1       0.024  -0.805   1.088  0.00  0.00    -0.280 N 
ATOM     23  H   UNL     1       0.029  -0.513   2.013  0.00  0.00    +0.189 HD
ATOM     24  C   UNL     1       0.040  -3.343  -1.556  0.00  0.00    +0.069 C 
ENDBRANCH  14  19
ENDBRANCH   1  14
TORSDOF 4
