REMARK  Name = ZINC66933449
REMARK  6 active torsions:
REMARK  status: ('A' for Active; 'I' for Inactive)
REMARK    1  A    between atoms: C_5  and  S_7
REMARK    2  A    between atoms: S_7  and  N_10
REMARK    3  A    between atoms: N_10  and  C_11
REMARK    4  A    between atoms: C_11  and  C_12
REMARK    5  A    between atoms: C_12  and  C_13
REMARK    6  A    between atoms: C_13  and  C_14
REMARK                            x       y       z     vdW  Elec       q    Type
REMARK                         _______ _______ _______ _____ _____    ______ ____
ROOT
ATOM      1  C   UNL     1       0.106  -2.664   2.427  0.00  0.00    +0.106 C 
ENDROOT
BRANCH   1   2
ATOM      2  N   UNL     1       1.252  -2.941   1.556  0.00  0.00    -0.190 NA
ATOM      3  H   UNL     1       2.022  -3.416   1.904  0.00  0.00    +0.148 HD
BRANCH   2   4
ATOM      4  S   UNL     1       1.230  -2.442  -0.024  0.00  0.00    +0.058 S 
ATOM      5  O   UNL     1      -0.015  -2.860  -0.565  0.00  0.00    -0.153 OA
ATOM      6  O   UNL     1       2.475  -2.829  -0.589  0.00  0.00    -0.153 OA
BRANCH   4  11
ATOM      7  C   UNL     1      -0.017   1.378   0.010  0.00  0.00    +0.005 A 
ATOM      8  C   UNL     1       1.171   2.086   0.002  0.00  0.00    +0.038 A 
ATOM      9  C   UNL     1       2.379   1.410  -0.013  0.00  0.00    +0.125 A 
ATOM     10  C   UNL     1       2.396   0.025  -0.021  0.00  0.00    +0.066 A 
ATOM     11  C   UNL     1       1.208  -0.680  -0.013  0.00  0.00    +0.108 A 
ATOM     12  C   UNL     1       0.002  -0.004   0.002  0.00  0.00    +0.029 A 
ATOM     13  F   UNL     1       3.540   2.101  -0.021  0.00  0.00    -0.205 F 
ENDBRANCH   4  11
ENDBRANCH   2   4
ENDBRANCH   1   2
BRANCH   1  14
ATOM     14  C   UNL     1       0.203  -3.529   3.685  0.00  0.00    +0.024 C 
BRANCH  14  15
ATOM     15  C   UNL     1      -0.993  -3.240   4.595  0.00  0.00    +0.077 C 
BRANCH  15  16
ATOM     16  C   UNL     1      -0.898  -4.092   5.835  0.00  0.00    +0.134 A 
ATOM     17  N   UNL     1      -1.392  -5.291   5.992  0.00  0.00    -0.134 NA
ATOM     18  N   UNL     1      -1.116  -5.723   7.173  0.00  0.00    -0.134 NA
ATOM     19  C   UNL     1      -0.432  -4.821   7.818  0.00  0.00    +0.133 A 
ATOM     20  N   UNL     1      -0.281  -3.761   6.990  0.00  0.00    -0.315 N 
ATOM     21  C   UNL     1       0.400  -2.504   7.301  0.00  0.00    +0.125 C 
ATOM     22  C   UNL     1       1.488  -2.761   8.348  0.00  0.00    +0.022 C 
ATOM     23  C   UNL     1       0.900  -2.611   9.750  0.00  0.00    +0.002 C 
ATOM     24  C   UNL     1      -0.210  -3.633   9.976  0.00  0.00    +0.008 C 
ATOM     25  C   UNL     1       0.111  -4.920   9.220  0.00  0.00    +0.076 C 
ENDBRANCH  15  16
ENDBRANCH  14  15
ENDBRANCH   1  14
TORSDOF 6
