REMARK  Name = ZINC63194430
REMARK  5 active torsions:
REMARK  status: ('A' for Active; 'I' for Inactive)
REMARK    1  A    between atoms: C_1  and  C_2
REMARK    2  A    between atoms: C_2  and  C_4
REMARK    3  A    between atoms: C_2  and  N_20
REMARK    4  A    between atoms: N_10  and  S_11
REMARK    5  A    between atoms: S_11  and  C_14
REMARK                            x       y       z     vdW  Elec       q    Type
REMARK                         _______ _______ _______ _____ _____    ______ ____
ROOT
ATOM      1  C   UNL     1       0.715   0.094  -1.390  0.00  0.00    +0.065 C 
ATOM      2  C   UNL     1       0.731  -1.361  -1.867  0.00  0.00    +0.019 C 
ATOM      3  C   UNL     1       1.168  -1.409  -3.332  0.00  0.00    +0.003 C 
ATOM      4  C   UNL     1       0.168  -0.631  -4.190  0.00  0.00    +0.017 C 
ATOM      5  C   UNL     1       0.145   0.833  -3.740  0.00  0.00    +0.110 C 
ATOM      6  N   UNL     1      -0.130   0.883  -2.297  0.00  0.00    -0.175 NA
ENDROOT
BRANCH   6   7
ATOM      7  S   UNL     1      -1.371   1.806  -1.705  0.00  0.00    +0.068 S 
ATOM      8  O   UNL     1      -1.177   1.894  -0.300  0.00  0.00    -0.152 OA
ATOM      9  O   UNL     1      -1.454   2.955  -2.536  0.00  0.00    -0.152 OA
BRANCH   7  10
ATOM     10  C   UNL     1      -2.860   0.897  -1.952  0.00  0.00    +0.157 A 
ATOM     11  C   UNL     1      -4.133   1.242  -1.637  0.00  0.00    +0.051 A 
ATOM     12  C   UNL     1      -5.157   0.360  -1.928  0.00  0.00    +0.025 A 
ATOM     13  C   UNL     1      -4.859  -0.823  -2.520  0.00  0.00    +0.048 A 
ATOM     14  S   UNL     1      -3.085  -0.714  -2.690  0.00  0.00    -0.076 S 
ATOM     15 BR   UNL     1      -4.501   2.903  -0.812  0.00  0.00    -0.048 Br
ENDBRANCH   7  10
ENDBRANCH   6   7
BRANCH   1  17
ATOM     16  C   UNL     1       1.034  -0.652   0.973  0.00  0.00    -0.013 C 
ATOM     17  C   UNL     1       0.148   0.163   0.029  0.00  0.00    -0.059 C 
BRANCH  17  18
ATOM     18  N   UNL     1      -1.214  -0.387   0.039  0.00  0.00    +0.381 N 
ATOM     19  H   UNL     1      -1.718  -0.026   0.836  0.00  0.00    -0.090 HD
ATOM     20  H   UNL     1      -1.691  -0.121  -0.809  0.00  0.00    -0.090 HD
ATOM     21  H   UNL     1      -1.170  -1.394   0.098  0.00  0.00    -0.090 HD
ENDBRANCH  17  18
ENDBRANCH   1  17
TORSDOF 4
