REMARK  Name = ZINC05902053
REMARK  8 active torsions:
REMARK  status: ('A' for Active; 'I' for Inactive)
REMARK    1  A    between atoms: C_1  and  C_2
REMARK    2  A    between atoms: C_2  and  C_3
REMARK    3  A    between atoms: C_2  and  C_4
REMARK    4  A    between atoms: C_2  and  C_5
REMARK    5  A    between atoms: C_12  and  N_17
REMARK    6  A    between atoms: C_13  and  C_14
REMARK    7  A    between atoms: C_18  and  C_20
REMARK    8  A    between atoms: C_25  and  N_26
REMARK                            x       y       z     vdW  Elec       q    Type
REMARK                         _______ _______ _______ _____ _____    ______ ____
ROOT
ATOM      1  C   UNL     1      -0.747   1.785   1.298  0.00  0.00    -0.000 C 
ATOM      2  C   UNL     1      -0.772   3.316   1.276  0.00  0.00    +0.009 C 
ATOM      3  C   UNL     1      -1.690   3.838   2.382  0.00  0.00    +0.037 C 
ATOM      4  C   UNL     1      -1.282   3.198   3.703  0.00  0.00    -0.023 A 
ATOM      5  C   UNL     1      -0.528   2.078   3.730  0.00  0.00    -0.004 A 
ATOM      6  S   UNL     1      -0.314   1.718   5.450  0.00  0.00    -0.077 S 
ATOM      7  C   UNL     1      -1.212   3.036   6.126  0.00  0.00    +0.085 A 
ATOM      8  C   UNL     1      -1.657   3.723   5.005  0.00  0.00    +0.068 A 
ATOM      9  C   UNL     1       0.003   1.318   2.554  0.00  0.00    +0.046 C 
ENDROOT
BRANCH   8  10
ATOM     10  C   UNL     1      -2.474   4.934   5.130  0.00  0.00    +0.244 C 
ATOM     11  O   UNL     1      -1.939   6.025   5.197  0.00  0.00    -0.270 OA
ATOM     12  N   UNL     1      -3.818   4.839   5.172  0.00  0.00    -0.325 N 
ATOM     13  H   UNL     1      -4.244   3.969   5.119  0.00  0.00    +0.145 HD
ATOM     14  H   UNL     1      -4.359   5.640   5.255  0.00  0.00    +0.145 HD
ENDBRANCH   8  10
BRANCH   1  16
ATOM     15  C   UNL     1      -0.001  -0.264   0.078  0.00  0.00    +0.011 C 
ATOM     16  C   UNL     1      -0.031   1.266   0.050  0.00  0.00    -0.035 C 
ATOM     17  C   UNL     1       1.401   1.803   0.023  0.00  0.00    +0.011 C 
ATOM     18  C   UNL     1      -0.776   1.739  -1.200  0.00  0.00    +0.011 C 
ENDBRANCH   1  16
BRANCH   7  19
ATOM     19  N   UNL     1      -1.434   3.332   7.462  0.00  0.00    -0.275 N 
ATOM     20  C   UNL     1      -0.917   2.540   8.422  0.00  0.00    +0.251 C 
ATOM     21  O   UNL     1      -0.256   1.567   8.117  0.00  0.00    -0.270 OA
ATOM     22  H   UNL     1      -1.961   4.109   7.705  0.00  0.00    +0.156 HD
BRANCH  20  23
ATOM     23  C   UNL     1      -1.153   2.856   9.846  0.00  0.00    +0.067 A 
ATOM     24  C   UNL     1      -2.457   3.004  10.325  0.00  0.00    +0.015 A 
ATOM     25  C   UNL     1      -2.670   3.294  11.656  0.00  0.00    +0.001 A 
ATOM     26  C   UNL     1      -1.596   3.448  12.515  0.00  0.00    +0.002 A 
ATOM     27  C   UNL     1      -0.302   3.307  12.046  0.00  0.00    +0.033 A 
ATOM     28  C   UNL     1      -0.074   3.012  10.718  0.00  0.00    +0.138 A 
BRANCH  28  29
ATOM     29  N   UNL     1       1.311   2.863  10.218  0.00  0.00    +0.057 N 
ATOM     30  O   UNL     1       2.245   2.882  10.999  0.00  0.00    -0.126 OA
ATOM     31  O   UNL     1       1.516   2.721   9.026  0.00  0.00    -0.126 OA
ENDBRANCH  28  29
ENDBRANCH  20  23
ENDBRANCH   7  19
TORSDOF 5
