REMARK  Name = ZINC02794014
REMARK  11 active torsions:
REMARK  status: ('A' for Active; 'I' for Inactive)
REMARK    1  A    between atoms: C_1  and  C_2
REMARK    2  A    between atoms: C_7  and  N_8
REMARK    3  A    between atoms: N_8  and  C_9
REMARK    4  A    between atoms: C_9  and  N_11
REMARK    5  A    between atoms: N_11  and  N_12
REMARK    6  A    between atoms: C_13  and  C_15
REMARK    7  A    between atoms: C_20  and  C_35
REMARK    8  A    between atoms: C_23  and  C_26
REMARK    9  A    between atoms: C_29  and  C_32
REMARK   10  A    between atoms: C_32  and  C_33
REMARK   11  A    between atoms: C_32  and  C_34
REMARK                            x       y       z     vdW  Elec       q    Type
REMARK                         _______ _______ _______ _____ _____    ______ ____
ROOT
ATOM      1  C   UNL     1      -0.292   3.519   5.922  0.00  0.00    +0.150 A 
ATOM      2  C   UNL     1      -0.385   4.343   7.067  0.00  0.00    +0.078 A 
ATOM      3  C   UNL     1      -0.371   5.624   6.649  0.00  0.00    +0.119 A 
ATOM      4  N   UNL     1      -0.270   5.626   5.287  0.00  0.00    -0.238 N 
ATOM      5  N   UNL     1      -0.219   4.300   4.859  0.00  0.00    -0.164 NA
ATOM      6  C   UNL     1      -0.221   6.846   4.477  0.00  0.00    +0.215 C 
ATOM      7  C   UNL     1       0.182   8.022   5.375  0.00  0.00    +0.063 C 
ATOM      8  C   UNL     1      -0.693   8.041   6.633  0.00  0.00    +0.104 C 
ATOM      9  N   UNL     1      -0.444   6.802   7.397  0.00  0.00    -0.322 N 
ATOM     10  H   UNL     1      -0.336   6.806   8.361  0.00  0.00    +0.148 HD
ENDROOT
BRANCH   8  11
ATOM     11  C   UNL     1      -0.341   9.239   7.476  0.00  0.00    -0.027 A 
ATOM     12  C   UNL     1       0.776   9.208   8.290  0.00  0.00    +0.006 A 
ATOM     13  C   UNL     1       1.099  10.307   9.064  0.00  0.00    +0.004 A 
ATOM     14  C   UNL     1       0.306  11.438   9.022  0.00  0.00    -0.045 A 
ATOM     15  C   UNL     1      -0.810  11.470   8.208  0.00  0.00    +0.004 A 
ATOM     16  C   UNL     1      -1.131  10.373   7.431  0.00  0.00    +0.006 A 
BRANCH  14  17
ATOM     17  C   UNL     1       0.658  12.636   9.866  0.00  0.00    +0.013 C 
ATOM     18  C   UNL     1       0.897  13.846   8.960  0.00  0.00    +0.012 C 
ATOM     19  C   UNL     1      -0.493  12.939  10.827  0.00  0.00    +0.012 C 
ENDBRANCH  14  17
ENDBRANCH   8  11
BRANCH   1  21
ATOM     20  N   UNL     1      -0.173   1.374   4.750  0.00  0.00    -0.230 N 
ATOM     21  C   UNL     1      -0.272   2.042   5.916  0.00  0.00    +0.280 C 
ATOM     22  O   UNL     1      -0.346   1.429   6.963  0.00  0.00    -0.267 OA
ATOM     23  H   UNL     1      -0.115   1.863   3.914  0.00  0.00    +0.173 HD
BRANCH  20  24
ATOM     24  N   UNL     1      -0.155  -0.027   4.744  0.00  0.00    -0.245 N 
ATOM     25  H   UNL     1      -0.214  -0.516   5.580  0.00  0.00    +0.172 HD
BRANCH  24  26
ATOM     26  C   UNL     1      -0.056  -0.695   3.578  0.00  0.00    +0.151 C 
ATOM     27  S   UNL     1      -0.034  -2.406   3.571  0.00  0.00    -0.017 S 
BRANCH  26  28
ATOM     28  N   UNL     1       0.026  -0.015   2.417  0.00  0.00    -0.296 N 
ATOM     29  H   UNL     1       0.076   0.954   2.425  0.00  0.00    +0.154 HD
BRANCH  28  36
ATOM     30  C   UNL     1      -1.703   0.884   0.344  0.00  0.00    +0.045 C 
ATOM     31  C   UNL     1      -0.791  -0.301   0.162  0.00  0.00    -0.029 A 
ATOM     32  C   UNL     1      -0.773  -0.982  -1.040  0.00  0.00    +0.005 A 
ATOM     33  C   UNL     1       0.064  -2.070  -1.207  0.00  0.00    +0.000 A 
ATOM     34  C   UNL     1       0.886  -2.480  -0.172  0.00  0.00    +0.002 A 
ATOM     35  C   UNL     1       0.872  -1.803   1.031  0.00  0.00    +0.023 A 
ATOM     36  C   UNL     1       0.037  -0.706   1.201  0.00  0.00    +0.036 A 
ENDBRANCH  28  36
ENDBRANCH  26  28
ENDBRANCH  24  26
ENDBRANCH  20  24
ENDBRANCH   1  21
BRANCH   6  37
ATOM     37  C   UNL     1       0.807   6.678   3.357  0.00  0.00    +0.412 C 
ATOM     38  F   UNL     1       0.442   5.597   2.548  0.00  0.00    -0.168 F 
ATOM     39  F   UNL     1       0.852   7.844   2.586  0.00  0.00    -0.168 F 
ATOM     40  F   UNL     1       2.068   6.438   3.914  0.00  0.00    -0.168 F 
ENDBRANCH   6  37
TORSDOF 8
