REMARK  Name = ZINC60396972
REMARK  6 active torsions:
REMARK  status: ('A' for Active; 'I' for Inactive)
REMARK    1  A    between atoms: C_1  and  N_2
REMARK    2  A    between atoms: N_2  and  C_3
REMARK    3  A    between atoms: C_9  and  C_11
REMARK    4  A    between atoms: C_14  and  N_18
REMARK    5  A    between atoms: C_19  and  C_21
REMARK    6  A    between atoms: C_21  and  N_22
REMARK                            x       y       z     vdW  Elec       q    Type
REMARK                         _______ _______ _______ _____ _____    ______ ____
ROOT
ATOM      1  C   UNL     1      -0.120  -0.027  -2.495  0.00  0.00    +0.055 A 
ATOM      2  C   UNL     1       0.098   1.354  -2.494  0.00  0.00    +0.016 A 
ATOM      3  C   UNL     1       0.097   2.050  -3.682  0.00  0.00    +0.024 A 
ATOM      4  C   UNL     1      -0.121   1.381  -4.883  0.00  0.00    +0.035 A 
ATOM      5  C   UNL     1      -0.339   0.008  -4.888  0.00  0.00    +0.044 A 
ATOM      6  C   UNL     1      -0.333  -0.697  -3.704  0.00  0.00    +0.055 A 
ATOM      7 CL   UNL     1      -0.596  -2.413  -3.712  0.00  0.00    -0.083 Cl
ENDROOT
BRANCH   1  10
ATOM      8  C   UNL     1      -1.524   0.965  -0.259  0.00  0.00    +0.132 C 
ATOM      9  N   UNL     1      -0.742  -0.268  -0.142  0.00  0.00    -0.297 N 
ATOM     10  C   UNL     1      -0.119  -0.776  -1.224  0.00  0.00    +0.248 C 
ATOM     11  O   UNL     1       0.444  -1.852  -1.153  0.00  0.00    -0.270 OA
BRANCH   9  12
ATOM     12  C   UNL     1      -0.637  -0.950   1.151  0.00  0.00    +0.076 C 
ATOM     13  C   UNL     1      -2.034  -1.351   1.630  0.00  0.00    +0.022 C 
ATOM     14  C   UNL     1      -1.925  -2.063   2.980  0.00  0.00    +0.002 C 
ATOM     15  C   UNL     1      -1.285  -1.121   4.003  0.00  0.00    +0.000 C 
ATOM     16  C   UNL     1       0.112  -0.721   3.523  0.00  0.00    +0.002 C 
ATOM     17  C   UNL     1       0.002  -0.009   2.173  0.00  0.00    +0.022 C 
ENDBRANCH   9  12
ENDBRANCH   1  10
BRANCH   4  18
ATOM     18  N   UNL     1      -0.122   2.091  -6.083  0.00  0.00    -0.284 N 
ATOM     19  C   UNL     1       0.365   1.520  -7.203  0.00  0.00    +0.234 C 
ATOM     20  O   UNL     1       0.734   0.365  -7.184  0.00  0.00    -0.274 OA
ATOM     21  H   UNL     1      -0.474   2.994  -6.112  0.00  0.00    +0.155 HD
BRANCH  19  22
ATOM     22  C   UNL     1       0.450   2.318  -8.479  0.00  0.00    +0.202 C 
BRANCH  22  23
ATOM     23  N   UNL     1       1.009   1.480  -9.543  0.00  0.00    -0.291 N 
ATOM     24  C   UNL     1       1.178   1.986 -10.780  0.00  0.00    +0.297 C 
ATOM     25  O   UNL     1       0.868   3.138 -11.014  0.00  0.00    -0.253 OA
ATOM     26  N   UNL     1       1.692   1.214 -11.759  0.00  0.00    -0.313 N 
ATOM     27  H   UNL     1       1.257   0.561  -9.356  0.00  0.00    +0.151 HD
ATOM     28  H   UNL     1       1.940   0.295 -11.572  0.00  0.00    +0.146 HD
ATOM     29  H   UNL     1       1.815   1.578 -12.649  0.00  0.00    +0.146 HD
ENDBRANCH  22  23
ENDBRANCH  19  22
ENDBRANCH   4  18
TORSDOF 5
