REMARK  Name = ZINC20534233
REMARK  7 active torsions:
REMARK  status: ('A' for Active; 'I' for Inactive)
REMARK    1  A    between atoms: C_6  and  S_11
REMARK    2  A    between atoms: S_11  and  N_14
REMARK    3  A    between atoms: C_17  and  C_20
REMARK    4  A    between atoms: N_22  and  N_23
REMARK    5  A    between atoms: C_24  and  C_25
REMARK    6  A    between atoms: C_28  and  O_32
REMARK    7  A    between atoms: C_29  and  O_31
REMARK                            x       y       z     vdW  Elec       q    Type
REMARK                         _______ _______ _______ _____ _____    ______ ____
ROOT
ATOM      1  N   UNL     1       1.048   8.184   1.616  0.00  0.00    -0.177 NA
ATOM      2  C   UNL     1      -0.212   8.390   2.342  0.00  0.00    +0.110 C 
ATOM      3  C   UNL     1      -0.211   9.790   2.952  0.00  0.00    +0.030 C 
ATOM      4  C   UNL     1       1.045   9.970   3.808  0.00  0.00    +0.079 C 
ATOM      5  C   UNL     1       2.289   9.824   2.929  0.00  0.00    +0.030 C 
ATOM      6  C   UNL     1       2.316   8.419   2.320  0.00  0.00    +0.110 C 
ENDROOT
BRANCH   4   7
ATOM      7  C   UNL     1       1.032  11.341   4.436  0.00  0.00    +0.235 C 
ATOM      8  O   UNL     1       1.930  12.123   4.203  0.00  0.00    -0.274 OA
ATOM      9  N   UNL     1       0.024  11.697   5.256  0.00  0.00    -0.207 N 
ATOM     10  H   UNL     1      -0.790  10.987   5.467  0.00  0.00    +0.177 HD
BRANCH   9  11
ATOM     11  N   UNL     1       0.012  12.970   5.840  0.00  0.00    -0.188 NA
ATOM     12  C   UNL     1      -0.959  13.313   6.630  0.00  0.00    +0.138 C 
BRANCH  12  13
ATOM     13  C   UNL     1      -0.972  14.653   7.244  0.00  0.00    -0.002 A 
ATOM     14  C   UNL     1       0.064  15.553   6.981  0.00  0.00    +0.013 A 
ATOM     15  C   UNL     1       0.048  16.808   7.553  0.00  0.00    +0.050 A 
ATOM     16  C   UNL     1      -0.990  17.177   8.397  0.00  0.00    +0.158 A 
ATOM     17  C   UNL     1      -2.023  16.282   8.668  0.00  0.00    +0.159 A 
ATOM     18  C   UNL     1      -2.016  15.024   8.094  0.00  0.00    +0.058 A 
BRANCH  17  19
ATOM     19  O   UNL     1      -3.038  16.646   9.496  0.00  0.00    -0.503 OA
ATOM     20  H   UNL     1      -3.854  15.940   9.710  0.00  0.00    +0.292 HD
ENDBRANCH  17  19
BRANCH  16  21
ATOM     21  O   UNL     1      -0.998  18.413   8.962  0.00  0.00    -0.503 OA
ATOM     22  H   UNL     1      -1.819  18.706   9.632  0.00  0.00    +0.292 HD
ENDBRANCH  16  21
ENDBRANCH  12  13
ENDBRANCH   9  11
ENDBRANCH   4   7
BRANCH   1  23
ATOM     23  S   UNL     1       1.040   7.702   0.031  0.00  0.00    +0.061 S 
ATOM     24  O   UNL     1       2.275   8.128  -0.529  0.00  0.00    -0.153 OA
ATOM     25  O   UNL     1      -0.216   8.094  -0.506  0.00  0.00    -0.153 OA
BRANCH  23  31
ATOM     26  C   UNL     1      -0.013   1.076   0.008  0.00  0.00    +0.001 A 
ATOM     27  C   UNL     1      -1.235   1.746   0.017  0.00  0.00    +0.001 A 
ATOM     28  C   UNL     1      -1.288   3.106   0.030  0.00  0.00    +0.008 A 
ATOM     29  C   UNL     1      -0.096   3.849   0.023  0.00  0.00    -0.016 A 
ATOM     30  C   UNL     1      -0.111   5.254   0.030  0.00  0.00    +0.037 A 
ATOM     31  C   UNL     1       1.064   5.940   0.022  0.00  0.00    +0.106 A 
ATOM     32  C   UNL     1       2.286   5.270   0.008  0.00  0.00    +0.029 A 
ATOM     33  C   UNL     1       2.340   3.910  -0.000  0.00  0.00    +0.010 A 
ATOM     34  C   UNL     1       1.147   3.167   0.008  0.00  0.00    -0.018 A 
ATOM     35  C   UNL     1       1.163   1.762   0.000  0.00  0.00    +0.008 A 
ENDBRANCH  23  31
ENDBRANCH   1  23
TORSDOF 7
