REMARK  Name = ZINC06281550
REMARK  9 active torsions:
REMARK  status: ('A' for Active; 'I' for Inactive)
REMARK    1  A    between atoms: C_1  and  C_2
REMARK    2  A    between atoms: C_9  and  C_14
REMARK    3  A    between atoms: C_14  and  C_16
REMARK    4  A    between atoms: C_14  and  N_65
REMARK    5  A    between atoms: N_20  and  C_21
REMARK    6  A    between atoms: C_21  and  C_22
REMARK    7  A    between atoms: C_21  and  C_23
REMARK    8  A    between atoms: C_21  and  C_24
REMARK    9  A    between atoms: N_27  and  C_30
REMARK                            x       y       z     vdW  Elec       q    Type
REMARK                         _______ _______ _______ _____ _____    ______ ____
ROOT
ATOM      1  C   UNL     1       0.456   5.382  -0.889  0.00  0.00    +0.039 C 
ENDROOT
BRANCH   1  10
ATOM      2  C   UNL     1      -0.116   7.938  -7.872  0.00  0.00    +0.044 C 
ATOM      3  C   UNL     1      -0.665   7.146  -6.713  0.00  0.00    -0.050 A 
ATOM      4  C   UNL     1      -1.887   6.499  -6.839  0.00  0.00    +0.005 A 
ATOM      5  C   UNL     1      -2.408   5.770  -5.792  0.00  0.00    +0.026 A 
ATOM      6  C   UNL     1      -1.704   5.679  -4.596  0.00  0.00    +0.049 A 
ATOM      7  C   UNL     1      -0.465   6.336  -4.472  0.00  0.00    -0.001 A 
ATOM      8  C   UNL     1       0.044   7.071  -5.548  0.00  0.00    +0.013 A 
ATOM      9  C   UNL     1       0.269   6.234  -3.210  0.00  0.00    +0.017 A 
ATOM     10  C   UNL     1      -0.273   5.507  -2.202  0.00  0.00    +0.011 A 
ATOM     11  C   UNL     1      -1.516   4.863  -2.380  0.00  0.00    +0.251 A 
ATOM     12  O   UNL     1      -1.984   4.210  -1.462  0.00  0.00    -0.268 OA
ATOM     13  N   UNL     1      -2.200   4.955  -3.533  0.00  0.00    -0.322 N 
ATOM     14  H   UNL     1      -3.054   4.503  -3.620  0.00  0.00    +0.169 HD
ENDBRANCH   1  10
BRANCH   1  20
ATOM     15  C   UNL     1       1.351   3.263  -1.647  0.00  0.00    -0.058 C 
ATOM     16  C   UNL     1       1.454   1.774  -1.308  0.00  0.00    +0.086 C 
ATOM     17  N   UNL     1       2.160   1.613  -0.029  0.00  0.00    -0.331 N 
ATOM     18  C   UNL     1       1.450   2.311   1.052  0.00  0.00    +0.086 C 
ATOM     19  C   UNL     1       1.348   3.800   0.713  0.00  0.00    -0.058 C 
ATOM     20  N   UNL     1       0.617   3.949  -0.563  0.00  0.00    +0.391 N 
ATOM     21  H   UNL     1      -0.312   3.522  -0.468  0.00  0.00    -0.080 HD
BRANCH  17  22
ATOM     22  C   UNL     1       2.337   0.260   0.279  0.00  0.00    +0.065 A 
ATOM     23  C   UNL     1       1.233  -0.569   0.431  0.00  0.00    +0.026 A 
ATOM     24  C   UNL     1       1.411  -1.905   0.731  0.00  0.00    +0.002 A 
ATOM     25  C   UNL     1       2.686  -2.417   0.890  0.00  0.00    +0.003 A 
ATOM     26  C   UNL     1       3.788  -1.595   0.744  0.00  0.00    +0.040 A 
ATOM     27  C   UNL     1       3.618  -0.257   0.440  0.00  0.00    +0.144 A 
ATOM     28  F   UNL     1       4.694   0.547   0.298  0.00  0.00    -0.204 F 
ENDBRANCH  17  22
ENDBRANCH   1  20
BRANCH   1  29
ATOM     29  C   UNL     1      -0.350   6.043   0.199  0.00  0.00    +0.143 A 
ATOM     30  N   UNL     1      -1.490   5.626   0.691  0.00  0.00    -0.115 NA
ATOM     31  N   UNL     1      -1.860   6.461   1.601  0.00  0.00    -0.023 NA
ATOM     32  N   UNL     1      -0.984   7.399   1.702  0.00  0.00    -0.043 NA
ATOM     33  N   UNL     1      -0.035   7.175   0.857  0.00  0.00    -0.225 N 
BRANCH  33  34
ATOM     34  C   UNL     1       1.159   7.998   0.651  0.00  0.00    +0.059 C 
ATOM     35  C   UNL     1       1.219   8.453  -0.809  0.00  0.00    +0.036 C 
ATOM     36  C   UNL     1       1.097   9.223   1.565  0.00  0.00    +0.036 C 
ATOM     37  C   UNL     1       2.408   7.177   0.982  0.00  0.00    +0.036 C 
ENDBRANCH  33  34
ENDBRANCH   1  29
TORSDOF 5
