REMARK  Name = ZINC42422770
REMARK  4 active torsions:
REMARK  status: ('A' for Active; 'I' for Inactive)
REMARK    1  A    between atoms: C_1  and  C_2
REMARK    2  A    between atoms: C_2  and  O_3
REMARK    3  A    between atoms: O_3  and  C_4
REMARK    4  A    between atoms: N_9  and  C_11
REMARK                            x       y       z     vdW  Elec       q    Type
REMARK                         _______ _______ _______ _____ _____    ______ ____
ROOT
ATOM      1  C   UNL     1       0.813  -4.229   4.208  0.00  0.00    +0.078 C 
ATOM      2  C   UNL     1       0.908  -5.754   4.265  0.00  0.00    +0.057 C 
ATOM      3  C   UNL     1       0.596  -6.250   5.653  0.00  0.00    -0.025 A 
ATOM      4  C   UNL     1       1.033  -7.510   6.028  0.00  0.00    +0.005 A 
ATOM      5  C   UNL     1       0.761  -7.994   7.293  0.00  0.00    +0.000 A 
ATOM      6  C   UNL     1       0.048  -7.223   8.193  0.00  0.00    +0.002 A 
ATOM      7  C   UNL     1      -0.392  -5.967   7.827  0.00  0.00    +0.023 A 
ATOM      8  C   UNL     1      -0.116  -5.476   6.555  0.00  0.00    +0.030 A 
ATOM      9  N   UNL     1      -0.563  -4.197   6.207  0.00  0.00    -0.342 N 
ATOM     10  C   UNL     1      -0.535  -3.792   4.795  0.00  0.00    +0.120 C 
ATOM     11  H   UNL     1      -0.885  -3.585   6.888  0.00  0.00    +0.146 HD
ENDROOT
BRANCH   1  16
ATOM     12  C   UNL     1       0.770  -1.902   1.249  0.00  0.00    +0.132 C 
ATOM     13  C   UNL     1       2.041  -2.390   0.549  0.00  0.00    +0.034 C 
ATOM     14  C   UNL     1       2.146  -3.910   0.702  0.00  0.00    +0.018 C 
ATOM     15  C   UNL     1       2.147  -4.270   2.189  0.00  0.00    +0.085 C 
ATOM     16  N   UNL     1       0.911  -3.782   2.813  0.00  0.00    -0.295 NA
ATOM     17  C   UNL     1       0.810  -2.320   2.721  0.00  0.00    +0.116 C 
BRANCH  12  18
ATOM     18  O   UNL     1       0.693  -0.477   1.160  0.00  0.00    -0.376 OA
BRANCH  18  20
ATOM     19  C   UNL     1      -0.019   1.526   0.010  0.00  0.00    +0.034 C 
ATOM     20  C   UNL     1       0.002  -0.004   0.002  0.00  0.00    +0.157 C 
ENDBRANCH  18  20
ENDBRANCH  12  18
ENDBRANCH   1  16
TORSDOF 3
