REMARK  Name = ZINC67310877
REMARK  7 active torsions:
REMARK  status: ('A' for Active; 'I' for Inactive)
REMARK    1  A    between atoms: C_1  and  C_2
REMARK    2  A    between atoms: C_5  and  N_11
REMARK    3  A    between atoms: C_7  and  C_8
REMARK    4  A    between atoms: N_14  and  C_15
REMARK    5  A    between atoms: C_15  and  C_16
REMARK    6  A    between atoms: C_20  and  C_22
REMARK    7  A    between atoms: C_22  and  N_23
REMARK                            x       y       z     vdW  Elec       q    Type
REMARK                         _______ _______ _______ _____ _____    ______ ____
ROOT
ATOM      1  N   UNL     1       0.167  -4.358   0.201  0.00  0.00    -0.269 N 
ATOM      2  C   UNL     1       0.250  -5.164  -0.876  0.00  0.00    +0.304 C 
ATOM      3  O   UNL     1       0.184  -4.691  -1.995  0.00  0.00    -0.252 OA
ATOM      4  N   UNL     1       0.407  -6.492  -0.714  0.00  0.00    -0.295 N 
ATOM      5  H   UNL     1       0.147  -4.741   1.093  0.00  0.00    +0.156 HD
ATOM      6  H   UNL     1       0.460  -6.869   0.178  0.00  0.00    +0.151 HD
ENDROOT
BRANCH   1  11
ATOM      7  C   UNL     1      -0.048   1.283  -0.452  0.00  0.00    +0.044 C 
ATOM      8  C   UNL     1       0.007  -0.213  -0.281  0.00  0.00    -0.038 A 
ATOM      9  C   UNL     1       0.676  -0.761   0.794  0.00  0.00    +0.006 A 
ATOM     10  C   UNL     1       0.730  -2.133   0.955  0.00  0.00    +0.023 A 
ATOM     11  C   UNL     1       0.110  -2.970   0.035  0.00  0.00    +0.035 A 
ATOM     12  C   UNL     1      -0.565  -2.429  -1.049  0.00  0.00    +0.036 A 
ATOM     13  C   UNL     1      -0.623  -1.045  -1.208  0.00  0.00    +0.041 A 
BRANCH  13  14
ATOM     14  C   UNL     1      -1.346  -0.460  -2.358  0.00  0.00    +0.242 C 
ATOM     15  O   UNL     1      -1.338   0.743  -2.533  0.00  0.00    -0.270 OA
ATOM     16  N   UNL     1      -2.013  -1.261  -3.212  0.00  0.00    -0.325 N 
ATOM     17  H   UNL     1      -2.020  -2.221  -3.072  0.00  0.00    +0.145 HD
ATOM     18  H   UNL     1      -2.488  -0.877  -3.966  0.00  0.00    +0.145 HD
ENDBRANCH  13  14
ENDBRANCH   1  11
BRANCH   4  19
ATOM     19  C   UNL     1       0.497  -7.368  -1.885  0.00  0.00    +0.141 C 
BRANCH  19  20
ATOM     20  C   UNL     1       0.669  -8.795  -1.433  0.00  0.00    -0.030 A 
ATOM     21  C   UNL     1       1.936  -9.309  -1.233  0.00  0.00    +0.005 A 
ATOM     22  C   UNL     1       2.093 -10.619  -0.819  0.00  0.00    +0.001 A 
ATOM     23  C   UNL     1       0.983 -11.414  -0.604  0.00  0.00    +0.005 A 
ATOM     24  C   UNL     1      -0.284 -10.899  -0.804  0.00  0.00    -0.026 A 
ATOM     25  C   UNL     1      -0.442  -9.589  -1.214  0.00  0.00    +0.010 A 
BRANCH  24  26
ATOM     26  C   UNL     1      -1.495 -11.766  -0.571  0.00  0.00    +0.180 C 
BRANCH  26  27
ATOM     27  N   UNL     1      -1.928 -11.636   0.823  0.00  0.00    -0.248 N 
ATOM     28  C   UNL     1      -3.153 -11.294   1.257  0.00  0.00    +0.219 A 
ATOM     29  N   UNL     1      -3.134 -11.290   2.565  0.00  0.00    -0.223 NA
ATOM     30  C   UNL     1      -1.919 -11.623   3.000  0.00  0.00    +0.245 A 
ATOM     31  N   UNL     1      -1.147 -11.850   1.970  0.00  0.00    -0.158 NA
ENDBRANCH  26  27
ENDBRANCH  24  26
ENDBRANCH  19  20
ENDBRANCH   4  19
TORSDOF 6
