REMARK  Name = ZINC35363835
REMARK  6 active torsions:
REMARK  status: ('A' for Active; 'I' for Inactive)
REMARK    1  A    between atoms: C_1  and  C_2
REMARK    2  A    between atoms: C_2  and  O_4
REMARK    3  A    between atoms: O_4  and  C_5
REMARK    4  A    between atoms: C_8  and  N_11
REMARK    5  A    between atoms: CA_16  and  C_33
REMARK    6  A    between atoms: C_33  and  O_34
REMARK                            x       y       z     vdW  Elec       q    Type
REMARK                         _______ _______ _______ _____ _____    ______ ____
ROOT
ATOM      1  N   UNL     1      -0.567  -6.182  -0.306  0.00  0.00    -0.210 N 
ATOM      2  C   UNL     1       0.620  -6.791  -0.196  0.00  0.00    +0.232 C 
ATOM      3  O   UNL     1       1.680  -6.232  -0.015  0.00  0.00    -0.274 OA
ATOM      4  C   UNL     1       0.432  -8.285  -0.331  0.00  0.00    +0.109 C 
ATOM      5  CA  UNL     1       0.743  -8.963   1.020  0.00  0.00    +0.093 C 
ATOM      6  N   UNL     1      -0.539  -8.919   1.773  0.00  0.00    -0.293 NA
ATOM      7  C   UNL     1      -1.568  -9.179   0.749  0.00  0.00    +0.136 C 
ATOM      8  C   UNL     1      -1.102  -8.438  -0.529  0.00  0.00    +0.123 C 
ATOM      9  C   UNL     1      -1.601  -7.010  -0.494  0.00  0.00    +0.233 C 
ATOM     10  O   UNL     1      -2.757  -6.669  -0.618  0.00  0.00    -0.274 OA
ATOM     11  C   UNL     1      -1.736 -10.650   0.496  0.00  0.00    +0.003 A 
ATOM     12  C   UNL     1      -0.880 -11.643   0.074  0.00  0.00    +0.008 A 
ATOM     13  C   UNL     1      -1.341 -12.940  -0.067  0.00  0.00    +0.000 A 
ATOM     14  C   UNL     1      -2.661 -13.236   0.216  0.00  0.00    +0.002 A 
ATOM     15  C   UNL     1      -3.522 -12.245   0.639  0.00  0.00    +0.023 A 
ATOM     16  C   UNL     1      -3.067 -10.936   0.784  0.00  0.00    +0.039 A 
ATOM     17  N   UNL     1      -3.733  -9.778   1.191  0.00  0.00    -0.283 N 
ATOM     18  C   UNL     1      -2.922  -8.702   1.198  0.00  0.00    +0.243 C 
ATOM     19  O   UNL     1      -3.226  -7.569   1.507  0.00  0.00    -0.273 OA
ATOM     20  H   UNL     1      -0.559  -9.625   2.493  0.00  0.00    +0.124 HD
ATOM     21  H   UNL     1      -4.670  -9.752   1.439  0.00  0.00    +0.155 HD
ENDROOT
BRANCH   1  25
ATOM     22  C   UNL     1      -1.006  -2.041  -0.066  0.00  0.00    +0.132 A 
ATOM     23  C   UNL     1      -1.525  -2.852   0.932  0.00  0.00    +0.048 A 
ATOM     24  C   UNL     1      -1.380  -4.223   0.854  0.00  0.00    +0.027 A 
ATOM     25  C   UNL     1      -0.715  -4.789  -0.226  0.00  0.00    +0.044 A 
ATOM     26  C   UNL     1      -0.196  -3.977  -1.225  0.00  0.00    +0.027 A 
ATOM     27  C   UNL     1      -0.346  -2.607  -1.147  0.00  0.00    +0.048 A 
BRANCH  22  28
ATOM     28  O   UNL     1      -1.150  -0.691   0.012  0.00  0.00    -0.426 OA
BRANCH  28  30
ATOM     29  C   UNL     1      -0.393   1.486   0.898  0.00  0.00    +0.136 C 
ATOM     30  C   UNL     1      -0.350  -0.020   0.857  0.00  0.00    +0.309 C 
ATOM     31  O   UNL     1       0.403  -0.624   1.583  0.00  0.00    -0.251 OA
ENDBRANCH  28  30
ENDBRANCH  22  28
ENDBRANCH   1  25
BRANCH   5  32
ATOM     32  C   UNL     1       1.829  -8.187   1.768  0.00  0.00    +0.175 C 
BRANCH  32  33
ATOM     33  O   UNL     1       2.184  -8.892   2.958  0.00  0.00    -0.393 OA
ATOM     34  H   UNL     1       2.869  -8.457   3.484  0.00  0.00    +0.209 HD
ENDBRANCH  32  33
ENDBRANCH   5  32
TORSDOF 5
