REMARK  Name = ZINC33372916
REMARK  3 active torsions:
REMARK  status: ('A' for Active; 'I' for Inactive)
REMARK    1  A    between atoms: C_1  and  C_2
REMARK    2  A    between atoms: C_6  and  C_33
REMARK    3  A    between atoms: C_7  and  N_8
REMARK                            x       y       z     vdW  Elec       q    Type
REMARK                         _______ _______ _______ _____ _____    ______ ____
ROOT
ATOM      1  N   UNL     1       0.025  -0.013   2.419  0.00  0.00    -0.209 N 
ATOM      2  C   UNL     1       1.163   0.381   3.063  0.00  0.00    +0.232 C 
ATOM      3  O   UNL     1       2.279   0.460   2.595  0.00  0.00    -0.274 OA
ATOM      4  C   UNL     1       0.745   0.697   4.475  0.00  0.00    +0.107 C 
ATOM      5  C   UNL     1       1.308   1.939   5.163  0.00  0.00    +0.071 C 
ATOM      6  C   UNL     1       1.637   3.039   4.137  0.00  0.00    +0.021 C 
ATOM      7  C   UNL     1       1.383   4.328   4.963  0.00  0.00    +0.017 C 
ATOM      8  C   UNL     1       0.178   3.943   5.848  0.00  0.00    +0.086 C 
ATOM      9  N   UNL     1       0.152   2.462   5.961  0.00  0.00    -0.281 NA
ATOM     10  C   UNL     1      -1.100   1.936   5.342  0.00  0.00    +0.138 C 
ATOM     11  C   UNL     1      -0.671   1.290   4.089  0.00  0.00    +0.123 C 
ATOM     12  C   UNL     1      -1.117   0.347   3.091  0.00  0.00    +0.233 C 
ATOM     13  O   UNL     1      -2.248  -0.042   2.892  0.00  0.00    -0.274 OA
ATOM     14  C   UNL     1      -1.771   0.984   6.298  0.00  0.00    +0.004 A 
ATOM     15  C   UNL     1      -1.392  -0.218   6.854  0.00  0.00    +0.008 A 
ATOM     16  C   UNL     1      -2.244  -0.879   7.721  0.00  0.00    +0.000 A 
ATOM     17  C   UNL     1      -3.475  -0.329   8.029  0.00  0.00    +0.002 A 
ATOM     18  C   UNL     1      -3.857   0.875   7.476  0.00  0.00    +0.023 A 
ATOM     19  C   UNL     1      -3.006   1.547   6.601  0.00  0.00    +0.039 A 
ATOM     20  N   UNL     1      -3.162   2.759   5.926  0.00  0.00    -0.283 N 
ATOM     21  C   UNL     1      -2.092   3.060   5.169  0.00  0.00    +0.243 C 
ATOM     22  O   UNL     1      -1.950   4.048   4.480  0.00  0.00    -0.273 OA
ATOM     23  H   UNL     1      -3.951   3.318   5.995  0.00  0.00    +0.155 HD
ENDROOT
BRANCH   1  30
ATOM     24  C   UNL     1      -0.018   1.503   0.010  0.00  0.00    +0.046 C 
ATOM     25  C   UNL     1       0.002  -0.004   0.002  0.00  0.00    -0.028 A 
ATOM     26  C   UNL     1       0.006  -0.689  -1.198  0.00  0.00    +0.005 A 
ATOM     27  C   UNL     1       0.025  -2.071  -1.206  0.00  0.00    +0.001 A 
ATOM     28  C   UNL     1       0.040  -2.773  -0.014  0.00  0.00    +0.005 A 
ATOM     29  C   UNL     1       0.037  -2.093   1.188  0.00  0.00    -0.028 A 
ATOM     30  C   UNL     1       0.023  -0.705   1.200  0.00  0.00    +0.050 A 
ATOM     31  C   UNL     1       0.054  -2.858   2.487  0.00  0.00    +0.046 C 
ENDBRANCH   1  30
TORSDOF 1
