REMARK  Name = ZINC64480193
REMARK  3 active torsions:
REMARK  status: ('A' for Active; 'I' for Inactive)
REMARK    1  A    between atoms: C_1  and  C_2
REMARK    2  A    between atoms: C_2  and  C_3
REMARK    3  A    between atoms: C_2  and  C_4
REMARK                            x       y       z     vdW  Elec       q    Type
REMARK                         _______ _______ _______ _____ _____    ______ ____
ROOT
ATOM      1  C   UNL     1       0.742  -0.511   1.242  0.00  0.00    +0.126 C 
ATOM      2  C   UNL     1       0.754  -2.042   1.234  0.00  0.00    +0.068 C 
ATOM      3  C   UNL     1       1.683  -2.514   2.351  0.00  0.00    -0.024 A 
ATOM      4  C   UNL     1       2.580  -1.635   2.879  0.00  0.00    +0.021 A 
ATOM      5  S   UNL     1       3.427  -2.578   4.117  0.00  0.00    -0.073 S 
ATOM      6  C   UNL     1       2.555  -4.097   3.888  0.00  0.00    +0.097 A 
ATOM      7  C   UNL     1       1.671  -3.814   2.865  0.00  0.00    +0.031 A 
ATOM      8  C   UNL     1       0.773  -4.940   2.359  0.00  0.00    +0.252 C 
ATOM      9  N   UNL     1      -0.570  -4.449   2.048  0.00  0.00    -0.191 NA
ATOM     10  N   UNL     1      -1.381  -5.080   2.740  0.00  0.00    -0.220 N 
ATOM     11  C   UNL     1      -0.789  -5.985   3.576  0.00  0.00    +0.161 C 
ATOM     12  S   UNL     1      -1.617  -7.137   4.534  0.00  0.00    -0.017 S 
ATOM     13  N   UNL     1       0.545  -5.838   3.525  0.00  0.00    -0.221 N 
ATOM     14  C   UNL     1       1.588  -6.239   4.342  0.00  0.00    +0.231 A 
ATOM     15  H   UNL     1       3.528  -7.756   6.235  0.00  0.00    +0.191 HD
ATOM     16  N   UNL     1       2.640  -5.318   4.529  0.00  0.00    -0.253 N 
ATOM     17  C   UNL     1       3.534  -5.880   5.337  0.00  0.00    +0.182 A 
ATOM     18  S   UNL     1       4.995  -5.168   5.875  0.00  0.00    -0.011 S 
ATOM     19  N   UNL     1       3.083  -7.115   5.659  0.00  0.00    -0.252 N 
ATOM     20  N   UNL     1       1.851  -7.299   5.007  0.00  0.00    -0.136 NA
ATOM     21  C   UNL     1       2.774  -0.210   2.476  0.00  0.00    +0.203 C 
ATOM     22  O   UNL     1       2.081  -0.008   1.232  0.00  0.00    -0.371 OA
ATOM     23  H   UNL     1      -2.340  -4.946   2.693  0.00  0.00    +0.176 HD
ENDROOT
BRANCH   1  25
ATOM     24  C   UNL     1      -0.019   1.526   0.010  0.00  0.00    +0.010 C 
ATOM     25  C   UNL     1       0.002  -0.004   0.002  0.00  0.00    +0.012 C 
ATOM     26  C   UNL     1       0.718  -0.497  -1.257  0.00  0.00    +0.010 C 
ENDBRANCH   1  25
TORSDOF 1
