REMARK  Name = ZINC19851604
REMARK  4 active torsions:
REMARK  status: ('A' for Active; 'I' for Inactive)
REMARK    1  A    between atoms: C_4  and  N_23
REMARK    2  A    between atoms: C_6  and  C_7
REMARK    3  A    between atoms: N_8  and  C_9
REMARK    4  A    between atoms: C_11  and  C_20
REMARK                            x       y       z     vdW  Elec       q    Type
REMARK                         _______ _______ _______ _____ _____    ______ ____
ROOT
ATOM      1  C   UNL     1       2.095   1.341  -1.014  0.00  0.00    +0.157 C 
ATOM      2  C   UNL     1       3.385   1.474  -0.170  0.00  0.00    +0.134 C 
ATOM      3  C   UNL     1       4.612   1.552  -1.044  0.00  0.00    -0.046 C 
ATOM      4  C   UNL     1       4.441   1.905  -2.312  0.00  0.00    -0.012 C 
ATOM      5  S   UNL     1       2.696   2.127  -2.568  0.00  0.00    -0.104 S 
ATOM      6  C   UNL     1       5.510   2.071  -3.356  0.00  0.00    +0.042 C 
ATOM      7  C   UNL     1       6.875   2.123  -2.661  0.00  0.00    +0.005 C 
ATOM      8  C   UNL     1       6.953   0.968  -1.657  0.00  0.00    +0.005 C 
ATOM      9  C   UNL     1       6.002   1.241  -0.493  0.00  0.00    +0.032 C 
ENDROOT
BRANCH   2  10
ATOM     10  C   UNL     1       3.299   2.721   0.671  0.00  0.00    +0.220 C 
ATOM     11  O   UNL     1       4.111   3.610   0.523  0.00  0.00    -0.275 OA
ATOM     12  N   UNL     1       2.318   2.850   1.587  0.00  0.00    -0.329 N 
ATOM     13  H   UNL     1       2.255   3.761   2.200  0.00  0.00    +0.145 HD
ATOM     14  H   UNL     1       1.582   2.044   1.721  0.00  0.00    +0.145 HD
ENDBRANCH   2  10
BRANCH   1  16
ATOM     15  C   UNL     1      -0.125   1.497  -0.139  0.00  0.00    +0.087 C 
ATOM     16  N   UNL     1       0.986   2.096  -0.424  0.00  0.00    -0.377 N 
ATOM     17  H   UNL     1       1.099   3.171  -0.223  0.00  0.00    +0.160 HD
BRANCH  15  23
ATOM     18  C   UNL     1       1.045  -0.663   0.261  0.00  0.00    +0.013 A 
ATOM     19  C   UNL     1       1.020  -2.029   0.437  0.00  0.00    +0.054 A 
ATOM     20  C   UNL     1      -0.189  -2.713   0.403  0.00  0.00    +0.209 A 
ATOM     21  C   UNL     1      -1.377  -2.024   0.192  0.00  0.00    +0.173 A 
ATOM     22  C   UNL     1      -1.361  -0.657   0.022  0.00  0.00    +0.046 A 
ATOM     23  C   UNL     1      -0.147   0.035   0.049  0.00  0.00    -0.007 A 
ATOM     24  O   UNL     1      -0.209  -4.060   0.576  0.00  0.00    -0.285 OA
BRANCH  21  25
ATOM     25  N   UNL     1      -2.662  -2.758   0.156  0.00  0.00    +0.060 N 
ATOM     26  O   UNL     1      -3.703  -2.155  -0.029  0.00  0.00    -0.126 OA
ATOM     27  O   UNL     1      -2.677  -3.966   0.312  0.00  0.00    -0.126 OA
ENDBRANCH  21  25
ENDBRANCH  15  23
ENDBRANCH   1  16
TORSDOF 4
