REMARK  Name = ZINC62203303
REMARK  3 active torsions:
REMARK  status: ('A' for Active; 'I' for Inactive)
REMARK    1  A    between atoms: C_1  and  C_2
REMARK    2  A    between atoms: C_4  and  N_17
REMARK    3  A    between atoms: N_11  and  C_16
REMARK                            x       y       z     vdW  Elec       q    Type
REMARK                         _______ _______ _______ _____ _____    ______ ____
ROOT
ATOM      1  C   UNL     1       1.266   1.153  -0.495  0.00  0.00    +0.065 C 
ATOM      2  C   UNL     1       0.580  -0.161  -0.225  0.00  0.00    +0.033 A 
ATOM      3  C   UNL     1      -0.514  -0.672  -0.931  0.00  0.00    +0.065 A 
ATOM      4  C   UNL     1      -0.838  -1.876  -0.386  0.00  0.00    +0.120 A 
ATOM      5  N   UNL     1       0.033  -2.109   0.636  0.00  0.00    -0.222 N 
ATOM      6  N   UNL     1       0.910  -1.019   0.706  0.00  0.00    -0.295 N 
ATOM      7  C   UNL     1       0.051  -3.230   1.459  0.00  0.00    +0.168 A 
ATOM      8  C   UNL     1       0.155  -3.097   2.855  0.00  0.00    +0.083 A 
ATOM      9  C   UNL     1       0.257  -2.005   3.744  0.00  0.00    +0.148 A 
ATOM     10  N   UNL     1       0.326  -2.468   4.960  0.00  0.00    -0.177 NA
ATOM     11  N   UNL     1       0.274  -3.867   4.937  0.00  0.00    -0.249 N 
ATOM     12  C   UNL     1       0.168  -4.269   3.638  0.00  0.00    +0.163 A 
ATOM     13  N   UNL     1       0.082  -5.450   3.029  0.00  0.00    -0.216 NA
ATOM     14  C   UNL     1      -0.013  -5.522   1.719  0.00  0.00    +0.226 A 
ATOM     15  N   UNL     1      -0.034  -4.451   0.946  0.00  0.00    -0.216 NA
ATOM     16  C   UNL     1       0.326  -4.747   6.107  0.00  0.00    +0.174 C 
ATOM     17  H   UNL     1       1.638  -0.917   1.339  0.00  0.00    +0.187 HD
ENDROOT
BRANCH   4  18
ATOM     18  N   UNL     1      -1.869  -2.714  -0.796  0.00  0.00    -0.343 N 
ATOM     19  H   UNL     1      -2.438  -2.457  -1.538  0.00  0.00    +0.144 HD
ATOM     20  H   UNL     1      -2.020  -3.557  -0.339  0.00  0.00    +0.144 HD
ENDBRANCH   4  18
TORSDOF 1
