REMARK  Name = ZINC58246850
REMARK  6 active torsions:
REMARK  status: ('A' for Active; 'I' for Inactive)
REMARK    1  A    between atoms: C_1  and  C_2
REMARK    2  A    between atoms: C_2  and  C_3
REMARK    3  A    between atoms: C_2  and  N_13
REMARK    4  A    between atoms: C_6  and  N_9
REMARK    5  A    between atoms: C_14  and  C_16
REMARK    6  A    between atoms: C_18  and  C_21
REMARK                            x       y       z     vdW  Elec       q    Type
REMARK                         _______ _______ _______ _____ _____    ______ ____
ROOT
ATOM      1  C   UNL     1      -0.027   1.534   0.214  0.00  0.00    +0.033 C 
ATOM      2  C   UNL     1      -0.007   0.020  -0.005  0.00  0.00    +0.100 C 
ENDROOT
BRANCH   2   3
ATOM      3  C   UNL     1      -1.419  -0.508   0.008  0.00  0.00    -0.027 A 
ATOM      4  C   UNL     1      -2.208  -0.394  -1.122  0.00  0.00    +0.007 A 
ATOM      5  C   UNL     1      -3.502  -0.877  -1.114  0.00  0.00    +0.023 A 
ATOM      6  C   UNL     1      -4.010  -1.477   0.031  0.00  0.00    +0.035 A 
ATOM      7  C   UNL     1      -3.215  -1.590   1.164  0.00  0.00    +0.023 A 
ATOM      8  C   UNL     1      -1.920  -1.110   1.147  0.00  0.00    +0.007 A 
BRANCH   6   9
ATOM      9  N   UNL     1      -5.321  -1.967   0.042  0.00  0.00    -0.270 N 
ATOM     10  C   UNL     1      -5.857  -2.483  -1.081  0.00  0.00    +0.301 C 
ATOM     11  O   UNL     1      -5.173  -2.611  -2.078  0.00  0.00    -0.253 OA
ATOM     12  N   UNL     1      -7.152  -2.856  -1.100  0.00  0.00    -0.313 N 
ATOM     13  H   UNL     1      -5.843  -1.936   0.859  0.00  0.00    +0.156 HD
ATOM     14  H   UNL     1      -7.698  -2.753  -0.304  0.00  0.00    +0.146 HD
ATOM     15  H   UNL     1      -7.539  -3.227  -1.909  0.00  0.00    +0.146 HD
ENDBRANCH   6   9
ENDBRANCH   2   3
BRANCH   2  16
ATOM     16  N   UNL     1       0.615  -0.278  -1.297  0.00  0.00    -0.303 N 
ATOM     17  C   UNL     1       1.955  -0.376  -1.394  0.00  0.00    +0.266 C 
ATOM     18  O   UNL     1       2.648  -0.217  -0.409  0.00  0.00    -0.268 OA
ATOM     19  H   UNL     1       0.061  -0.404  -2.084  0.00  0.00    +0.150 HD
BRANCH  17  20
ATOM     20  C   UNL     1       2.585  -0.678  -2.703  0.00  0.00    +0.168 A 
ATOM     21  C   UNL     1       3.966  -0.814  -2.945  0.00  0.00    +0.086 A 
ATOM     22  C   UNL     1       4.134  -1.090  -4.271  0.00  0.00    +0.175 A 
ATOM     23  O   UNL     1       2.915  -1.127  -4.842  0.00  0.00    -0.353 OA
ATOM     24  N   UNL     1       1.951  -0.871  -3.837  0.00  0.00    -0.073 NA
BRANCH  22  25
ATOM     25  C   UNL     1       5.417  -1.308  -4.954  0.00  0.00    +0.059 A 
ATOM     26  C   UNL     1       5.658  -1.584  -6.287  0.00  0.00    +0.021 A 
ATOM     27  C   UNL     1       6.961  -1.750  -6.696  0.00  0.00    +0.028 A 
ATOM     28  C   UNL     1       7.963  -1.637  -5.783  0.00  0.00    +0.079 A 
ATOM     29  S   UNL     1       7.070  -1.277  -4.280  0.00  0.00    -0.074 S 
ATOM     30 CL   UNL     1       9.676  -1.796  -6.020  0.00  0.00    -0.076 Cl
ENDBRANCH  22  25
ENDBRANCH  17  20
ENDBRANCH   2  16
TORSDOF 5
