REMARK  Name = ZINC01159017
REMARK  8 active torsions:
REMARK  status: ('A' for Active; 'I' for Inactive)
REMARK    1  A    between atoms: C_1  and  C_2
REMARK    2  A    between atoms: C_3  and  C_17
REMARK    3  A    between atoms: C_4  and  C_10
REMARK    4  A    between atoms: N_19  and  C_20
REMARK    5  A    between atoms: C_23  and  O_28
REMARK    6  A    between atoms: C_25  and  O_26
REMARK    7  A    between atoms: O_26  and  C_27
REMARK    8  A    between atoms: O_28  and  C_29
REMARK                            x       y       z     vdW  Elec       q    Type
REMARK                         _______ _______ _______ _____ _____    ______ ____
ROOT
ATOM      1  C   UNL     1       0.079   1.142   0.323  0.00  0.00    +0.061 C 
ATOM      2  C   UNL     1       0.025  -0.330   0.005  0.00  0.00    +0.019 C 
ATOM      3  C   UNL     1      -1.169  -0.956  -0.044  0.00  0.00    +0.056 C 
ATOM      4  C   UNL     1      -1.178  -2.436  -0.367  0.00  0.00    +0.142 C 
ATOM      5  N   UNL     1       0.127  -3.075  -0.605  0.00  0.00    -0.288 N 
ATOM      6  C   UNL     1       1.238  -2.316  -0.521  0.00  0.00    +0.304 C 
ATOM      7  O   UNL     1       2.320  -2.835  -0.715  0.00  0.00    -0.252 OA
ATOM      8  N   UNL     1       1.187  -1.009  -0.236  0.00  0.00    -0.273 N 
ATOM      9  H   UNL     1       0.186  -4.020  -0.816  0.00  0.00    +0.151 HD
ATOM     10  H   UNL     1       2.022  -0.517  -0.193  0.00  0.00    +0.156 HD
ENDROOT
BRANCH   4  11
ATOM     11  C   UNL     1      -2.024  -2.637  -1.599  0.00  0.00    -0.022 A 
ATOM     12  C   UNL     1      -1.449  -2.550  -2.853  0.00  0.00    +0.007 A 
ATOM     13  C   UNL     1      -2.224  -2.734  -3.983  0.00  0.00    +0.020 A 
ATOM     14  C   UNL     1      -3.575  -3.005  -3.858  0.00  0.00    +0.041 A 
ATOM     15  C   UNL     1      -4.149  -3.092  -2.603  0.00  0.00    +0.020 A 
ATOM     16  C   UNL     1      -3.372  -2.913  -1.474  0.00  0.00    +0.007 A 
ATOM     17 CL   UNL     1      -4.548  -3.236  -5.277  0.00  0.00    -0.084 Cl
ENDBRANCH   4  11
BRANCH   3  18
ATOM     18  C   UNL     1      -2.374  -0.252   0.201  0.00  0.00    +0.248 C 
ATOM     19  O   UNL     1      -2.966  -0.405   1.254  0.00  0.00    -0.270 OA
ATOM     20  N   UNL     1      -2.866   0.587  -0.733  0.00  0.00    -0.279 N 
ATOM     21  H   UNL     1      -2.415   0.681  -1.586  0.00  0.00    +0.155 HD
BRANCH  20  22
ATOM     22  C   UNL     1      -4.030   1.323  -0.470  0.00  0.00    +0.076 A 
ATOM     23  C   UNL     1      -4.596   1.300   0.796  0.00  0.00    +0.030 A 
ATOM     24  C   UNL     1      -5.744   2.025   1.055  0.00  0.00    +0.047 A 
ATOM     25  C   UNL     1      -6.332   2.778   0.049  0.00  0.00    +0.124 A 
ATOM     26  C   UNL     1      -5.771   2.804  -1.219  0.00  0.00    +0.093 A 
ATOM     27  C   UNL     1      -4.617   2.083  -1.479  0.00  0.00    +0.145 A 
BRANCH  27  28
ATOM     28  O   UNL     1      -4.062   2.112  -2.720  0.00  0.00    -0.493 OA
ATOM     29  C   UNL     1      -4.717   2.913  -3.706  0.00  0.00    +0.277 C 
ENDBRANCH  27  28
BRANCH  25  30
ATOM     30  O   UNL     1      -7.461   3.490   0.307  0.00  0.00    -0.495 OA
ATOM     31  C   UNL     1      -7.986   3.417   1.634  0.00  0.00    +0.277 C 
ENDBRANCH  25  30
ENDBRANCH  20  22
ENDBRANCH   3  18
TORSDOF 5
