REMARK  Name = ZINC32608118
REMARK  2 active torsions:
REMARK  status: ('A' for Active; 'I' for Inactive)
REMARK    1  A    between atoms: C_4  and  C_7
REMARK    2  A    between atoms: C_13  and  C_15
REMARK                            x       y       z     vdW  Elec       q    Type
REMARK                         _______ _______ _______ _____ _____    ______ ____
ROOT
ATOM      1  C   UNL     1       3.698  -0.691  -0.066  0.00  0.00    +0.080 A 
ATOM      2  C   UNL     1       3.728  -2.058  -0.072  0.00  0.00    +0.076 A 
ATOM      3  S   UNL     1       5.492  -2.351  -0.078  0.00  0.00    -0.060 S 
ATOM      4  C   UNL     1       6.002  -0.638  -0.072  0.00  0.00    +0.165 A 
ATOM      5  N   UNL     1       4.838  -0.016  -0.071  0.00  0.00    -0.225 NA
ATOM      6  N   UNL     1       7.284  -0.103  -0.074  0.00  0.00    -0.261 N 
ATOM      7  C   UNL     1       8.355  -0.921  -0.081  0.00  0.00    +0.255 C 
ATOM      8  O   UNL     1       8.203  -2.124   0.010  0.00  0.00    -0.270 OA
ATOM      9  H   UNL     1       7.408   0.859  -0.070  0.00  0.00    +0.157 HD
ENDROOT
BRANCH   7  10
ATOM     10  C   UNL     1       9.709  -0.358  -0.199  0.00  0.00    +0.100 A 
ATOM     11  C   UNL     1      10.805  -1.187  -0.321  0.00  0.00    +0.100 A 
ATOM     12  N   UNL     1      12.052  -0.710  -0.430  0.00  0.00    -0.360 N 
ATOM     13  C   UNL     1      12.338   0.639  -0.429  0.00  0.00    +0.056 A 
ATOM     14  C   UNL     1      13.651   1.082  -0.546  0.00  0.00    +0.064 A 
ATOM     15  C   UNL     1      13.927   2.435  -0.544  0.00  0.00    +0.128 A 
ATOM     16  C   UNL     1      12.903   3.368  -0.426  0.00  0.00    +0.077 A 
ATOM     17  C   UNL     1      11.594   2.950  -0.310  0.00  0.00    +0.139 A 
ATOM     18  C   UNL     1      11.303   1.583  -0.310  0.00  0.00    +0.081 A 
ATOM     19  C   UNL     1       9.916   1.100  -0.194  0.00  0.00    +0.204 A 
ATOM     20  O   UNL     1       8.980   1.874  -0.093  0.00  0.00    -0.286 OA
ATOM     21  F   UNL     1      10.599   3.857  -0.195  0.00  0.00    -0.205 F 
ATOM     22  F   UNL     1      15.205   2.857  -0.657  0.00  0.00    -0.205 F 
ATOM     23  H   UNL     1      12.785  -1.340  -0.513  0.00  0.00    +0.165 HD
ENDBRANCH   7  10
BRANCH   1  27
ATOM     24  C   UNL     1      -0.018   1.374  -0.049  0.00  0.00    +0.000 A 
ATOM     25  C   UNL     1       1.166   2.088  -0.053  0.00  0.00    +0.001 A 
ATOM     26  C   UNL     1       2.376   1.423  -0.059  0.00  0.00    +0.010 A 
ATOM     27  C   UNL     1       2.402   0.029  -0.059  0.00  0.00    +0.001 A 
ATOM     28  C   UNL     1       1.204  -0.685  -0.054  0.00  0.00    +0.010 A 
ATOM     29  C   UNL     1       0.001  -0.009  -0.050  0.00  0.00    +0.001 A 
ENDBRANCH   1  27
TORSDOF 2
