REMARK  Name = ZINC12376148
REMARK  7 active torsions:
REMARK  status: ('A' for Active; 'I' for Inactive)
REMARK    1  A    between atoms: C_4  and  C_7
REMARK    2  A    between atoms: C_10  and  C_12
REMARK    3  A    between atoms: N_14  and  N_15
REMARK    4  A    between atoms: C_16  and  C_17
REMARK    5  A    between atoms: C_16  and  C_28
REMARK    6  A    between atoms: C_18  and  C_19
REMARK    7  A    between atoms: C_24  and  N_25
REMARK                            x       y       z     vdW  Elec       q    Type
REMARK                         _______ _______ _______ _____ _____    ______ ____
ROOT
ATOM      1  N   UNL     1      -0.697  -1.650   0.901  0.00  0.00    -0.180 NA
ATOM      2  C   UNL     1      -0.944  -2.429   1.988  0.00  0.00    +0.089 C 
ENDROOT
BRANCH   2   3
ATOM      3  C   UNL     1      -0.887  -3.896   1.871  0.00  0.00    +0.002 A 
ATOM      4  C   UNL     1      -1.136  -4.702   2.990  0.00  0.00    +0.010 A 
ATOM      5  C   UNL     1      -1.085  -6.074   2.872  0.00  0.00    +0.001 A 
ATOM      6  C   UNL     1      -0.779  -6.656   1.652  0.00  0.00    +0.000 A 
ATOM      7  C   UNL     1      -0.526  -5.867   0.542  0.00  0.00    +0.001 A 
ATOM      8  C   UNL     1      -0.578  -4.494   0.642  0.00  0.00    +0.010 A 
ENDBRANCH   2   3
BRANCH   1  11
ATOM      9  C   UNL     1      -0.491   0.411  -0.062  0.00  0.00    +0.236 C 
ATOM     10  O   UNL     1      -0.114  -0.090  -1.095  0.00  0.00    -0.274 OA
ATOM     11  N   UNL     1      -0.848  -0.371   0.976  0.00  0.00    -0.206 N 
ATOM     12  H   UNL     1      -1.220   0.027   1.778  0.00  0.00    +0.177 HD
BRANCH   9  15
ATOM     13  C   UNL     1      -0.011   2.746  -1.092  0.00  0.00    +0.032 C 
ATOM     14  C   UNL     1       0.758   2.669   0.229  0.00  0.00    +0.022 C 
ATOM     15  C   UNL     1      -0.561   1.911   0.066  0.00  0.00    +0.085 C 
BRANCH  13  19
ATOM     16  C   UNL     1      -2.006   6.411  -2.003  0.00  0.00    +0.000 A 
ATOM     17  C   UNL     1      -1.917   5.416  -2.959  0.00  0.00    +0.000 A 
ATOM     18  C   UNL     1      -1.272   4.230  -2.664  0.00  0.00    +0.004 A 
ATOM     19  C   UNL     1      -0.715   4.039  -1.413  0.00  0.00    -0.044 A 
ATOM     20  C   UNL     1      -0.807   5.032  -0.456  0.00  0.00    +0.004 A 
ATOM     21  C   UNL     1      -1.449   6.220  -0.752  0.00  0.00    +0.000 A 
ENDBRANCH  13  19
ENDBRANCH   9  15
ENDBRANCH   1  11
BRANCH   2  22
ATOM     22  C   UNL     1      -1.251  -1.839   3.211  0.00  0.00    +0.030 C 
ATOM     23  C   UNL     1      -0.657  -0.622   3.571  0.00  0.00    +0.012 C 
BRANCH  23  24
ATOM     24  C   UNL     1      -0.991  -0.010   4.796  0.00  0.00    +0.005 A 
ATOM     25  C   UNL     1      -2.158  -0.396   5.490  0.00  0.00    +0.010 A 
ATOM     26  C   UNL     1      -2.471   0.205   6.675  0.00  0.00    +0.001 A 
ATOM     27  C   UNL     1      -1.646   1.192   7.199  0.00  0.00    +0.002 A 
ATOM     28  C   UNL     1      -0.496   1.580   6.526  0.00  0.00    +0.033 A 
ATOM     29  C   UNL     1      -0.159   0.991   5.342  0.00  0.00    +0.133 A 
BRANCH  29  30
ATOM     30  N   UNL     1       1.077   1.405   4.628  0.00  0.00    +0.057 N 
ATOM     31  O   UNL     1       1.880   2.300   5.165  0.00  0.00    -0.126 OA
ATOM     32  O   UNL     1       1.370   0.876   3.457  0.00  0.00    -0.126 OA
ENDBRANCH  29  30
ENDBRANCH  23  24
ENDBRANCH   2  22
TORSDOF 7
