REMARK  Name = ZINC35378796
REMARK  8 active torsions:
REMARK  status: ('A' for Active; 'I' for Inactive)
REMARK    1  A    between atoms: C_1  and  C_2
REMARK    2  A    between atoms: C_2  and  O_3
REMARK    3  A    between atoms: O_3  and  C_4
REMARK    4  A    between atoms: C_7  and  N_10
REMARK    5  A    between atoms: C_11  and  C_13
REMARK    6  A    between atoms: N_18  and  S_20
REMARK    7  A    between atoms: S_20  and  C_23
REMARK    8  A    between atoms: C_28  and  C_29
REMARK                            x       y       z     vdW  Elec       q    Type
REMARK                         _______ _______ _______ _____ _____    ______ ____
ROOT
ATOM      1  C   UNL     1       1.584  -8.043  -2.994  0.00  0.00    +0.091 C 
ATOM      2  C   UNL     1       2.392  -8.768  -1.916  0.00  0.00    +0.015 C 
ATOM      3  C   UNL     1       2.416 -10.268  -2.216  0.00  0.00    +0.018 C 
ATOM      4  C   UNL     1       3.095 -10.503  -3.569  0.00  0.00    +0.109 C 
ATOM      5  N   UNL     1       2.412  -9.694  -4.588  0.00  0.00    -0.176 NA
ATOM      6  C   UNL     1       2.252  -8.252  -4.356  0.00  0.00    +0.122 C 
ENDROOT
BRANCH   1   8
ATOM      7  N   UNL     1       0.986  -6.146  -1.523  0.00  0.00    -0.285 N 
ATOM      8  C   UNL     1       1.534  -6.570  -2.679  0.00  0.00    +0.222 C 
ATOM      9  O   UNL     1       1.986  -5.766  -3.467  0.00  0.00    -0.275 OA
ATOM     10  H   UNL     1       0.688  -6.790  -0.862  0.00  0.00    +0.155 HD
BRANCH   7  14
ATOM     11  C   UNL     1       0.567  -2.063  -0.788  0.00  0.00    +0.121 A 
ATOM     12  C   UNL     1       0.442  -2.551  -2.081  0.00  0.00    +0.047 A 
ATOM     13  C   UNL     1       0.580  -3.903  -2.325  0.00  0.00    +0.027 A 
ATOM     14  C   UNL     1       0.845  -4.774  -1.276  0.00  0.00    +0.034 A 
ATOM     15  C   UNL     1       0.970  -4.285   0.017  0.00  0.00    +0.027 A 
ATOM     16  C   UNL     1       0.837  -2.932   0.259  0.00  0.00    +0.047 A 
BRANCH  11  17
ATOM     17  O   UNL     1       0.430  -0.731  -0.548  0.00  0.00    -0.492 OA
BRANCH  17  19
ATOM     18  C   UNL     1       0.033   1.559  -1.211  0.00  0.00    +0.048 C 
ATOM     19  C   UNL     1       0.152   0.105  -1.673  0.00  0.00    +0.225 C 
ENDBRANCH  17  19
ENDBRANCH  11  17
ENDBRANCH   7  14
ENDBRANCH   1   8
BRANCH   5  20
ATOM     20  S   UNL     1       1.831 -10.395  -5.972  0.00  0.00    +0.061 S 
ATOM     21  O   UNL     1       1.886  -9.400  -6.984  0.00  0.00    -0.153 OA
ATOM     22  O   UNL     1       2.489 -11.649  -6.099  0.00  0.00    -0.153 OA
BRANCH  20  23
ATOM     23  C   UNL     1       0.126 -10.746  -5.702  0.00  0.00    +0.112 A 
ATOM     24  C   UNL     1      -0.841 -10.047  -6.403  0.00  0.00    +0.076 A 
ATOM     25  C   UNL     1      -2.180 -10.323  -6.192  0.00  0.00    +0.144 A 
ATOM     26  C   UNL     1      -2.550 -11.304  -5.273  0.00  0.00    +0.076 A 
ATOM     27  C   UNL     1      -1.579 -12.000  -4.575  0.00  0.00    +0.032 A 
ATOM     28  C   UNL     1      -0.241 -11.722  -4.795  0.00  0.00    -0.022 A 
ATOM     29  C   UNL     1       0.818 -12.483  -4.040  0.00  0.00    +0.046 C 
ATOM     30  N   UNL     1      -3.911 -11.572  -5.068  0.00  0.00    -0.280 N 
ATOM     31  C   UNL     1      -4.811 -11.117  -5.967  0.00  0.00    +0.255 C 
ATOM     32  O   UNL     1      -5.996 -11.310  -5.794  0.00  0.00    -0.272 OA
ATOM     33  C   UNL     1      -4.337 -10.369  -7.187  0.00  0.00    +0.325 C 
ATOM     34  O   UNL     1      -3.143  -9.646  -6.873  0.00  0.00    -0.481 OA
ATOM     35  H   UNL     1      -4.202 -12.076  -4.292  0.00  0.00    +0.155 HD
ENDBRANCH  20  23
ENDBRANCH   5  20
TORSDOF 6
