REMARK  Name = ZINC17040775
REMARK  5 active torsions:
REMARK  status: ('A' for Active; 'I' for Inactive)
REMARK    1  A    between atoms: N_9  and  C1*_10
REMARK    2  A    between atoms: C2*_12  and  O2*_22
REMARK    3  A    between atoms: C3*_14  and  O3*_21
REMARK    4  A    between atoms: C4*_16  and  C5*_19
REMARK    5  A    between atoms: C5*_19  and  O5*_20
REMARK                            x       y       z     vdW  Elec       q    Type
REMARK                         _______ _______ _______ _____ _____    ______ ____
ROOT
ATOM      1  C1* UNL     1       3.575   3.859  -0.010  0.00  0.00    +0.269 C 
ATOM      2  C2* UNL     1       4.165   4.140  -1.415  0.00  0.00    +0.196 C 
ATOM      3  C3* UNL     1       5.649   4.441  -1.090  0.00  0.00    +0.178 C 
ATOM      4  C4* UNL     1       5.637   4.829   0.401  0.00  0.00    +0.177 C 
ATOM      5  O4* UNL     1       4.268   4.797   0.841  0.00  0.00    -0.344 OA
ENDROOT
BRANCH   1  14
ATOM      6  C   UNL     1      -1.230   1.746   0.017  0.00  0.00    +0.001 A 
ATOM      7  C   UNL     1      -0.013   1.076   0.008  0.00  0.00    +0.002 A 
ATOM      8  C   UNL     1       1.166   1.766   0.000  0.00  0.00    +0.028 A 
ATOM      9  C   UNL     1       1.153   3.159   0.008  0.00  0.00    +0.072 A 
ATOM     10  C   UNL     1      -0.080   3.840   0.024  0.00  0.00    +0.020 A 
ATOM     11  C   UNL     1      -1.273   3.110   0.030  0.00  0.00    +0.011 A 
ATOM     12  C   UNL     1       0.238   5.264   0.029  0.00  0.00    +0.143 A 
ATOM     13  N   UNL     1       1.535   5.382   0.018  0.00  0.00    -0.176 NA
ATOM     14  N   UNL     1       2.133   4.117   0.005  0.00  0.00    -0.233 N 
ENDBRANCH   1  14
BRANCH   3  15
ATOM     15  O3* UNL     1       6.452   3.277  -1.297  0.00  0.00    -0.386 OA
ATOM     16  H3* UNL     1       7.391   3.408  -1.108  0.00  0.00    +0.210 HD
ENDBRANCH   3  15
BRANCH   2  17
ATOM     17  O2* UNL     1       3.535   5.274  -2.016  0.00  0.00    -0.385 OA
ATOM     18  H2* UNL     1       3.871   5.490  -2.896  0.00  0.00    +0.210 HD
ENDBRANCH   2  17
BRANCH   4  19
ATOM     19  C5* UNL     1       6.206   6.239   0.576  0.00  0.00    +0.190 C 
BRANCH  19  20
ATOM     20  O5* UNL     1       6.299   6.545   1.969  0.00  0.00    -0.392 OA
ATOM     21  H5* UNL     1       6.653   7.426   2.155  0.00  0.00    +0.210 HD
ENDBRANCH  19  20
ENDBRANCH   4  19
TORSDOF 5
