REMARK  Name = ZINC02659303
REMARK  4 active torsions:
REMARK  status: ('A' for Active; 'I' for Inactive)
REMARK    1  A    between atoms: C_6  and  C_7
REMARK    2  A    between atoms: C_7  and  C_9
REMARK    3  A    between atoms: C_10  and  N_29
REMARK    4  A    between atoms: N_18  and  C_21
REMARK                            x       y       z     vdW  Elec       q    Type
REMARK                         _______ _______ _______ _____ _____    ______ ____
ROOT
ATOM      1  C   UNL     1      -1.563   5.867   0.018  0.00  0.00    +0.083 A 
ATOM      2  C   UNL     1      -0.260   5.390  -0.033  0.00  0.00    +0.057 A 
ATOM      3  C   UNL     1      -0.074   3.998  -0.067  0.00  0.00    +0.092 A 
ATOM      4  C   UNL     1       1.196   3.237  -0.122  0.00  0.00    +0.264 A 
ATOM      5  O   UNL     1       2.264   3.821  -0.143  0.00  0.00    -0.267 OA
ATOM      6  N   UNL     1       1.156   1.893  -0.147  0.00  0.00    -0.274 N 
ATOM      7  H   UNL     1       2.015   1.382  -0.184  0.00  0.00    +0.173 HD
ATOM      8  C   UNL     1      -0.004   1.218  -0.125  0.00  0.00    +0.335 A 
ATOM      9  O   UNL     1       0.014   0.002  -0.150  0.00  0.00    -0.246 OA
ATOM     10  N   UNL     1      -1.188   1.857  -0.081  0.00  0.00    -0.255 N 
ATOM     11  C   UNL     1      -1.242   3.221  -0.046  0.00  0.00    +0.104 A 
ATOM     12  S   UNL     1      -2.528   4.367   0.017  0.00  0.00    -0.065 S 
ENDROOT
BRANCH  10  13
ATOM     13  C   UNL     1      -2.377   1.116  -0.065  0.00  0.00    +0.070 A 
ATOM     14  C   UNL     1      -2.933   0.718   1.144  0.00  0.00    +0.029 A 
ATOM     15  C   UNL     1      -4.107  -0.008   1.158  0.00  0.00    +0.022 A 
ATOM     16  C   UNL     1      -4.725  -0.350  -0.032  0.00  0.00    +0.042 A 
ATOM     17  C   UNL     1      -4.172   0.040  -1.239  0.00  0.00    +0.042 A 
ATOM     18  C   UNL     1      -2.999   0.772  -1.258  0.00  0.00    +0.066 A 
ATOM     19 CL   UNL     1      -2.305   1.260  -2.772  0.00  0.00    -0.081 Cl
ATOM     20 CL   UNL     1      -6.198  -1.268  -0.011  0.00  0.00    -0.083 Cl
ENDBRANCH  10  13
BRANCH   2  21
ATOM     21  N   UNL     1       0.820   6.258  -0.049  0.00  0.00    -0.356 N 
ATOM     22  H   UNL     1       1.723   5.907  -0.085  0.00  0.00    +0.142 HD
ATOM     23  H   UNL     1       0.672   7.216  -0.025  0.00  0.00    +0.142 HD
ENDBRANCH   2  21
BRANCH   1  24
ATOM     24  C   UNL     1      -2.012   7.204   0.058  0.00  0.00    +0.202 C 
ATOM     25  O   UNL     1      -1.208   8.113   0.172  0.00  0.00    -0.286 OA
BRANCH  24  31
ATOM     26  C   UNL     1      -3.959   8.699   0.477  0.00  0.00    +0.015 A 
ATOM     27  C   UNL     1      -5.307   8.978   0.387  0.00  0.00    +0.048 A 
ATOM     28  C   UNL     1      -6.166   8.072  -0.215  0.00  0.00    +0.142 A 
ATOM     29  C   UNL     1      -5.669   6.873  -0.731  0.00  0.00    +0.076 A 
ATOM     30  C   UNL     1      -4.320   6.589  -0.649  0.00  0.00    +0.038 A 
ATOM     31  C   UNL     1      -3.456   7.502  -0.038  0.00  0.00    +0.025 A 
ATOM     32  N   UNL     1      -6.554   5.968  -1.334  0.00  0.00    -0.280 N 
ATOM     33  C   UNL     1      -7.786   6.395  -1.689  0.00  0.00    +0.255 C 
ATOM     34  O   UNL     1      -8.579   5.623  -2.185  0.00  0.00    -0.272 OA
ATOM     35  C   UNL     1      -8.171   7.835  -1.465  0.00  0.00    +0.325 C 
ATOM     36  O   UNL     1      -7.495   8.339  -0.310  0.00  0.00    -0.481 OA
ATOM     37  H   UNL     1      -6.287   5.049  -1.495  0.00  0.00    +0.155 HD
ENDBRANCH  24  31
ENDBRANCH   1  24
TORSDOF 4
