REMARK  Name = ZINC07118509
REMARK  6 active torsions:
REMARK  status: ('A' for Active; 'I' for Inactive)
REMARK    1  A    between atoms: C_1  and  C_2
REMARK    2  A    between atoms: C_4  and  C_26
REMARK    3  A    between atoms: C_9  and  C_10
REMARK    4  A    between atoms: C_10  and  N_11
REMARK    5  A    between atoms: C_12  and  C_14
REMARK    6  A    between atoms: C_15  and  C_16
REMARK                            x       y       z     vdW  Elec       q    Type
REMARK                         _______ _______ _______ _____ _____    ______ ____
ROOT
ATOM      1  N   UNL     1      -1.044  -5.005  -0.016  0.00  0.00    -0.308 N 
ATOM      2  C   UNL     1       0.113  -4.312  -0.023  0.00  0.00    +0.237 C 
ATOM      3  O   UNL     1       1.176  -4.904  -0.037  0.00  0.00    -0.271 OA
ATOM      4  H   UNL     1      -1.891  -4.533  -0.006  0.00  0.00    +0.149 HD
ENDROOT
BRANCH   2   5
ATOM      5  C   UNL     1       0.089  -2.850  -0.015  0.00  0.00    +0.068 C 
ATOM      6  C   UNL     1       1.247  -2.156  -0.022  0.00  0.00    +0.013 C 
BRANCH   6   7
ATOM      7  C   UNL     1       1.224  -0.686  -0.013  0.00  0.00    -0.020 A 
ATOM      8  C   UNL     1       2.423   0.035  -0.021  0.00  0.00    +0.057 A 
ATOM      9  C   UNL     1       2.396   1.416  -0.013  0.00  0.00    +0.168 A 
ATOM     10  C   UNL     1       1.174   2.090   0.002  0.00  0.00    +0.184 A 
ATOM     11  C   UNL     1      -0.017   1.374   0.010  0.00  0.00    +0.087 A 
ATOM     12  C   UNL     1       0.002  -0.004   0.002  0.00  0.00    +0.031 A 
ATOM     13 CL   UNL     1      -1.533   2.219   0.021  0.00  0.00    -0.080 Cl
ATOM     14  O   UNL     1       1.419   3.432   0.007  0.00  0.00    -0.451 OA
ATOM     15  C   UNL     1       2.786   3.576  -0.418  0.00  0.00    +0.466 C 
ATOM     16  O   UNL     1       3.403   2.338  -0.019  0.00  0.00    -0.453 OA
ENDBRANCH   6   7
ENDBRANCH   2   5
BRANCH   1  17
ATOM     17  C   UNL     1      -1.020  -6.469  -0.025  0.00  0.00    +0.145 C 
BRANCH  17  26
ATOM     18  C   UNL     1      -2.339  -7.157  -2.499  0.00  0.00    +0.044 C 
ATOM     19  C   UNL     1      -3.056  -7.319  -1.184  0.00  0.00    -0.039 A 
ATOM     20  C   UNL     1      -4.369  -7.809  -1.147  0.00  0.00    +0.024 A 
ATOM     21  C   UNL     1      -5.006  -7.947   0.039  0.00  0.00    +0.016 A 
ATOM     22  N   UNL     1      -4.386  -7.619   1.201  0.00  0.00    -0.326 N 
ATOM     23  H   UNL     1      -4.872  -7.727   2.068  0.00  0.00    +0.169 HD
ATOM     24  C   UNL     1      -3.123  -7.150   1.199  0.00  0.00    +0.254 A 
ATOM     25  O   UNL     1      -2.579  -6.859   2.253  0.00  0.00    -0.268 OA
ATOM     26  C   UNL     1      -2.433  -6.995  -0.015  0.00  0.00    +0.037 A 
ATOM     27  C   UNL     1      -6.419  -8.470   0.070  0.00  0.00    +0.063 C 
ENDBRANCH  17  26
ENDBRANCH   1  17
TORSDOF 4
