REMARK  Name = ZINC39603609
REMARK  6 active torsions:
REMARK  status: ('A' for Active; 'I' for Inactive)
REMARK    1  A    between atoms: C_1  and  O_2
REMARK    2  A    between atoms: O_2  and  C_3
REMARK    3  A    between atoms: C_3  and  C_4
REMARK    4  A    between atoms: C_4  and  N_5
REMARK    5  A    between atoms: C_6  and  C_8
REMARK    6  A    between atoms: C_19  and  C_21
REMARK                            x       y       z     vdW  Elec       q    Type
REMARK                         _______ _______ _______ _____ _____    ______ ____
ROOT
ATOM      1  C   UNL     1      -2.565  -4.342  -1.132  0.00  0.00    +0.100 C 
ATOM      2  C   UNL     1      -3.181  -3.858  -2.464  0.00  0.00    +0.121 C 
ATOM      3  N   UNL     1      -3.002  -4.998  -3.394  0.00  0.00    -0.297 N 
ATOM      4  C   UNL     1      -3.272  -6.197  -2.565  0.00  0.00    +0.115 C 
ATOM      5  C   UNL     1      -2.630  -5.877  -1.200  0.00  0.00    -0.004 C 
ATOM      6  C   UNL     1      -1.226  -6.469  -1.128  0.00  0.00    -0.010 C 
ATOM      7  C   UNL     1      -1.320  -7.997  -1.141  0.00  0.00    -0.082 C 
ATOM      8  N   UNL     1      -2.123  -8.449   0.002  0.00  0.00    +0.379 N 
ATOM      9  C   UNL     1      -3.498  -7.951  -0.124  0.00  0.00    -0.082 C 
ATOM     10  C   UNL     1      -3.496  -6.421  -0.068  0.00  0.00    -0.010 C 
ATOM     11  C   UNL     1      -2.669  -4.955  -4.699  0.00  0.00    +0.260 C 
ATOM     12  O   UNL     1      -2.383  -3.896  -5.217  0.00  0.00    -0.271 OA
ATOM     13  H   UNL     1      -2.133  -9.458   0.026  0.00  0.00    -0.086 HD
ATOM     14  H   UNL     1      -1.716  -8.099   0.857  0.00  0.00    -0.086 HD
ENDROOT
BRANCH  11  15
ATOM     15  C   UNL     1      -2.653  -6.221  -5.515  0.00  0.00    +0.296 C 
ATOM     16  C   UNL     1      -4.087  -6.736  -5.701  0.00  0.00    +0.283 C 
ATOM     17  O   UNL     1      -4.036  -7.929  -6.490  0.00  0.00    -0.484 OA
ATOM     18  C   UNL     1      -3.255  -7.893  -7.605  0.00  0.00    +0.162 A 
ATOM     19  C   UNL     1      -3.433  -8.850  -8.592  0.00  0.00    +0.049 A 
ATOM     20  C   UNL     1      -2.646  -8.828  -9.728  0.00  0.00    +0.004 A 
ATOM     21  C   UNL     1      -1.679  -7.852  -9.883  0.00  0.00    +0.004 A 
ATOM     22  C   UNL     1      -1.498  -6.894  -8.903  0.00  0.00    +0.049 A 
ATOM     23  C   UNL     1      -2.285  -6.910  -7.762  0.00  0.00    +0.163 A 
ATOM     24  O   UNL     1      -2.100  -5.955  -6.809  0.00  0.00    -0.473 OA
ENDBRANCH  11  15
BRANCH   1  26
ATOM     25  N   UNL     1      -0.600  -3.638   0.195  0.00  0.00    -0.313 N 
ATOM     26  C   UNL     1      -1.134  -3.882  -1.018  0.00  0.00    +0.218 C 
ATOM     27  O   UNL     1      -0.464  -3.731  -2.017  0.00  0.00    -0.275 OA
ATOM     28  H   UNL     1      -1.135  -3.758   0.995  0.00  0.00    +0.149 HD
BRANCH  25  29
ATOM     29  C   UNL     1       0.791  -3.190   0.306  0.00  0.00    +0.132 C 
BRANCH  29  30
ATOM     30  C   UNL     1       1.146  -2.987   1.780  0.00  0.00    +0.178 C 
BRANCH  30  32
ATOM     31  C   UNL     1       1.414  -4.165   3.850  0.00  0.00    +0.194 C 
ATOM     32  O   UNL     1       1.097  -4.244   2.459  0.00  0.00    -0.381 OA
ENDBRANCH  30  32
ENDBRANCH  29  30
ENDBRANCH  25  29
ENDBRANCH   1  26
TORSDOF 5
