REMARK  Name = ZINC20999904
REMARK  6 active torsions:
REMARK  status: ('A' for Active; 'I' for Inactive)
REMARK    1  A    between atoms: C_1  and  C_2
REMARK    2  A    between atoms: C_2  and  C_32
REMARK    3  A    between atoms: C_6  and  C_11
REMARK    4  A    between atoms: C_11  and  N_12
REMARK    5  A    between atoms: C_14  and  N_20
REMARK    6  A    between atoms: C_16  and  O_19
REMARK                            x       y       z     vdW  Elec       q    Type
REMARK                         _______ _______ _______ _____ _____    ______ ____
ROOT
ATOM      1  N   UNL     1      -5.425  -5.238   1.900  0.00  0.00    +0.385 N 
ATOM      2  C   UNL     1      -4.136  -4.765   1.333  0.00  0.00    -0.057 C 
ATOM      3  C   UNL     1      -4.389  -3.257   1.085  0.00  0.00    +0.067 C 
ATOM      4  C   UNL     1      -5.258  -2.848   2.296  0.00  0.00    +0.113 C 
ATOM      5  C   UNL     1      -5.889  -4.159   2.799  0.00  0.00    -0.045 C 
ATOM      6  H   UNL     1      -6.164  -5.452   1.113  0.00  0.00    -0.081 HD
ENDROOT
BRANCH   3   7
ATOM      7  N   UNL     1      -3.123  -2.512   1.077  0.00  0.00    -0.296 NA
ATOM      8  C   UNL     1      -2.293  -2.896  -0.073  0.00  0.00    +0.103 C 
ATOM      9  C   UNL     1      -0.954  -2.159  -0.001  0.00  0.00    +0.122 C 
ATOM     10  N   UNL     1      -1.196  -0.709   0.009  0.00  0.00    -0.314 N 
ATOM     11  C   UNL     1      -2.026  -0.325   1.159  0.00  0.00    +0.122 C 
ATOM     12  C   UNL     1      -3.365  -1.062   1.087  0.00  0.00    +0.103 C 
ATOM     13  C   UNL     1       0.002  -0.004   0.002  0.00  0.00    +0.099 A 
ATOM     14  C   UNL     1      -0.017   1.387   0.010  0.00  0.00    +0.042 A 
ATOM     15  C   UNL     1       1.182   2.076   0.002  0.00  0.00    +0.005 A 
ATOM     16  C   UNL     1       2.365   1.348  -0.014  0.00  0.00    +0.018 A 
ATOM     17  C   UNL     1       2.310  -0.031  -0.020  0.00  0.00    +0.084 A 
ATOM     18  N   UNL     1       1.151  -0.662  -0.013  0.00  0.00    -0.350 N 
ATOM     19  H   UNL     1       1.154  -1.762  -0.018  0.00  0.00    +0.166 HD
ENDBRANCH   3   7
BRANCH   4  20
ATOM     20  O   UNL     1      -6.274  -1.929   1.891  0.00  0.00    -0.392 OA
ATOM     21  H   UNL     1      -6.985  -1.533   2.631  0.00  0.00    +0.210 HD
ENDBRANCH   4  20
BRANCH   1  22
ATOM     22  C   UNL     1      -5.247  -6.497   2.635  0.00  0.00    -0.043 C 
BRANCH  22  28
ATOM     23  C   UNL     1      -1.696  -7.274   8.140  0.00  0.00    +0.056 C 
ATOM     24  C   UNL     1      -1.609  -5.884   7.506  0.00  0.00    +0.109 C 
ATOM     25  C   UNL     1      -3.017  -5.362   7.135  0.00  0.00    +0.086 C 
ATOM     26  C   UNL     1      -3.146  -5.807   5.691  0.00  0.00    -0.002 A 
ATOM     27  C   UNL     1      -4.232  -5.915   4.851  0.00  0.00    +0.009 A 
ATOM     28  C   UNL     1      -4.062  -6.377   3.558  0.00  0.00    -0.063 A 
ATOM     29  C   UNL     1      -2.800  -6.733   3.116  0.00  0.00    +0.005 A 
ATOM     30  C   UNL     1      -1.710  -6.616   3.953  0.00  0.00    +0.046 A 
ATOM     31  C   UNL     1      -1.873  -6.148   5.255  0.00  0.00    +0.125 A 
ATOM     32  O   UNL     1      -0.946  -5.946   6.232  0.00  0.00    -0.486 OA
ATOM     33  C   UNL     1      -0.893  -4.908   8.442  0.00  0.00    +0.056 C 
ENDBRANCH  22  28
ENDBRANCH   1  22
TORSDOF 4
