REMARK  Name = ZINC36991703
REMARK  9 active torsions:
REMARK  status: ('A' for Active; 'I' for Inactive)
REMARK    1  A    between atoms: C_1  and  C_2
REMARK    2  A    between atoms: C_2  and  C_3
REMARK    3  A    between atoms: C_3  and  C_5
REMARK    4  A    between atoms: C_3  and  N_12
REMARK    5  A    between atoms: N_12  and  C_13
REMARK    6  A    between atoms: C_13  and  C_15
REMARK    7  A    between atoms: C_13  and  C_16
REMARK    8  A    between atoms: C_19  and  O_23
REMARK    9  A    between atoms: C_21  and  O_22
REMARK                            x       y       z     vdW  Elec       q    Type
REMARK                         _______ _______ _______ _____ _____    ______ ____
ROOT
ATOM      1  N   UNL     1       2.304  -0.215   1.125  0.00  0.00    +0.388 N 
ATOM      2  H   UNL     1       2.786  -0.742   1.838  0.00  0.00    -0.084 HD
ATOM      3  H   UNL     1       2.673  -0.460   0.218  0.00  0.00    -0.084 HD
ENDROOT
BRANCH   1   4
ATOM      4  C   UNL     1       2.497   1.222   1.361  0.00  0.00    -0.040 C 
ATOM      5  C   UNL     1       1.896   2.015   0.199  0.00  0.00    -0.009 C 
BRANCH   4   6
ATOM      6  C   UNL     1       3.970   1.520   1.464  0.00  0.00    -0.020 A 
ATOM      7  C   UNL     1       4.888   0.690   0.849  0.00  0.00    +0.009 A 
ATOM      8  C   UNL     1       6.239   0.960   0.941  0.00  0.00    +0.046 A 
ATOM      9  C   UNL     1       6.679   2.067   1.653  0.00  0.00    +0.120 A 
ATOM     10  C   UNL     1       5.761   2.902   2.272  0.00  0.00    +0.091 A 
ATOM     11  C   UNL     1       4.405   2.631   2.173  0.00  0.00    +0.122 A 
BRANCH  11  12
ATOM     12  O   UNL     1       3.502   3.450   2.773  0.00  0.00    -0.506 OA
ATOM     13  H   UNL     1       3.288   3.200   3.682  0.00  0.00    +0.292 HD
ENDBRANCH  11  12
BRANCH   9  14
ATOM     14  O   UNL     1       8.009   2.333   1.745  0.00  0.00    -0.507 OA
ATOM     15  H   UNL     1       8.346   2.901   1.038  0.00  0.00    +0.292 HD
ENDBRANCH   9  14
ENDBRANCH   4   6
ENDBRANCH   1   4
BRANCH   1  16
ATOM     16  C   UNL     1       0.869  -0.530   1.170  0.00  0.00    -0.040 C 
BRANCH  16  17
ATOM     17  C   UNL     1       0.347  -0.297   2.564  0.00  0.00    -0.061 A 
ATOM     18  C   UNL     1       1.114  -0.655   3.658  0.00  0.00    +0.003 A 
ATOM     19  C   UNL     1       0.636  -0.440   4.937  0.00  0.00    +0.015 A 
ATOM     20  C   UNL     1      -0.610   0.132   5.122  0.00  0.00    +0.018 A 
ATOM     21  C   UNL     1      -1.376   0.490   4.028  0.00  0.00    +0.015 A 
ATOM     22  C   UNL     1      -0.895   0.280   2.749  0.00  0.00    +0.003 A 
ATOM     23 BR   UNL     1      -1.265   0.425   6.872  0.00  0.00    -0.050 Br
ENDBRANCH  16  17
BRANCH  16  25
ATOM     24  C   UNL     1       1.052  -2.200  -0.679  0.00  0.00    +0.002 C 
ATOM     25  C   UNL     1       0.657  -1.996   0.784  0.00  0.00    -0.015 C 
ENDBRANCH  16  25
ENDBRANCH   1  16
TORSDOF 7
