REMARK  Name = ZINC02616580
REMARK  4 active torsions:
REMARK  status: ('A' for Active; 'I' for Inactive)
REMARK    1  A    between atoms: C_6  and  C_7
REMARK    2  A    between atoms: C_12  and  O_16
REMARK    3  A    between atoms: O_16  and  C_17
REMARK    4  A    between atoms: C_17  and  C_18
REMARK                            x       y       z     vdW  Elec       q    Type
REMARK                         _______ _______ _______ _____ _____    ______ ____
ROOT
ATOM      1  C   UNL     1       1.322  -0.303  -0.012  0.00  0.00    +0.003 A 
ATOM      2  C   UNL     1       0.002  -0.004   0.002  0.00  0.00    +0.056 A 
ATOM      3  S   UNL     1      -0.022   1.778   0.012  0.00  0.00    -0.076 S 
ATOM      4  C   UNL     1       1.724   2.083  -0.003  0.00  0.00    +0.116 A 
ATOM      5  C   UNL     1       2.289   0.790  -0.016  0.00  0.00    +0.077 A 
ATOM      6  C   UNL     1       3.707   0.745  -0.029  0.00  0.00    +0.227 A 
ATOM      7  N   UNL     1       4.389   1.876  -0.029  0.00  0.00    -0.201 NA
ATOM      8  C   UNL     1       3.795   3.056  -0.017  0.00  0.00    +0.226 A 
ATOM      9  N   UNL     1       2.481   3.163  -0.005  0.00  0.00    -0.228 NA
ENDROOT
BRANCH   1  15
ATOM     10  C   UNL     1       2.716  -2.137  -0.964  0.00  0.00    +0.010 A 
ATOM     11  C   UNL     1       3.140  -3.450  -0.968  0.00  0.00    +0.020 A 
ATOM     12  C   UNL     1       2.626  -4.349  -0.048  0.00  0.00    +0.041 A 
ATOM     13  C   UNL     1       1.690  -3.934   0.883  0.00  0.00    +0.020 A 
ATOM     14  C   UNL     1       1.263  -2.622   0.899  0.00  0.00    +0.010 A 
ATOM     15  C   UNL     1       1.777  -1.713  -0.025  0.00  0.00    -0.016 A 
ATOM     16 CL   UNL     1       3.159  -6.001  -0.063  0.00  0.00    -0.084 Cl
ENDBRANCH   1  15
BRANCH   6  17
ATOM     17  O   UNL     1       4.353  -0.446  -0.041  0.00  0.00    -0.466 OA
BRANCH  17  18
ATOM     18  C   UNL     1       5.782  -0.407  -0.054  0.00  0.00    +0.326 C 
BRANCH  18  19
ATOM     19  C   UNL     1       6.322  -1.814  -0.066  0.00  0.00    +0.258 C 
ATOM     20  O   UNL     1       5.559  -2.756  -0.064  0.00  0.00    -0.272 OA
ATOM     21  N   UNL     1       7.653  -2.025  -0.080  0.00  0.00    -0.238 N 
ATOM     22  C   UNL     1       8.136  -3.284  -0.090  0.00  0.00    +0.303 C 
ATOM     23  O   UNL     1       7.371  -4.228  -0.088  0.00  0.00    -0.253 OA
ATOM     24  N   UNL     1       9.467  -3.494  -0.104  0.00  0.00    -0.313 N 
ATOM     25  H   UNL     1       8.263  -1.271  -0.081  0.00  0.00    +0.159 HD
ATOM     26  H   UNL     1      10.077  -2.741  -0.106  0.00  0.00    +0.146 HD
ATOM     27  H   UNL     1       9.814  -4.400  -0.112  0.00  0.00    +0.146 HD
ENDBRANCH  18  19
ENDBRANCH  17  18
ENDBRANCH   6  17
TORSDOF 4
