REMARK  Name = ZINC06049249
REMARK  7 active torsions:
REMARK  status: ('A' for Active; 'I' for Inactive)
REMARK    1  A    between atoms: C_1  and  C_2
REMARK    2  A    between atoms: C_7  and  N_12
REMARK    3  A    between atoms: C_9  and  C_11
REMARK    4  A    between atoms: C_13  and  C_15
REMARK    5  A    between atoms: C_15  and  O_16
REMARK    6  A    between atoms: O_16  and  C_17
REMARK    7  A    between atoms: C_17  and  C_19
REMARK                            x       y       z     vdW  Elec       q    Type
REMARK                         _______ _______ _______ _____ _____    ______ ____
ROOT
ATOM      1  C   UNL     1       4.839   1.050  -0.038  0.00  0.00    +0.328 C 
ENDROOT
BRANCH   1   3
ATOM      2  N   UNL     1       7.265   1.533  -0.059  0.00  0.00    -0.309 N 
ATOM      3  C   UNL     1       6.003   2.007  -0.044  0.00  0.00    +0.251 C 
ATOM      4  O   UNL     1       5.805   3.203  -0.036  0.00  0.00    -0.272 OA
ATOM      5  H   UNL     1       7.423   0.576  -0.066  0.00  0.00    +0.149 HD
BRANCH   2  11
ATOM      6  C   UNL     1      10.460   3.977   1.361  0.00  0.00    +0.008 C 
ATOM      7  C   UNL     1      10.808   2.745   0.523  0.00  0.00    -0.009 C 
ATOM      8  C   UNL     1      11.109   3.173  -0.914  0.00  0.00    +0.003 C 
ATOM      9  C   UNL     1       9.879   3.863  -1.509  0.00  0.00    +0.002 C 
ATOM     10  C   UNL     1       8.697   2.892  -1.502  0.00  0.00    +0.022 C 
ATOM     11  C   UNL     1       8.397   2.463  -0.065  0.00  0.00    +0.076 C 
ATOM     12  C   UNL     1       9.626   1.773   0.529  0.00  0.00    +0.009 C 
ATOM     13  C   UNL     1       9.326   1.345   1.967  0.00  0.00    +0.009 C 
ENDBRANCH   2  11
ENDBRANCH   1   3
BRANCH   1  14
ATOM     14  O   UNL     1       3.596   1.800  -0.023  0.00  0.00    -0.451 OA
BRANCH  14  15
ATOM     15  C   UNL     1       2.452   1.089  -0.015  0.00  0.00    +0.356 C 
ATOM     16  O   UNL     1       2.492  -0.124  -0.022  0.00  0.00    -0.243 OA
BRANCH  15  17
ATOM     17  C   UNL     1       1.145   1.787   0.001  0.00  0.00    +0.133 A 
ATOM     18  C   UNL     1      -0.013   1.076   0.008  0.00  0.00    +0.103 A 
ATOM     19  C   UNL     1      -1.284   1.810   0.018  0.00  0.00    +0.255 A 
ATOM     20  O   UNL     1      -2.344   1.213   0.020  0.00  0.00    -0.268 OA
ATOM     21  N   UNL     1      -1.256   3.159   0.030  0.00  0.00    -0.275 N 
ATOM     22  H   UNL     1      -2.113   3.674   0.045  0.00  0.00    +0.173 HD
ATOM     23  C   UNL     1      -0.082   3.816   0.022  0.00  0.00    +0.327 A 
ATOM     24  O   UNL     1      -0.085   5.032   0.029  0.00  0.00    -0.247 OA
ATOM     25  N   UNL     1       1.092   3.165   0.008  0.00  0.00    -0.302 N 
ATOM     26  H   UNL     1       1.944   3.689   0.003  0.00  0.00    +0.171 HD
ENDBRANCH  15  17
ENDBRANCH  14  15
ENDBRANCH   1  14
TORSDOF 5
