REMARK  Name = ZINC38556382
REMARK  7 active torsions:
REMARK  status: ('A' for Active; 'I' for Inactive)
REMARK    1  A    between atoms: C_1  and  C_2
REMARK    2  A    between atoms: C_2  and  C_4
REMARK    3  A    between atoms: C_4  and  S_5
REMARK    4  A    between atoms: S_5  and  C_6
REMARK    5  A    between atoms: C_10  and  C_14
REMARK    6  A    between atoms: N_12  and  N_13
REMARK    7  A    between atoms: C_17  and  C_20
REMARK                            x       y       z     vdW  Elec       q    Type
REMARK                         _______ _______ _______ _____ _____    ______ ____
ROOT
ATOM      1  C   UNL     1       0.022  -3.280  -2.640  0.00  0.00    +0.272 C 
ATOM      2  N   UNL     1      -1.147  -2.822  -3.403  0.00  0.00    -0.159 NA
ATOM      3  N   UNL     1      -0.833  -2.504  -4.554  0.00  0.00    -0.167 NA
ATOM      4  C   UNL     1       0.607  -2.688  -4.781  0.00  0.00    +0.244 C 
ATOM      5  N   UNL     1       1.194  -2.811  -3.421  0.00  0.00    -0.183 NA
ENDROOT
BRANCH   4   6
ATOM      6  C   UNL     1       1.190  -1.475  -5.510  0.00  0.00    +0.195 C 
ATOM      7  C   UNL     1       0.493  -1.263  -6.841  0.00  0.00    +0.035 C 
ATOM      8  C   UNL     1       1.479  -1.404  -7.748  0.00  0.00    +0.091 C 
ATOM      9  N   UNL     1       2.659  -1.669  -7.128  0.00  0.00    -0.154 NA
ATOM     10  N   UNL     1       2.589  -1.724  -5.895  0.00  0.00    -0.176 NA
BRANCH   8  11
ATOM     11  C   UNL     1       1.302  -1.286  -9.216  0.00  0.00    +0.002 A 
ATOM     12  C   UNL     1       0.045  -1.004  -9.749  0.00  0.00    +0.011 A 
ATOM     13  C   UNL     1      -0.114  -0.896 -11.115  0.00  0.00    +0.020 A 
ATOM     14  C   UNL     1       0.972  -1.066 -11.957  0.00  0.00    +0.041 A 
ATOM     15  C   UNL     1       2.222  -1.345 -11.433  0.00  0.00    +0.020 A 
ATOM     16  C   UNL     1       2.393  -1.450 -10.068  0.00  0.00    +0.011 A 
ATOM     17 CL   UNL     1       0.764  -0.929 -13.675  0.00  0.00    -0.084 Cl
ENDBRANCH   8  11
ENDBRANCH   4   6
BRANCH   5  18
ATOM     18  N   UNL     1       2.262  -3.797  -3.400  0.00  0.00    -0.263 NA
ATOM     19  H   UNL     1       2.569  -3.978  -2.456  0.00  0.00    +0.137 HD
ATOM     20  H   UNL     1       1.976  -4.650  -3.857  0.00  0.00    +0.137 HD
ENDBRANCH   5  18
BRANCH   1  21
ATOM     21  S   UNL     1       0.027  -2.535  -0.986  0.00  0.00    -0.108 S 
BRANCH  21  22
ATOM     22  C   UNL     1      -0.000  -0.750  -1.307  0.00  0.00    +0.146 C 
BRANCH  22  24
ATOM     23  C   UNL     1      -0.018   1.503   0.010  0.00  0.00    +0.087 C 
ATOM     24  C   UNL     1       0.002  -0.004   0.002  0.00  0.00    +0.140 C 
ATOM     25  O   UNL     1       0.020  -0.613   1.044  0.00  0.00    -0.297 OA
ENDBRANCH  22  24
ENDBRANCH  21  22
ENDBRANCH   1  21
TORSDOF 6
