REMARK  Name = ZINC39711457
REMARK  11 active torsions:
REMARK  status: ('A' for Active; 'I' for Inactive)
REMARK    1  A    between atoms: C_1  and  C_2
REMARK    2  A    between atoms: C_2  and  O_3
REMARK    3  A    between atoms: O_3  and  C_4
REMARK    4  A    between atoms: C_11  and  C_16
REMARK    5  A    between atoms: C_16  and  C_18
REMARK    6  A    between atoms: C_16  and  N_27
REMARK    7  A    between atoms: N_22  and  C_23
REMARK    8  A    between atoms: C_23  and  C_24
REMARK    9  A    between atoms: C_24  and  O_25
REMARK   10  A    between atoms: O_25  and  C_26
REMARK   11  A    between atoms: C_30  and  C_33
REMARK                            x       y       z     vdW  Elec       q    Type
REMARK                         _______ _______ _______ _____ _____    ______ ____
ROOT
ATOM      1  C   UNL     1       1.505  -6.408  -5.482  0.00  0.00    +0.018 C 
ENDROOT
BRANCH   1   9
ATOM      2  C   UNL     1       7.288  -5.967  -4.819  0.00  0.00    +0.121 A 
ATOM      3  C   UNL     1       7.161  -4.770  -4.104  0.00  0.00    +0.047 A 
ATOM      4  C   UNL     1       5.969  -4.323  -3.632  0.00  0.00    +0.027 A 
ATOM      5  C   UNL     1       4.791  -5.062  -3.848  0.00  0.00    +0.041 A 
ATOM      6  N   UNL     1       3.628  -4.611  -3.379  0.00  0.00    -0.285 N 
ATOM      7  C   UNL     1       2.484  -5.253  -3.545  0.00  0.00    +0.223 C 
ATOM      8  O   UNL     1       1.453  -4.791  -3.094  0.00  0.00    -0.275 OA
ATOM      9  C   UNL     1       2.462  -6.563  -4.299  0.00  0.00    +0.092 C 
ATOM     10  C   UNL     1       3.783  -7.081  -4.835  0.00  0.00    -0.006 C 
ATOM     11  C   UNL     1       4.893  -6.326  -4.598  0.00  0.00    -0.004 A 
ATOM     12  C   UNL     1       6.206  -6.750  -5.085  0.00  0.00    +0.055 A 
ATOM     13  H   UNL     1       3.620  -3.772  -2.892  0.00  0.00    +0.155 HD
BRANCH   2  14
ATOM     14  O   UNL     1       8.514  -6.352  -5.261  0.00  0.00    -0.492 OA
BRANCH  14  16
ATOM     15  C   UNL     1      10.901  -6.088  -5.529  0.00  0.00    +0.048 C 
ATOM     16  C   UNL     1       9.614  -5.494  -4.954  0.00  0.00    +0.225 C 
ENDBRANCH  14  16
ENDBRANCH   2  14
ENDBRANCH   1   9
BRANCH   1  17
ATOM     17  N   UNL     1       1.361  -7.699  -6.168  0.00  0.00    +0.387 N 
ATOM     18  C   UNL     1       0.729  -8.665  -5.262  0.00  0.00    -0.078 C 
ATOM     19  C   UNL     1       0.650 -10.034  -5.943  0.00  0.00    -0.015 C 
ATOM     20  C   UNL     1      -0.181  -9.913  -7.223  0.00  0.00    -0.018 C 
ATOM     21  C   UNL     1       0.446  -8.850  -8.129  0.00  0.00    -0.015 C 
ATOM     22  C   UNL     1       0.532  -7.525  -7.367  0.00  0.00    -0.078 C 
ATOM     23  C   UNL     1      -0.198 -11.259  -7.951  0.00  0.00    +0.007 C 
ATOM     24  H   UNL     1       2.272  -8.040  -6.437  0.00  0.00    -0.081 HD
ENDBRANCH   1  17
BRANCH   1  25
ATOM     25  C   UNL     1       2.056  -5.387  -6.444  0.00  0.00    +0.139 A 
ATOM     26  N   UNL     1       3.204  -5.445  -7.074  0.00  0.00    -0.115 NA
ATOM     27  N   UNL     1       3.312  -4.388  -7.802  0.00  0.00    -0.023 NA
ATOM     28  N   UNL     1       2.263  -3.657  -7.653  0.00  0.00    -0.044 NA
ATOM     29  N   UNL     1       1.462  -4.242  -6.827  0.00  0.00    -0.229 N 
BRANCH  29  30
ATOM     30  C   UNL     1       0.154  -3.750  -6.387  0.00  0.00    +0.175 C 
BRANCH  30  31
ATOM     31  C   UNL     1       0.342  -2.780  -5.218  0.00  0.00    +0.183 C 
BRANCH  31  32
ATOM     32  O   UNL     1      -0.936  -2.322  -4.770  0.00  0.00    -0.381 OA
ATOM     33  C   UNL     1      -0.873  -1.407  -3.675  0.00  0.00    +0.194 C 
ENDBRANCH  31  32
ENDBRANCH  30  31
ENDBRANCH  29  30
ENDBRANCH   1  25
TORSDOF 8
