REMARK  Name = ZINC39674197
REMARK  9 active torsions:
REMARK  status: ('A' for Active; 'I' for Inactive)
REMARK    1  A    between atoms: C_1  and  C_2
REMARK    2  A    between atoms: C_4  and  C_9
REMARK    3  A    between atoms: C_5  and  C_8
REMARK    4  A    between atoms: C_9  and  C_11
REMARK    5  A    between atoms: C_9  and  N_12
REMARK    6  A    between atoms: C_13  and  C_15
REMARK    7  A    between atoms: C_26  and  C_28
REMARK    8  A    between atoms: C_28  and  C_29
REMARK    9  A    between atoms: C_29  and  C_30
REMARK                            x       y       z     vdW  Elec       q    Type
REMARK                         _______ _______ _______ _____ _____    ______ ____
ROOT
ATOM      1  C   UNL     1      -3.211  -0.727  -5.373  0.00  0.00    +0.100 C 
ATOM      2  C   UNL     1      -3.932  -2.024  -4.942  0.00  0.00    +0.121 C 
ATOM      3  N   UNL     1      -4.752  -2.405  -6.115  0.00  0.00    -0.300 N 
ATOM      4  C   UNL     1      -3.889  -2.103  -7.282  0.00  0.00    +0.115 C 
ATOM      5  C   UNL     1      -3.185  -0.783  -6.910  0.00  0.00    -0.004 C 
ATOM      6  C   UNL     1      -1.744  -0.794  -7.413  0.00  0.00    -0.010 C 
ATOM      7  C   UNL     1      -1.744  -0.790  -8.945  0.00  0.00    -0.082 C 
ATOM      8  N   UNL     1      -2.445   0.403  -9.434  0.00  0.00    +0.379 N 
ATOM      9  C   UNL     1      -3.854   0.359  -9.023  0.00  0.00    -0.082 C 
ATOM     10  C   UNL     1      -3.943   0.404  -7.495  0.00  0.00    -0.010 C 
ATOM     11  C   UNL     1      -6.001  -2.911  -6.121  0.00  0.00    +0.216 C 
ATOM     12  O   UNL     1      -6.544  -3.175  -7.173  0.00  0.00    -0.276 OA
ATOM     13  H   UNL     1      -2.010   1.228  -9.050  0.00  0.00    -0.086 HD
ATOM     14  H   UNL     1      -2.390   0.434 -10.441  0.00  0.00    -0.086 HD
ENDROOT
BRANCH   1  16
ATOM     15  N   UNL     1      -1.214   0.480  -4.553  0.00  0.00    -0.309 N 
ATOM     16  C   UNL     1      -1.808  -0.699  -4.825  0.00  0.00    +0.219 C 
ATOM     17  O   UNL     1      -1.213  -1.737  -4.628  0.00  0.00    -0.275 OA
ATOM     18  H   UNL     1      -1.690   1.310  -4.710  0.00  0.00    +0.149 HD
BRANCH  15  19
ATOM     19  C   UNL     1       0.150   0.507  -4.020  0.00  0.00    +0.100 C 
ATOM     20  C   UNL     1       1.151   0.436  -5.175  0.00  0.00    +0.033 C 
BRANCH  19  23
ATOM     21  C   UNL     1       0.995   3.550  -4.913  0.00  0.00    +0.039 C 
ATOM     22  C   UNL     1       0.113   3.209  -3.711  0.00  0.00    +0.154 C 
ATOM     23  C   UNL     1       0.363   1.784  -3.249  0.00  0.00    -0.001 C 
ATOM     24  C   UNL     1       0.814   1.926  -2.000  0.00  0.00    +0.063 C 
ATOM     25  N   UNL     1       0.868   3.231  -1.655  0.00  0.00    -0.159 NA
ATOM     26  N   UNL     1       0.497   4.014  -2.538  0.00  0.00    -0.180 NA
ATOM     27  C   UNL     1       1.209   0.785  -1.099  0.00  0.00    +0.067 C 
ENDBRANCH  19  23
ENDBRANCH  15  19
ENDBRANCH   1  16
BRANCH  11  28
ATOM     28  C   UNL     1      -6.723  -3.150  -4.820  0.00  0.00    +0.100 C 
BRANCH  28  29
ATOM     29  C   UNL     1      -8.112  -3.725  -5.105  0.00  0.00    +0.044 C 
BRANCH  29  30
ATOM     30  C   UNL     1      -8.834  -3.963  -3.804  0.00  0.00    -0.047 A 
ATOM     31  C   UNL     1      -8.712  -5.179  -3.158  0.00  0.00    +0.003 A 
ATOM     32  C   UNL     1      -9.374  -5.398  -1.965  0.00  0.00    +0.000 A 
ATOM     33  C   UNL     1     -10.159  -4.401  -1.417  0.00  0.00    +0.000 A 
ATOM     34  C   UNL     1     -10.281  -3.184  -2.062  0.00  0.00    +0.000 A 
ATOM     35  C   UNL     1      -9.615  -2.964  -3.253  0.00  0.00    +0.003 A 
ENDBRANCH  29  30
ENDBRANCH  28  29
ENDBRANCH  11  28
TORSDOF 6
