REMARK  Name = ZINC04757937
REMARK  6 active torsions:
REMARK  status: ('A' for Active; 'I' for Inactive)
REMARK    1  A    between atoms: C_1  and  C_2
REMARK    2  A    between atoms: C_9  and  C_11
REMARK    3  A    between atoms: C_13  and  C_18
REMARK    4  A    between atoms: C_15  and  N_17
REMARK    5  A    between atoms: C_18  and  C_20
REMARK    6  A    between atoms: C_26  and  N_54
REMARK                            x       y       z     vdW  Elec       q    Type
REMARK                         _______ _______ _______ _____ _____    ______ ____
ROOT
ATOM      1  C   UNL     1       3.068   1.840   4.488  0.00  0.00    +0.039 A 
ATOM      2  C   UNL     1       1.679   1.928   4.458  0.00  0.00    +0.024 A 
ATOM      3  C   UNL     1       1.036   2.366   3.299  0.00  0.00    +0.018 A 
ATOM      4  C   UNL     1       1.790   2.725   2.177  0.00  0.00    +0.034 A 
ATOM      5  C   UNL     1       3.173   2.641   2.215  0.00  0.00    +0.026 A 
ATOM      6  C   UNL     1       3.814   2.201   3.365  0.00  0.00    +0.035 A 
ENDROOT
BRANCH   1  14
ATOM      7  C   UNL     1       4.856   0.306   7.919  0.00  0.00    +0.028 C 
ATOM      8  C   UNL     1       5.669   1.407   7.236  0.00  0.00    +0.073 C 
ATOM      9  C   UNL     1       5.933   2.542   8.230  0.00  0.00    +0.022 C 
ATOM     10  C   UNL     1       6.624   3.700   7.505  0.00  0.00    +0.003 C 
ATOM     11  C   UNL     1       5.709   4.229   6.398  0.00  0.00    +0.019 C 
ATOM     12  C   UNL     1       5.445   3.110   5.380  0.00  0.00    +0.108 C 
ATOM     13  N   UNL     1       4.912   1.943   6.096  0.00  0.00    -0.295 N 
ATOM     14  C   UNL     1       3.754   1.371   5.712  0.00  0.00    +0.247 C 
ATOM     15  O   UNL     1       3.272   0.470   6.371  0.00  0.00    -0.270 OA
ENDBRANCH   1  14
BRANCH   5  16
ATOM     16  N   UNL     1       3.924   3.000   1.092  0.00  0.00    -0.358 N 
ATOM     17  H   UNL     1       3.477   3.308   0.288  0.00  0.00    +0.142 HD
ATOM     18  H   UNL     1       4.892   2.942   1.117  0.00  0.00    +0.142 HD
ENDBRANCH   5  16
BRANCH   3  19
ATOM     19  C   UNL     1      -0.433   2.455   3.260  0.00  0.00    +0.150 C 
ATOM     20  O   UNL     1      -1.086   2.143   4.233  0.00  0.00    -0.294 OA
BRANCH  19  21
ATOM     21  C   UNL     1      -1.126   2.934   2.010  0.00  0.00    +0.004 C 
ATOM     22  C   UNL     1      -1.206   1.786   1.000  0.00  0.00    -0.008 C 
ATOM     23  C   UNL     1      -1.928   2.271  -0.260  0.00  0.00    -0.003 C 
ATOM     24  C   UNL     1      -3.319   2.784   0.122  0.00  0.00    -0.019 C 
ATOM     25  C   UNL     1      -3.178   3.903   1.157  0.00  0.00    -0.078 C 
ATOM     26  C   UNL     1      -2.451   4.396   3.413  0.00  0.00    -0.095 C 
ATOM     27  N   UNL     1      -2.498   3.365   2.355  0.00  0.00    +0.385 N 
ATOM     28  H   UNL     1      -3.024   2.555   2.702  0.00  0.00    -0.081 HD
ENDBRANCH  19  21
ENDBRANCH   3  19
TORSDOF 4
