REMARK  Name = ZINC65145644
REMARK  7 active torsions:
REMARK  status: ('A' for Active; 'I' for Inactive)
REMARK    1  A    between atoms: C_1  and  C_2
REMARK    2  A    between atoms: C_6  and  C_8
REMARK    3  A    between atoms: C_8  and  N_9
REMARK    4  A    between atoms: C_13  and  C_16
REMARK    5  A    between atoms: N_18  and  N_19
REMARK    6  A    between atoms: N_22  and  C_23
REMARK    7  A    between atoms: C_23  and  C_24
REMARK                            x       y       z     vdW  Elec       q    Type
REMARK                         _______ _______ _______ _____ _____    ______ ____
ROOT
ATOM      1  C   UNL     1       4.087  -1.403   4.948  0.00  0.00    +0.265 C 
ATOM      2  O   UNL     1       5.204  -1.641   5.366  0.00  0.00    -0.268 OA
ATOM      3  N   UNL     1       3.479  -0.245   5.271  0.00  0.00    -0.229 N 
ATOM      4  H   UNL     1       2.561  -0.087   5.000  0.00  0.00    +0.173 HD
ENDROOT
BRANCH   1   9
ATOM      5  N   UNL     1       1.438  -3.078   2.910  0.00  0.00    -0.310 N 
ATOM      6  C   UNL     1       2.086  -4.189   2.486  0.00  0.00    +0.089 A 
ATOM      7  C   UNL     1       3.375  -4.429   2.837  0.00  0.00    +0.019 A 
ATOM      8  C   UNL     1       4.059  -3.526   3.650  0.00  0.00    +0.020 A 
ATOM      9  C   UNL     1       3.399  -2.380   4.090  0.00  0.00    +0.103 A 
ATOM     10  C   UNL     1       2.054  -2.171   3.692  0.00  0.00    +0.264 A 
ATOM     11  O   UNL     1       1.456  -1.174   4.059  0.00  0.00    -0.267 OA
BRANCH   5  12
ATOM     12  C   UNL     1       0.047  -2.857   2.508  0.00  0.00    +0.160 C 
BRANCH  12  18
ATOM     13  C   UNL     1      -0.077   1.508   0.063  0.00  0.00    +0.044 C 
ATOM     14  C   UNL     1      -0.046   0.002   0.043  0.00  0.00    -0.050 A 
ATOM     15  C   UNL     1      -0.046  -0.674  -1.163  0.00  0.00    +0.003 A 
ATOM     16  C   UNL     1      -0.016  -2.055  -1.181  0.00  0.00    +0.001 A 
ATOM     17  C   UNL     1       0.013  -2.762   0.007  0.00  0.00    +0.005 A 
ATOM     18  C   UNL     1       0.015  -2.087   1.213  0.00  0.00    -0.027 A 
ATOM     19  C   UNL     1      -0.011  -0.705   1.231  0.00  0.00    +0.008 A 
ENDBRANCH  12  18
ENDBRANCH   5  12
ENDBRANCH   1   9
BRANCH   3  20
ATOM     20  N   UNL     1       4.173   0.731   5.998  0.00  0.00    -0.218 N 
ATOM     21  C   UNL     1       3.565   1.890   6.321  0.00  0.00    +0.316 C 
ATOM     22  O   UNL     1       4.167   2.737   6.952  0.00  0.00    -0.251 OA
ATOM     23  N   UNL     1       2.289   2.110   5.944  0.00  0.00    -0.296 N 
ATOM     24  H   UNL     1       5.090   0.573   6.269  0.00  0.00    +0.174 HD
ATOM     25  H   UNL     1       1.809   1.434   5.441  0.00  0.00    +0.150 HD
BRANCH  23  26
ATOM     26  C   UNL     1       1.629   3.369   6.295  0.00  0.00    +0.137 C 
BRANCH  26  27
ATOM     27  C   UNL     1       0.198   3.364   5.753  0.00  0.00    +0.135 C 
ATOM     28  C   UNL     1      -0.468   4.731   6.017  0.00  0.00    +0.035 C 
ATOM     29  C   UNL     1      -1.916   4.323   6.402  0.00  0.00    +0.031 C 
ATOM     30  C   UNL     1      -1.659   2.986   7.142  0.00  0.00    +0.160 C 
ATOM     31  O   UNL     1      -0.575   2.367   6.432  0.00  0.00    -0.375 OA
ENDBRANCH  26  27
ENDBRANCH  23  26
ENDBRANCH   3  20
TORSDOF 6
