REMARK  Name = ZINC39918055
REMARK  7 active torsions:
REMARK  status: ('A' for Active; 'I' for Inactive)
REMARK    1  A    between atoms: C_1  and  C_2
REMARK    2  A    between atoms: C_6  and  N_26
REMARK    3  A    between atoms: C_7  and  N_8
REMARK    4  A    between atoms: C_9  and  C_11
REMARK    5  A    between atoms: N_16  and  C_18
REMARK    6  A    between atoms: C_21  and  C_25
REMARK    7  A    between atoms: C_22  and  C_24
REMARK                            x       y       z     vdW  Elec       q    Type
REMARK                         _______ _______ _______ _____ _____    ______ ____
ROOT
ATOM      1  N   UNL     1      -0.227  -0.015   2.416  0.00  0.00    -0.283 N 
ATOM      2  C   UNL     1      -0.414  -0.699   3.562  0.00  0.00    +0.222 C 
ATOM      3  O   UNL     1      -0.599  -1.897   3.530  0.00  0.00    -0.275 OA
ATOM      4  H   UNL     1      -0.128   0.950   2.438  0.00  0.00    +0.155 HD
ENDROOT
BRANCH   1  11
ATOM      5  C   UNL     1       1.658  -2.127   2.132  0.00  0.00    +0.046 C 
ATOM      6  C   UNL     1       0.727  -1.734   1.014  0.00  0.00    -0.027 A 
ATOM      7  C   UNL     1       0.770  -2.408  -0.191  0.00  0.00    +0.005 A 
ATOM      8  C   UNL     1      -0.083  -2.048  -1.218  0.00  0.00    +0.003 A 
ATOM      9  C   UNL     1      -0.982  -1.011  -1.042  0.00  0.00    +0.034 A 
ATOM     10  C   UNL     1      -1.030  -0.333   0.160  0.00  0.00    +0.148 A 
ATOM     11  C   UNL     1      -0.178  -0.696   1.195  0.00  0.00    +0.067 A 
BRANCH  10  12
ATOM     12  N   UNL     1      -1.992   0.776   0.347  0.00  0.00    +0.058 N 
ATOM     13  O   UNL     1      -2.797   1.030  -0.518  0.00  0.00    -0.126 OA
ATOM     14  O   UNL     1      -1.972   1.428   1.365  0.00  0.00    -0.126 OA
ENDBRANCH  10  12
ENDBRANCH   1  11
BRANCH   2  15
ATOM     15  C   UNL     1      -0.393   0.025   4.884  0.00  0.00    +0.102 C 
ATOM     16  C   UNL     1      -1.565   1.029   4.984  0.00  0.00    +0.110 C 
ATOM     17  C   UNL     1      -2.664   0.248   5.671  0.00  0.00    +0.221 C 
ATOM     18  O   UNL     1      -3.834   0.568   5.692  0.00  0.00    -0.275 OA
ATOM     19  N   UNL     1      -2.155  -0.851   6.254  0.00  0.00    -0.271 N 
ATOM     20  C   UNL     1      -0.704  -0.940   6.049  0.00  0.00    +0.127 C 
BRANCH  19  21
ATOM     21  C   UNL     1      -2.911  -1.790   6.964  0.00  0.00    +0.037 A 
ATOM     22  C   UNL     1      -4.296  -1.686   6.998  0.00  0.00    +0.024 A 
ATOM     23  C   UNL     1      -5.039  -2.614   7.700  0.00  0.00    +0.005 A 
ATOM     24  C   UNL     1      -4.407  -3.646   8.370  0.00  0.00    -0.047 A 
ATOM     25  C   UNL     1      -3.028  -3.751   8.339  0.00  0.00    -0.046 A 
ATOM     26  C   UNL     1      -2.279  -2.830   7.633  0.00  0.00    +0.027 A 
ATOM     27  C   UNL     1      -2.343  -4.876   9.070  0.00  0.00    +0.044 C 
ATOM     28  C   UNL     1      -5.221  -4.656   9.136  0.00  0.00    +0.044 C 
ENDBRANCH  19  21
ENDBRANCH   2  15
TORSDOF 4
