REMARK  Name = ZINC57195548
REMARK  5 active torsions:
REMARK  status: ('A' for Active; 'I' for Inactive)
REMARK    1  A    between atoms: C_3  and  N_24
REMARK    2  A    between atoms: C_6  and  C_7
REMARK    3  A    between atoms: C_7  and  N_8
REMARK    4  A    between atoms: C_9  and  C_11
REMARK    5  A    between atoms: C_11  and  C_17
REMARK                            x       y       z     vdW  Elec       q    Type
REMARK                         _______ _______ _______ _____ _____    ______ ____
ROOT
ATOM      1  N   UNL     1      -3.151  -2.900  -0.406  0.00  0.00    -0.310 N 
ATOM      2  C   UNL     1      -3.309  -1.996  -1.393  0.00  0.00    +0.224 C 
ATOM      3  O   UNL     1      -2.779  -0.909  -1.310  0.00  0.00    -0.275 OA
ATOM      4  H   UNL     1      -3.516  -3.794  -0.503  0.00  0.00    +0.149 HD
ENDROOT
BRANCH   2   5
ATOM      5  C   UNL     1      -4.145  -2.338  -2.600  0.00  0.00    +0.076 C 
ATOM      6  C   UNL     1      -4.317  -1.091  -3.473  0.00  0.00    +0.049 C 
ATOM      7  C   UNL     1      -5.078  -0.024  -2.682  0.00  0.00    +0.161 C 
ATOM      8  O   UNL     1      -6.339  -0.552  -2.265  0.00  0.00    -0.380 OA
ATOM      9  C   UNL     1      -6.239  -1.691  -1.407  0.00  0.00    +0.161 C 
ATOM     10  C   UNL     1      -5.525  -2.825  -2.147  0.00  0.00    +0.049 C 
BRANCH   5  11
ATOM     11  C   UNL     1      -3.463  -3.422  -3.395  0.00  0.00    -0.032 A 
ATOM     12  C   UNL     1      -4.057  -4.664  -3.520  0.00  0.00    +0.006 A 
ATOM     13  C   UNL     1      -3.433  -5.658  -4.249  0.00  0.00    +0.020 A 
ATOM     14  C   UNL     1      -2.213  -5.411  -4.853  0.00  0.00    +0.041 A 
ATOM     15  C   UNL     1      -1.619  -4.168  -4.728  0.00  0.00    +0.020 A 
ATOM     16  C   UNL     1      -2.247  -3.172  -4.003  0.00  0.00    +0.006 A 
ATOM     17 CL   UNL     1      -1.428  -6.660  -5.768  0.00  0.00    -0.084 Cl
ENDBRANCH   5  11
ENDBRANCH   2   5
BRANCH   1  18
ATOM     18  C   UNL     1      -2.428  -2.533   0.814  0.00  0.00    +0.139 C 
BRANCH  18  24
ATOM     19  C   UNL     1      -1.349  -4.618   1.681  0.00  0.00    +0.007 A 
ATOM     20  C   UNL     1      -1.313  -5.700   2.539  0.00  0.00    +0.023 A 
ATOM     21  C   UNL     1      -2.326  -5.878   3.472  0.00  0.00    +0.035 A 
ATOM     22  C   UNL     1      -3.372  -4.968   3.539  0.00  0.00    +0.023 A 
ATOM     23  C   UNL     1      -3.402  -3.888   2.679  0.00  0.00    +0.007 A 
ATOM     24  C   UNL     1      -2.392  -3.713   1.751  0.00  0.00    -0.030 A 
BRANCH  21  25
ATOM     25  N   UNL     1      -2.293  -6.974   4.342  0.00  0.00    -0.270 N 
ATOM     26  C   UNL     1      -1.111  -7.441   4.793  0.00  0.00    +0.301 C 
ATOM     27  O   UNL     1      -0.082  -6.855   4.520  0.00  0.00    -0.253 OA
ATOM     28  N   UNL     1      -1.072  -8.558   5.546  0.00  0.00    -0.313 N 
ATOM     29  H   UNL     1      -3.120  -7.397   4.620  0.00  0.00    +0.156 HD
ATOM     30  H   UNL     1      -1.893  -9.026   5.763  0.00  0.00    +0.146 HD
ATOM     31  H   UNL     1      -0.222  -8.894   5.870  0.00  0.00    +0.146 HD
ENDBRANCH  21  25
ENDBRANCH  18  24
ENDBRANCH   1  18
TORSDOF 5
