REMARK  Name = ZINC40329222
REMARK  3 active torsions:
REMARK  status: ('A' for Active; 'I' for Inactive)
REMARK    1  A    between atoms: C_1  and  C_2
REMARK    2  A    between atoms: C_3  and  N_21
REMARK    3  A    between atoms: C_5  and  C_7
REMARK                            x       y       z     vdW  Elec       q    Type
REMARK                         _______ _______ _______ _____ _____    ______ ____
ROOT
ATOM      1  C   UNL     1       1.047  -4.020  -0.024  0.00  0.00    +0.253 C 
ATOM      2  O   UNL     1       0.290  -4.966   0.092  0.00  0.00    -0.269 OA
ATOM      3  N   UNL     1       2.374  -4.229  -0.133  0.00  0.00    -0.297 N 
ATOM      4  C   UNL     1       3.312  -3.098  -0.126  0.00  0.00    +0.110 C 
ATOM      5  C   UNL     1       4.363  -3.336   0.964  0.00  0.00    +0.054 C 
ATOM      6  C   UNL     1       5.007  -4.703   0.756  0.00  0.00    +0.115 C 
ATOM      7  C   UNL     1       3.962  -5.811   0.831  0.00  0.00    +0.054 C 
ATOM      8  C   UNL     1       2.909  -5.592  -0.254  0.00  0.00    +0.110 C 
ATOM      9  C   UNL     1       6.096  -4.934   1.778  0.00  0.00    +0.244 C 
ATOM     10  O   UNL     1       5.973  -4.979   2.984  0.00  0.00    -0.273 OA
ATOM     11  N   UNL     1       7.233  -5.080   1.067  0.00  0.00    -0.238 N 
ATOM     12  C   UNL     1       7.009  -4.973  -0.248  0.00  0.00    +0.307 C 
ATOM     13  O   UNL     1       7.878  -5.069  -1.092  0.00  0.00    -0.252 OA
ATOM     14  N   UNL     1       5.712  -4.748  -0.532  0.00  0.00    -0.285 N 
ATOM     15  H   UNL     1       8.105  -5.242   1.461  0.00  0.00    +0.159 HD
ATOM     16  H   UNL     1       5.321  -4.637  -1.412  0.00  0.00    +0.151 HD
ENDROOT
BRANCH   1  21
ATOM     17  C   UNL     1      -0.136   1.451  -0.575  0.00  0.00    +0.053 C 
ATOM     18  C   UNL     1      -0.057  -0.030  -0.308  0.00  0.00    +0.008 A 
ATOM     19  C   UNL     1      -0.968  -0.839   0.307  0.00  0.00    +0.035 A 
ATOM     20  C   UNL     1      -0.689  -2.178   0.447  0.00  0.00    +0.043 A 
ATOM     21  C   UNL     1       0.516  -2.654  -0.046  0.00  0.00    +0.076 A 
ATOM     22  S   UNL     1       1.250  -1.173  -0.721  0.00  0.00    -0.087 S 
BRANCH  19  23
ATOM     23  N   UNL     1      -2.179  -0.309   0.792  0.00  0.00    -0.357 N 
ATOM     24  H   UNL     1      -2.370   0.636   0.690  0.00  0.00    +0.142 HD
ATOM     25  H   UNL     1      -2.822  -0.890   1.228  0.00  0.00    +0.142 HD
ENDBRANCH  19  23
ENDBRANCH   1  21
TORSDOF 2
