REMARK  Name = ZINC15546103
REMARK  8 active torsions:
REMARK  status: ('A' for Active; 'I' for Inactive)
REMARK    1  A    between atoms: C_1  and  C_2
REMARK    2  A    between atoms: C_2  and  C_3
REMARK    3  A    between atoms: C_3  and  N_4
REMARK    4  A    between atoms: C_5  and  N_35
REMARK    5  A    between atoms: C_6  and  C_13
REMARK    6  A    between atoms: C_13  and  C_15
REMARK    7  A    between atoms: C_15  and  N_16
REMARK    8  A    between atoms: C_18  and  C_27
REMARK                            x       y       z     vdW  Elec       q    Type
REMARK                         _______ _______ _______ _____ _____    ______ ____
ROOT
ATOM      1  C   UNL     1       3.696   3.095  -0.080  0.00  0.00    +0.185 C 
ENDROOT
BRANCH   1   2
ATOM      2  N   UNL     1       4.828   4.031  -0.115  0.00  0.00    -0.316 N 
ATOM      3  C   UNL     1       6.072   3.366   0.290  0.00  0.00    +0.160 C 
ATOM      4  C   UNL     1       7.189   4.417   0.356  0.00  0.00    +0.276 C 
ATOM      5  O   UNL     1       6.843   5.363   1.373  0.00  0.00    -0.476 OA
ATOM      6  C   UNL     1       5.559   5.814   1.376  0.00  0.00    +0.143 A 
ATOM      7  C   UNL     1       4.562   5.168   0.654  0.00  0.00    +0.072 A 
ATOM      8  C   UNL     1       3.261   5.658   0.691  0.00  0.00    +0.027 A 
ATOM      9  C   UNL     1       2.962   6.782   1.435  0.00  0.00    +0.002 A 
ATOM     10  C   UNL     1       3.955   7.426   2.149  0.00  0.00    +0.004 A 
ATOM     11  C   UNL     1       5.250   6.944   2.121  0.00  0.00    +0.047 A 
BRANCH   4  12
ATOM     12  C   UNL     1       8.495   3.750   0.702  0.00  0.00    +0.258 C 
ATOM     13  O   UNL     1       9.048   4.007   1.750  0.00  0.00    -0.271 OA
ATOM     14  N   UNL     1       9.050   2.869  -0.154  0.00  0.00    -0.298 N 
ATOM     15  C   UNL     1       8.389   2.543  -1.425  0.00  0.00    +0.108 C 
ATOM     16  C   UNL     1       9.391   2.766  -2.568  0.00  0.00    +0.019 C 
ATOM     17  C   UNL     1      10.659   1.954  -2.292  0.00  0.00    +0.003 C 
ATOM     18  C   UNL     1      11.301   2.434  -0.989  0.00  0.00    +0.019 C 
ATOM     19  C   UNL     1      10.323   2.212   0.170  0.00  0.00    +0.108 C 
ENDBRANCH   4  12
ENDBRANCH   1   2
BRANCH   1  20
ATOM     20  C   UNL     1       3.439   2.671   1.343  0.00  0.00    +0.189 C 
ATOM     21  O   UNL     1       4.069   3.176   2.250  0.00  0.00    -0.290 OA
BRANCH  20  24
ATOM     22  N   UNL     1       1.343   0.230   3.143  0.00  0.00    -0.281 N 
ATOM     23  C   UNL     1       2.296   1.183   2.923  0.00  0.00    +0.116 A 
ATOM     24  C   UNL     1       2.467   1.686   1.621  0.00  0.00    +0.121 A 
ATOM     25  C   UNL     1       1.602   1.154   0.561  0.00  0.00    +0.266 A 
ATOM     26  O   UNL     1       1.706   1.553  -0.585  0.00  0.00    -0.267 OA
ATOM     27  N   UNL     1       0.690   0.213   0.882  0.00  0.00    -0.274 N 
ATOM     28  H   UNL     1       0.096  -0.162   0.170  0.00  0.00    +0.173 HD
ATOM     29  C   UNL     1       0.569  -0.226   2.145  0.00  0.00    +0.331 A 
ATOM     30  O   UNL     1      -0.269  -1.071   2.394  0.00  0.00    -0.246 OA
BRANCH  23  31
ATOM     31  N   UNL     1       3.069   1.637   3.946  0.00  0.00    -0.344 N 
ATOM     32  H   UNL     1       2.744   1.586   4.859  0.00  0.00    +0.144 HD
ATOM     33  H   UNL     1       3.945   2.012   3.764  0.00  0.00    +0.144 HD
ENDBRANCH  23  31
BRANCH  22  34
ATOM     34  C   UNL     1       1.157  -0.300   4.495  0.00  0.00    +0.128 C 
BRANCH  34  36
ATOM     35  C   UNL     1      -0.072  -0.006   6.651  0.00  0.00    +0.005 C 
ATOM     36  C   UNL     1       0.122   0.548   5.238  0.00  0.00    +0.018 C 
ENDBRANCH  34  36
ENDBRANCH  22  34
ENDBRANCH  20  24
ENDBRANCH   1  20
TORSDOF 7
