REMARK  Name = ZINC13633568
REMARK  8 active torsions:
REMARK  status: ('A' for Active; 'I' for Inactive)
REMARK    1  A    between atoms: C_1  and  C_2
REMARK    2  A    between atoms: C_2  and  C_3
REMARK    3  A    between atoms: C_5  and  C_26
REMARK    4  A    between atoms: C_7  and  C_20
REMARK    5  A    between atoms: C_10  and  C_11
REMARK    6  A    between atoms: C_10  and  O_19
REMARK    7  A    between atoms: C_16  and  O_17
REMARK    8  A    between atoms: O_17  and  C_18
REMARK                            x       y       z     vdW  Elec       q    Type
REMARK                         _______ _______ _______ _____ _____    ______ ____
ROOT
ATOM      1  C   UNL     1       2.682   1.406   1.378  0.00  0.00    +0.015 C 
ATOM      2  C   UNL     1       2.560  -0.113   1.526  0.00  0.00    -0.034 C 
ATOM      3  C   UNL     1       0.670  -0.166   0.010  0.00  0.00    -0.037 C 
ATOM      4  C   UNL     1       0.736   1.351  -0.183  0.00  0.00    +0.029 C 
ATOM      5  C   UNL     1       2.183   1.821  -0.009  0.00  0.00    +0.095 C 
ATOM      6  N   UNL     1       1.151  -0.517   1.360  0.00  0.00    +0.388 N 
ATOM      7  H   UNL     1       0.575  -0.034   2.060  0.00  0.00    -0.084 HD
ATOM      8  H   UNL     1       1.072  -1.532   1.493  0.00  0.00    -0.084 HD
ENDROOT
BRANCH   5   9
ATOM      9  C   UNL     1       2.244   3.321  -0.138  0.00  0.00    +0.026 A 
ATOM     10  C   UNL     1       1.089   4.043  -0.367  0.00  0.00    +0.010 A 
ATOM     11  C   UNL     1       1.145   5.419  -0.486  0.00  0.00    +0.001 A 
ATOM     12  C   UNL     1       2.357   6.077  -0.376  0.00  0.00    +0.004 A 
ATOM     13  C   UNL     1       3.514   5.359  -0.147  0.00  0.00    +0.046 A 
ATOM     14  C   UNL     1       3.460   3.978  -0.022  0.00  0.00    +0.126 A 
BRANCH  14  15
ATOM     15  O   UNL     1       4.597   3.270   0.209  0.00  0.00    -0.495 OA
ATOM     16  C   UNL     1       5.813   4.013   0.317  0.00  0.00    +0.277 C 
ENDBRANCH  14  15
ENDBRANCH   5   9
BRANCH   3  17
ATOM     17  C   UNL     1      -0.756  -0.630  -0.142  0.00  0.00    -0.061 A 
ATOM     18  C   UNL     1      -1.641  -0.497   0.911  0.00  0.00    +0.002 A 
ATOM     19  C   UNL     1      -2.950  -0.918   0.771  0.00  0.00    +0.000 A 
ATOM     20  C   UNL     1      -3.371  -1.482  -0.419  0.00  0.00    +0.000 A 
ATOM     21  C   UNL     1      -2.484  -1.619  -1.471  0.00  0.00    +0.000 A 
ATOM     22  C   UNL     1      -1.177  -1.193  -1.332  0.00  0.00    +0.002 A 
ENDBRANCH   3  17
BRANCH   2  23
ATOM     23  C   UNL     1       3.032  -0.523   2.897  0.00  0.00    -0.061 A 
ATOM     24  C   UNL     1       2.150  -0.519   3.961  0.00  0.00    +0.002 A 
ATOM     25  C   UNL     1       2.581  -0.900   5.218  0.00  0.00    +0.000 A 
ATOM     26  C   UNL     1       3.897  -1.276   5.412  0.00  0.00    +0.000 A 
ATOM     27  C   UNL     1       4.781  -1.275   4.349  0.00  0.00    +0.000 A 
ATOM     28  C   UNL     1       4.348  -0.898   3.091  0.00  0.00    +0.002 A 
ENDBRANCH   2  23
BRANCH   1  30
ATOM     29  C   UNL     1       2.144   3.592   2.461  0.00  0.00    +0.004 C 
ATOM     30  C   UNL     1       1.837   2.093   2.453  0.00  0.00    +0.002 C 
ENDBRANCH   1  30
BRANCH   5  31
ATOM     31  O   UNL     1       3.004   1.219  -1.012  0.00  0.00    -0.384 OA
ATOM     32  H   UNL     1       2.742   1.436  -1.917  0.00  0.00    +0.211 HD
ENDBRANCH   5  31
TORSDOF 6
