REMARK  Name = ZINC00936901
REMARK  6 active torsions:
REMARK  status: ('A' for Active; 'I' for Inactive)
REMARK    1  A    between atoms: C_1  and  C_2
REMARK    2  A    between atoms: C_3  and  C_27
REMARK    3  A    between atoms: C_4  and  C_12
REMARK    4  A    between atoms: C_17  and  O_18
REMARK    5  A    between atoms: O_18  and  C_19
REMARK    6  A    between atoms: C_19  and  C_20
REMARK                            x       y       z     vdW  Elec       q    Type
REMARK                         _______ _______ _______ _____ _____    ______ ____
ROOT
ATOM      1  C   UNL     1       2.643  -1.869   0.140  0.00  0.00    +0.066 C 
ATOM      2  C   UNL     1       1.223  -2.335   0.332  0.00  0.00    +0.052 C 
ATOM      3  C   UNL     1       0.254  -1.869  -0.511  0.00  0.00    +0.062 C 
ATOM      4  C   UNL     1      -1.163  -2.366  -0.280  0.00  0.00    +0.167 C 
ATOM      5  N   UNL     1      -1.344  -3.302   0.835  0.00  0.00    -0.208 N 
ATOM      6  C   UNL     1      -0.250  -3.664   1.583  0.00  0.00    +0.237 C 
ATOM      7  N   UNL     1       0.952  -3.188   1.310  0.00  0.00    -0.218 NA
ATOM      8  N   UNL     1      -0.685  -4.519   2.528  0.00  0.00    -0.205 NA
ATOM      9  C   UNL     1      -1.973  -4.707   2.411  0.00  0.00    +0.203 C 
ATOM     10  N   UNL     1      -2.443  -3.976   1.374  0.00  0.00    -0.251 N 
ATOM     11  H   UNL     1      -3.361  -3.929   1.065  0.00  0.00    +0.171 HD
ENDROOT
BRANCH   4  12
ATOM     12  C   UNL     1      -1.634  -3.045  -1.540  0.00  0.00    +0.022 A 
ATOM     13  C   UNL     1      -0.716  -3.484  -2.474  0.00  0.00    +0.024 A 
ATOM     14  C   UNL     1      -1.148  -4.107  -3.630  0.00  0.00    +0.018 A 
ATOM     15  C   UNL     1      -2.501  -4.294  -3.854  0.00  0.00    +0.019 A 
ATOM     16  C   UNL     1      -3.422  -3.857  -2.923  0.00  0.00    +0.047 A 
ATOM     17  C   UNL     1      -2.991  -3.236  -1.759  0.00  0.00    +0.126 A 
ATOM     18 BR   UNL     1       0.112  -4.706  -4.907  0.00  0.00    -0.050 Br
BRANCH  17  19
ATOM     19  O   UNL     1      -3.896  -2.810  -0.839  0.00  0.00    -0.487 OA
BRANCH  19  20
ATOM     20  C   UNL     1      -5.269  -3.112  -1.093  0.00  0.00    +0.264 C 
BRANCH  20  21
ATOM     21  C   UNL     1      -6.118  -2.566   0.026  0.00  0.00    -0.010 A 
ATOM     22  C   UNL     1      -6.386  -3.346   1.136  0.00  0.00    +0.007 A 
ATOM     23  C   UNL     1      -7.164  -2.845   2.162  0.00  0.00    +0.000 A 
ATOM     24  C   UNL     1      -7.675  -1.563   2.079  0.00  0.00    +0.000 A 
ATOM     25  C   UNL     1      -7.407  -0.782   0.970  0.00  0.00    +0.000 A 
ATOM     26  C   UNL     1      -6.625  -1.282  -0.054  0.00  0.00    +0.007 A 
ENDBRANCH  20  21
ENDBRANCH  19  20
ENDBRANCH  17  19
ENDBRANCH   4  12
BRANCH   3  27
ATOM     27  C   UNL     1       0.555  -0.968  -1.549  0.00  0.00    +0.241 C 
ATOM     28  O   UNL     1       1.714  -0.671  -1.781  0.00  0.00    -0.271 OA
ATOM     29  N   UNL     1      -0.438  -0.433  -2.286  0.00  0.00    -0.325 N 
ATOM     30  H   UNL     1      -1.356  -0.711  -2.139  0.00  0.00    +0.145 HD
ATOM     31  H   UNL     1      -0.236   0.230  -2.965  0.00  0.00    +0.145 HD
ENDBRANCH   3  27
TORSDOF 5
