REMARK  Name = ZINC07664762
REMARK  6 active torsions:
REMARK  status: ('A' for Active; 'I' for Inactive)
REMARK    1  A    between atoms: C_1  and  C_2
REMARK    2  A    between atoms: C_6  and  C_14
REMARK    3  A    between atoms: C_12  and  C_13
REMARK    4  A    between atoms: C_14  and  S_15
REMARK    5  A    between atoms: S_15  and  C_16
REMARK    6  A    between atoms: N_17  and  C_18
REMARK                            x       y       z     vdW  Elec       q    Type
REMARK                         _______ _______ _______ _____ _____    ______ ____
ROOT
ATOM      1  C   UNL     1       7.494   9.646   4.124  0.00  0.00    +0.044 C 
ATOM      2  C   UNL     1       7.194   8.524   3.164  0.00  0.00    -0.044 A 
ATOM      3  C   UNL     1       5.904   8.022   3.075  0.00  0.00    +0.004 A 
ATOM      4  C   UNL     1       5.613   7.005   2.211  0.00  0.00    +0.012 A 
ATOM      5  C   UNL     1       6.625   6.466   1.409  0.00  0.00    +0.022 A 
ATOM      6  C   UNL     1       6.345   5.374   0.472  0.00  0.00    -0.020 A 
ATOM      7  C   UNL     1       7.372   4.891  -0.274  0.00  0.00    +0.097 A 
ATOM      8  C   UNL     1       8.661   5.449  -0.137  0.00  0.00    +0.338 A 
ATOM      9  O   UNL     1       9.572   5.010  -0.815  0.00  0.00    -0.245 OA
ATOM     10  O   UNL     1       8.909   6.449   0.723  0.00  0.00    -0.422 OA
ATOM     11  C   UNL     1       7.933   6.971   1.497  0.00  0.00    +0.142 A 
ATOM     12  C   UNL     1       8.206   8.006   2.383  0.00  0.00    -0.005 A 
ATOM     13  C   UNL     1       9.603   8.560   2.490  0.00  0.00    +0.048 C 
ENDROOT
BRANCH   6  14
ATOM     14  C   UNL     1       4.958   4.799   0.343  0.00  0.00    +0.113 C 
BRANCH  14  15
ATOM     15  S   UNL     1       4.044   5.708  -0.927  0.00  0.00    -0.086 S 
BRANCH  15  16
ATOM     16  C   UNL     1       2.505   4.852  -0.868  0.00  0.00    +0.152 C 
ATOM     17  N   UNL     1       2.340   3.855  -0.028  0.00  0.00    -0.227 NA
ATOM     18  N   UNL     1       1.478   5.226  -1.700  0.00  0.00    -0.338 N 
ATOM     19  H   UNL     1       0.601   4.826  -1.597  0.00  0.00    +0.144 HD
ATOM     20  H   UNL     1       1.631   5.891  -2.389  0.00  0.00    +0.144 HD
BRANCH  17  21
ATOM     21  C   UNL     1       1.188   3.115  -0.061  0.00  0.00    +0.066 A 
ATOM     22  C   UNL     1       0.770   2.522  -1.254  0.00  0.00    +0.028 A 
ATOM     23  C   UNL     1      -0.392   1.778  -1.281  0.00  0.00    +0.002 A 
ATOM     24  C   UNL     1      -1.144   1.622  -0.130  0.00  0.00    +0.000 A 
ATOM     25  C   UNL     1      -0.733   2.203   1.056  0.00  0.00    +0.002 A 
ATOM     26  C   UNL     1       0.426   2.950   1.097  0.00  0.00    +0.028 A 
ENDBRANCH  17  21
ENDBRANCH  15  16
ENDBRANCH  14  15
ENDBRANCH   6  14
TORSDOF 4
