REMARK  Name = ZINC50163383
REMARK  6 active torsions:
REMARK  status: ('A' for Active; 'I' for Inactive)
REMARK    1  A    between atoms: C_1  and  C_2
REMARK    2  A    between atoms: C_3  and  S_9
REMARK    3  A    between atoms: S_9  and  N_12
REMARK    4  A    between atoms: N_12  and  C_13
REMARK    5  A    between atoms: C_13  and  C_15
REMARK    6  A    between atoms: C_13  and  C_16
REMARK                            x       y       z     vdW  Elec       q    Type
REMARK                         _______ _______ _______ _____ _____    ______ ____
ROOT
ATOM      1  N   UNL     1      -3.443  -0.496  -1.469  0.00  0.00    -0.186 NA
ATOM      2  H   UNL     1      -3.712   0.224  -2.060  0.00  0.00    +0.148 HD
ENDROOT
BRANCH   1   3
ATOM      3  S   UNL     1      -2.797  -0.150   0.016  0.00  0.00    +0.067 S 
ATOM      4  O   UNL     1      -3.492  -0.955   0.959  0.00  0.00    -0.152 OA
ATOM      5  O   UNL     1      -2.745   1.266   0.116  0.00  0.00    -0.152 OA
BRANCH   3   8
ATOM      6  C   UNL     1      -0.018   1.503   0.010  0.00  0.00    +0.066 C 
ATOM      7  C   UNL     1       0.002  -0.004   0.002  0.00  0.00    +0.050 A 
ATOM      8  C   UNL     1      -1.129  -0.716   0.004  0.00  0.00    +0.166 A 
ATOM      9  S   UNL     1      -0.508  -2.388  -0.008  0.00  0.00    -0.007 S 
ATOM     10  C   UNL     1       1.138  -2.048  -0.015  0.00  0.00    +0.290 A 
ATOM     11  O   UNL     1       2.072  -2.830  -0.024  0.00  0.00    -0.260 OA
ATOM     12  N   UNL     1       1.176  -0.699  -0.013  0.00  0.00    -0.318 N 
ATOM     13  H   UNL     1       2.025  -0.230  -0.020  0.00  0.00    +0.169 HD
ENDBRANCH   3   8
ENDBRANCH   1   3
BRANCH   1  14
ATOM     14  C   UNL     1      -3.606  -1.890  -1.890  0.00  0.00    +0.075 C 
ATOM     15  C   UNL     1      -5.028  -2.356  -1.569  0.00  0.00    +0.026 C 
BRANCH  14  16
ATOM     16  C   UNL     1      -3.361  -2.001  -3.396  0.00  0.00    -0.010 C 
ATOM     17  C   UNL     1      -1.938  -1.536  -3.717  0.00  0.00    +0.001 C 
ATOM     18  C   UNL     1      -1.676  -1.724  -5.215  0.00  0.00    -0.019 C 
ATOM     19  C   UNL     1      -1.906  -3.190  -5.587  0.00  0.00    -0.083 C 
ATOM     20  N   UNL     1      -3.291  -3.566  -5.280  0.00  0.00    +0.379 N 
ATOM     21  C   UNL     1      -3.529  -3.456  -3.836  0.00  0.00    -0.078 C 
ATOM     22  H   UNL     1      -3.922  -2.950  -5.771  0.00  0.00    -0.086 HD
ATOM     23  H   UNL     1      -3.454  -4.516  -5.576  0.00  0.00    -0.086 HD
ENDBRANCH  14  16
ENDBRANCH   1  14
TORSDOF 4
