REMARK  Name = ZINC09312200
REMARK  6 active torsions:
REMARK  status: ('A' for Active; 'I' for Inactive)
REMARK    1  A    between atoms: C_1  and  N_52
REMARK    2  A    between atoms: N_4  and  C_7
REMARK    3  A    between atoms: C_7  and  S_9
REMARK    4  A    between atoms: S_9  and  C_10
REMARK    5  A    between atoms: C_10  and  C_11
REMARK    6  A    between atoms: N_15  and  C_16
REMARK                            x       y       z     vdW  Elec       q    Type
REMARK                         _______ _______ _______ _____ _____    ______ ____
ROOT
ATOM      1  C   UNL     1      -3.482  -0.740   0.235  0.00  0.00    +0.124 A 
ATOM      2  N   UNL     1      -2.341  -0.021   0.131  0.00  0.00    -0.312 N 
ATOM      3  H   UNL     1      -2.374   0.946   0.068  0.00  0.00    +0.170 HD
ATOM      4  C   UNL     1      -1.130  -0.682   0.109  0.00  0.00    +0.233 A 
ATOM      5  N   UNL     1       0.002  -0.004   0.002  0.00  0.00    -0.213 NA
ATOM      6  N   UNL     1      -1.115  -2.020   0.203  0.00  0.00    -0.179 NA
ATOM      7  C   UNL     1      -2.252  -2.688   0.310  0.00  0.00    +0.217 A 
ATOM      8  N   UNL     1      -3.428  -2.044   0.325  0.00  0.00    -0.201 NA
ATOM      9  N   UNL     1      -2.227  -4.058   0.406  0.00  0.00    -0.327 N 
ATOM     10  H   UNL     1      -1.380  -4.530   0.395  0.00  0.00    +0.145 HD
ATOM     11  H   UNL     1      -3.057  -4.554   0.484  0.00  0.00    +0.145 HD
ENDROOT
BRANCH   5  12
ATOM     12  C   UNL     1      -0.016   1.361   0.018  0.00  0.00    +0.068 A 
ATOM     13  C   UNL     1      -0.040   2.074  -1.197  0.00  0.00    +0.028 A 
ATOM     14  C   UNL     1      -0.064   3.430  -1.206  0.00  0.00    +0.010 A 
ATOM     15  C   UNL     1      -0.052   4.144   0.007  0.00  0.00    -0.018 A 
ATOM     16  C   UNL     1      -0.070   5.548   0.020  0.00  0.00    +0.008 A 
ATOM     17  C   UNL     1      -0.058   6.212   1.209  0.00  0.00    +0.001 A 
ATOM     18  C   UNL     1      -0.028   5.519   2.418  0.00  0.00    +0.001 A 
ATOM     19  C   UNL     1      -0.010   4.159   2.445  0.00  0.00    +0.008 A 
ATOM     20  C   UNL     1      -0.022   3.439   1.237  0.00  0.00    -0.016 A 
ATOM     21  C   UNL     1      -0.004   2.036   1.229  0.00  0.00    +0.036 A 
ENDBRANCH   5  12
BRANCH   1  22
ATOM     22  C   UNL     1      -4.815  -0.038   0.254  0.00  0.00    +0.150 C 
BRANCH  22  23
ATOM     23  S   UNL     1      -5.261   0.364   1.962  0.00  0.00    -0.095 S 
BRANCH  23  24
ATOM     24  C   UNL     1      -6.814   1.154   1.695  0.00  0.00    +0.109 C 
ATOM     25  S   UNL     1      -7.427   1.320   0.105  0.00  0.00    -0.028 S 
BRANCH  24  29
ATOM     26  C   UNL     1      -8.554   4.653   5.459  0.00  0.00    -0.096 C 
ATOM     27  C   UNL     1      -8.795   3.633   3.276  0.00  0.00    -0.060 C 
ATOM     28  C   UNL     1      -8.816   2.289   2.542  0.00  0.00    +0.087 C 
ATOM     29  N   UNL     1      -7.518   1.626   2.742  0.00  0.00    -0.323 N 
ATOM     30  C   UNL     1      -7.012   1.488   4.116  0.00  0.00    +0.087 C 
ATOM     31  C   UNL     1      -7.059   2.870   4.788  0.00  0.00    -0.060 C 
ATOM     32  N   UNL     1      -8.439   3.396   4.692  0.00  0.00    +0.380 N 
ATOM     33  H   UNL     1      -9.087   2.704   5.087  0.00  0.00    -0.082 HD
ENDBRANCH  24  29
ENDBRANCH  23  24
ENDBRANCH  22  23
ENDBRANCH   1  22
TORSDOF 5
