REMARK  Name = ZINC19320900
REMARK  8 active torsions:
REMARK  status: ('A' for Active; 'I' for Inactive)
REMARK    1  A    between atoms: C_1  and  C_2
REMARK    2  A    between atoms: C_2  and  O_3
REMARK    3  A    between atoms: O_3  and  C_4
REMARK    4  A    between atoms: C_10  and  C_29
REMARK    5  A    between atoms: C_12  and  N_13
REMARK    6  A    between atoms: N_17  and  C_20
REMARK    7  A    between atoms: C_20  and  C_21
REMARK    8  A    between atoms: C_24  and  C_27
REMARK                            x       y       z     vdW  Elec       q    Type
REMARK                         _______ _______ _______ _____ _____    ______ ____
ROOT
ATOM      1  N   UNL     1       1.794  -7.716  -3.021  0.00  0.00    -0.181 NA
ATOM      2  C   UNL     1       1.282  -8.517  -2.110  0.00  0.00    +0.185 C 
ATOM      3  N   UNL     1       0.632  -8.035  -0.990  0.00  0.00    -0.304 N 
ATOM      4  C   UNL     1       0.897  -8.721   0.286  0.00  0.00    +0.193 C 
ATOM      5  N   UNL     1       0.752 -10.171   0.081  0.00  0.00    -0.267 NA
ATOM      6  C   UNL     1       1.652 -10.644  -0.983  0.00  0.00    +0.193 C 
ATOM      7  N   UNL     1       1.357  -9.893  -2.218  0.00  0.00    -0.304 N 
ATOM      8  H   UNL     1       1.223 -10.342  -3.067  0.00  0.00    +0.150 HD
ATOM      9  H   UNL     1       0.028  -7.278  -1.042  0.00  0.00    +0.150 HD
ENDROOT
BRANCH   1  18
ATOM     10  C   UNL     1       0.777  -1.810  -1.336  0.00  0.00    +0.121 A 
ATOM     11  C   UNL     1       0.235  -2.666  -0.373  0.00  0.00    +0.048 A 
ATOM     12  C   UNL     1       0.325  -4.018  -0.506  0.00  0.00    +0.032 A 
ATOM     13  C   UNL     1       0.969  -4.565  -1.627  0.00  0.00    +0.077 A 
ATOM     14  C   UNL     1       1.520  -3.697  -2.605  0.00  0.00    +0.025 A 
ATOM     15  C   UNL     1       1.407  -2.309  -2.442  0.00  0.00    +0.057 A 
ATOM     16  C   UNL     1       2.162  -4.266  -3.722  0.00  0.00    +0.051 A 
ATOM     17  N   UNL     1       2.225  -5.576  -3.811  0.00  0.00    -0.215 NA
ATOM     18  C   UNL     1       1.697  -6.367  -2.872  0.00  0.00    +0.254 A 
ATOM     19  N   UNL     1       1.082  -5.887  -1.802  0.00  0.00    -0.211 NA
ATOM     20  C   UNL     1       2.764  -3.391  -4.792  0.00  0.00    +0.066 C 
BRANCH  10  21
ATOM     21  O   UNL     1       0.671  -0.465  -1.174  0.00  0.00    -0.492 OA
BRANCH  21  23
ATOM     22  C   UNL     1      -0.019   1.526   0.010  0.00  0.00    +0.048 C 
ATOM     23  C   UNL     1       0.002  -0.004   0.002  0.00  0.00    +0.225 C 
ENDBRANCH  21  23
ENDBRANCH  10  21
ENDBRANCH   1  18
BRANCH   5  24
ATOM     24  C   UNL     1       0.984 -10.905   1.332  0.00  0.00    +0.122 C 
BRANCH  24  25
ATOM     25  C   UNL     1       0.592 -12.348   1.148  0.00  0.00    -0.033 A 
ATOM     26  C   UNL     1      -0.703 -12.751   1.416  0.00  0.00    +0.005 A 
ATOM     27  C   UNL     1      -1.063 -14.075   1.247  0.00  0.00    +0.003 A 
ATOM     28  C   UNL     1      -0.129 -14.995   0.810  0.00  0.00    -0.050 A 
ATOM     29  C   UNL     1       1.165 -14.592   0.542  0.00  0.00    +0.003 A 
ATOM     30  C   UNL     1       1.525 -13.267   0.706  0.00  0.00    +0.005 A 
ATOM     31  C   UNL     1      -0.522 -16.439   0.627  0.00  0.00    +0.044 C 
ENDBRANCH  24  25
ENDBRANCH   5  24
TORSDOF 5
