REMARK  Name = ZINC33271517
REMARK  6 active torsions:
REMARK  status: ('A' for Active; 'I' for Inactive)
REMARK    1  A    between atoms: C_1  and  C_2
REMARK    2  A    between atoms: C_2  and  O_3
REMARK    3  A    between atoms: O_3  and  C_4
REMARK    4  A    between atoms: C_8  and  C_10
REMARK    5  A    between atoms: C_18  and  C_31
REMARK    6  A    between atoms: C_26  and  C_30
REMARK                            x       y       z     vdW  Elec       q    Type
REMARK                         _______ _______ _______ _____ _____    ______ ____
ROOT
ATOM      1  C   UNL     1      -3.170   1.702   0.332  0.00  0.00    +0.063 C 
ATOM      2  C   UNL     1      -4.486   1.400   1.057  0.00  0.00    +0.109 C 
ATOM      3  C   UNL     1      -4.647   2.267   2.274  0.00  0.00    +0.219 C 
ATOM      4  O   UNL     1      -5.747   2.701   2.545  0.00  0.00    -0.275 OA
ATOM      5  N   UNL     1      -3.606   2.578   3.074  0.00  0.00    -0.270 N 
ATOM      6  C   UNL     1      -2.324   2.242   2.644  0.00  0.00    +0.135 A 
ATOM      7  C   UNL     1      -2.077   1.829   1.362  0.00  0.00    +0.023 A 
ATOM      8  C   UNL     1      -0.718   1.572   1.248  0.00  0.00    +0.066 A 
ATOM      9  N   UNL     1      -0.151   1.830   2.403  0.00  0.00    -0.168 NA
ATOM     10  N   UNL     1      -1.143   2.260   3.300  0.00  0.00    -0.193 N 
ATOM     11  C   UNL     1      -0.945   2.636   4.623  0.00  0.00    +0.196 A 
ATOM     12  N   UNL     1      -1.829   3.043   5.504  0.00  0.00    -0.221 NA
ATOM     13  C   UNL     1      -1.493   3.380   6.767  0.00  0.00    +0.081 A 
ATOM     14  C   UNL     1      -2.341   3.830   7.806  0.00  0.00    +0.029 A 
ATOM     15  C   UNL     1      -1.833   4.131   9.043  0.00  0.00    +0.005 A 
ATOM     16  C   UNL     1      -0.479   4.007   9.321  0.00  0.00    -0.049 A 
ATOM     17  C   UNL     1       0.379   3.570   8.329  0.00  0.00    +0.020 A 
ATOM     18  C   UNL     1      -0.120   3.265   7.087  0.00  0.00    +0.041 A 
ATOM     19  S   UNL     1       0.576   2.680   5.561  0.00  0.00    -0.048 S 
ATOM     20  C   UNL     1       0.050   4.345  10.691  0.00  0.00    +0.044 C 
ATOM     21  C   UNL     1      -0.013   1.086   0.008  0.00  0.00    +0.068 C 
ATOM     22  H   UNL     1      -3.783   3.083   4.035  0.00  0.00    +0.156 HD
ENDROOT
BRANCH   1  27
ATOM     23  C   UNL     1      -2.426  -0.197  -2.849  0.00  0.00    +0.121 A 
ATOM     24  C   UNL     1      -2.251  -1.486  -2.365  0.00  0.00    +0.045 A 
ATOM     25  C   UNL     1      -2.375  -1.737  -1.013  0.00  0.00    +0.004 A 
ATOM     26  C   UNL     1      -2.667  -0.704  -0.141  0.00  0.00    +0.004 A 
ATOM     27  C   UNL     1      -2.847   0.580  -0.621  0.00  0.00    -0.036 A 
ATOM     28  C   UNL     1      -2.724   0.836  -1.973  0.00  0.00    +0.050 A 
BRANCH  23  29
ATOM     29  O   UNL     1      -2.304   0.053  -4.180  0.00  0.00    -0.492 OA
BRANCH  29  31
ATOM     30  C   UNL     1      -1.899  -0.587  -6.475  0.00  0.00    +0.048 C 
ATOM     31  C   UNL     1      -1.995  -1.059  -5.023  0.00  0.00    +0.225 C 
ENDBRANCH  29  31
ENDBRANCH  23  29
ENDBRANCH   1  27
TORSDOF 3
