REMARK  Name = ZINC64024634
REMARK  7 active torsions:
REMARK  status: ('A' for Active; 'I' for Inactive)
REMARK    1  A    between atoms: C_4  and  C_7
REMARK    2  A    between atoms: C_7  and  N_8
REMARK    3  A    between atoms: N_8  and  C_9
REMARK    4  A    between atoms: C_9  and  N_11
REMARK    5  A    between atoms: N_11  and  N_12
REMARK    6  A    between atoms: C_13  and  C_15
REMARK    7  A    between atoms: C_18  and  C_23
REMARK                            x       y       z     vdW  Elec       q    Type
REMARK                         _______ _______ _______ _____ _____    ______ ____
ROOT
ATOM      1  N   UNL     1       4.937  -1.381   3.909  0.00  0.00    -0.231 N 
ATOM      2  C   UNL     1       5.338  -1.613   5.175  0.00  0.00    +0.265 C 
ATOM      3  O   UNL     1       6.333  -2.282   5.385  0.00  0.00    -0.268 OA
ATOM      4  H   UNL     1       4.105  -0.911   3.743  0.00  0.00    +0.173 HD
ENDROOT
BRANCH   2   5
ATOM      5  C   UNL     1       4.576  -1.058   6.300  0.00  0.00    +0.102 A 
ATOM      6  C   UNL     1       3.371  -0.383   6.072  0.00  0.00    +0.020 A 
ATOM      7  C   UNL     1       2.671   0.130   7.151  0.00  0.00    +0.028 A 
ATOM      8  C   UNL     1       3.169  -0.029   8.438  0.00  0.00    +0.056 A 
ATOM      9  N   UNL     1       4.348  -0.690   8.654  0.00  0.00    -0.321 N 
ATOM     10  H   UNL     1       4.681  -0.791   9.559  0.00  0.00    +0.169 HD
ATOM     11  C   UNL     1       5.049  -1.206   7.626  0.00  0.00    +0.261 A 
ATOM     12  O   UNL     1       6.094  -1.796   7.838  0.00  0.00    -0.267 OA
BRANCH   8  13
ATOM     13  C   UNL     1       2.425   0.516   9.575  0.00  0.00    +0.036 A 
ATOM     14  C   UNL     1       2.740   0.476  10.927  0.00  0.00    +0.017 A 
ATOM     15  C   UNL     1       1.837   1.081  11.768  0.00  0.00    +0.008 A 
ATOM     16  C   UNL     1       0.731   1.661  11.239  0.00  0.00    +0.046 A 
ATOM     17  S   UNL     1       0.883   1.410   9.585  0.00  0.00    -0.095 S 
ENDBRANCH   8  13
ENDBRANCH   2   5
BRANCH   1  18
ATOM     18  N   UNL     1       5.722  -1.818   2.834  0.00  0.00    -0.246 N 
ATOM     19  H   UNL     1       6.554  -2.288   3.001  0.00  0.00    +0.172 HD
BRANCH  18  20
ATOM     20  C   UNL     1       5.321  -1.587   1.569  0.00  0.00    +0.147 C 
ATOM     21  S   UNL     1       6.280  -2.121   0.255  0.00  0.00    -0.017 S 
BRANCH  20  22
ATOM     22  N   UNL     1       4.164  -0.934   1.337  0.00  0.00    -0.321 N 
ATOM     23  H   UNL     1       3.621  -0.631   2.082  0.00  0.00    +0.148 HD
BRANCH  22  24
ATOM     24  C   UNL     1       3.728  -0.682  -0.038  0.00  0.00    +0.138 C 
BRANCH  24  28
ATOM     25  C   UNL     1       0.007   1.415   0.007  0.00  0.00    +0.000 A 
ATOM     26  C   UNL     1       1.197   2.119   0.005  0.00  0.00    +0.000 A 
ATOM     27  C   UNL     1       2.401   1.440  -0.009  0.00  0.00    +0.005 A 
ATOM     28  C   UNL     1       2.416   0.058  -0.022  0.00  0.00    -0.030 A 
ATOM     29  C   UNL     1       1.226  -0.646  -0.019  0.00  0.00    +0.005 A 
ATOM     30  C   UNL     1       0.021   0.033  -0.006  0.00  0.00    +0.000 A 
ENDBRANCH  24  28
ENDBRANCH  22  24
ENDBRANCH  20  22
ENDBRANCH  18  20
ENDBRANCH   1  18
TORSDOF 7
