REMARK  Name = ZINC16167888
REMARK  6 active torsions:
REMARK  status: ('A' for Active; 'I' for Inactive)
REMARK    1  A    between atoms: C_7  and  N_30
REMARK    2  A    between atoms: C_9  and  C_11
REMARK    3  A    between atoms: C_11  and  O_12
REMARK    4  A    between atoms: O_12  and  C_13
REMARK    5  A    between atoms: C_13  and  C_15
REMARK    6  A    between atoms: C_15  and  C_20
REMARK                            x       y       z     vdW  Elec       q    Type
REMARK                         _______ _______ _______ _____ _____    ______ ____
ROOT
ATOM      1  C   UNL     1       4.586  -0.246   1.084  0.00  0.00    +0.318 C 
ATOM      2  O   UNL     1       4.970  -1.032   1.918  0.00  0.00    -0.250 OA
ENDROOT
BRANCH   1   3
ATOM      3  C   UNL     1       3.709  -0.717  -0.048  0.00  0.00    +0.093 C 
ATOM      4  C   UNL     1       4.421  -0.493  -1.398  0.00  0.00    +0.023 C 
ATOM      5  C   UNL     1       5.088  -1.856  -1.707  0.00  0.00    +0.001 C 
ATOM      6  C   UNL     1       4.032  -2.874  -1.210  0.00  0.00    +0.001 C 
ATOM      7  C   UNL     1       3.462  -2.231   0.072  0.00  0.00    +0.023 C 
BRANCH   3   8
ATOM      8  C   UNL     1       2.397   0.024  -0.027  0.00  0.00    -0.027 A 
ATOM      9  C   UNL     1       1.498  -0.135  -1.065  0.00  0.00    +0.008 A 
ATOM     10  C   UNL     1       0.295   0.544  -1.050  0.00  0.00    +0.050 A 
ATOM     11  C   UNL     1      -0.015   1.386   0.008  0.00  0.00    +0.162 A 
ATOM     12  C   UNL     1       0.887   1.543   1.053  0.00  0.00    +0.162 A 
ATOM     13  C   UNL     1       2.094   0.860   1.031  0.00  0.00    +0.054 A 
ATOM     14  O   UNL     1       0.600   2.358   2.105  0.00  0.00    -0.485 OA
ATOM     15  C   UNL     1      -0.450   3.312   1.912  0.00  0.00    +0.270 C 
ATOM     16  C   UNL     1      -1.638   2.593   1.258  0.00  0.00    +0.270 C 
ATOM     17  O   UNL     1      -1.200   2.055   0.005  0.00  0.00    -0.485 OA
ENDBRANCH   3   8
ENDBRANCH   1   3
BRANCH   1  18
ATOM     18  O   UNL     1       4.940   1.046   1.165  0.00  0.00    -0.456 OA
BRANCH  18  19
ATOM     19  C   UNL     1       5.786   1.428   2.282  0.00  0.00    +0.308 C 
BRANCH  19  28
ATOM     20  C   UNL     1       6.020   7.774   2.641  0.00  0.00    +0.001 A 
ATOM     21  C   UNL     1       4.908   7.306   3.337  0.00  0.00    +0.002 A 
ATOM     22  C   UNL     1       4.635   5.973   3.409  0.00  0.00    +0.028 A 
ATOM     23  C   UNL     1       5.485   5.057   2.773  0.00  0.00    +0.076 A 
ATOM     24  C   UNL     1       6.615   5.535   2.067  0.00  0.00    +0.040 A 
ATOM     25  C   UNL     1       6.867   6.911   2.012  0.00  0.00    +0.013 A 
ATOM     26  C   UNL     1       7.458   4.590   1.434  0.00  0.00    +0.128 A 
ATOM     27  N   UNL     1       7.149   3.304   1.541  0.00  0.00    -0.214 NA
ATOM     28  C   UNL     1       6.078   2.904   2.208  0.00  0.00    +0.169 A 
ATOM     29  N   UNL     1       5.263   3.735   2.814  0.00  0.00    -0.228 NA
BRANCH  26  30
ATOM     30  N   UNL     1       8.573   4.993   0.731  0.00  0.00    -0.343 N 
ATOM     31  H   UNL     1       8.789   5.937   0.664  0.00  0.00    +0.144 HD
ATOM     32  H   UNL     1       9.142   4.334   0.303  0.00  0.00    +0.144 HD
ENDBRANCH  26  30
ENDBRANCH  19  28
ENDBRANCH  18  19
ENDBRANCH   1  18
TORSDOF 6
