REMARK  Name = ZINC66244242
REMARK  5 active torsions:
REMARK  status: ('A' for Active; 'I' for Inactive)
REMARK    1  A    between atoms: C_6  and  C_7
REMARK    2  A    between atoms: C_10  and  C_12
REMARK    3  A    between atoms: C_12  and  N_13
REMARK    4  A    between atoms: N_15  and  C_16
REMARK    5  A    between atoms: C_16  and  C_17
REMARK                            x       y       z     vdW  Elec       q    Type
REMARK                         _______ _______ _______ _____ _____    ______ ____
ROOT
ATOM      1  N   UNL     1      -5.383  -0.985   1.423  0.00  0.00    -0.351 N 
ATOM      2  C   UNL     1      -6.723  -0.823   1.685  0.00  0.00    +0.169 C 
ATOM      3  N   UNL     1      -7.145  -0.772   2.917  0.00  0.00    -0.355 N 
ATOM      4  N   UNL     1      -7.618  -0.714   0.647  0.00  0.00    -0.371 N 
ATOM      5  H   UNL     1      -4.752  -1.062   2.156  0.00  0.00    +0.163 HD
ATOM      6  H   UNL     1      -7.304  -0.751  -0.270  0.00  0.00    +0.159 HD
ATOM      7  H   UNL     1      -8.563  -0.599   0.831  0.00  0.00    +0.159 HD
ATOM      8  H   UNL     1      -6.514  -0.849   3.650  0.00  0.00    +0.162 HD
ENDROOT
BRANCH   1   9
ATOM      9  C   UNL     1      -4.909  -1.042   0.039  0.00  0.00    +0.190 C 
BRANCH   9  13
ATOM     10  C   UNL     1      -1.266  -0.763   0.011  0.00  0.00    +0.135 A 
ATOM     11  C   UNL     1      -1.385  -2.118   0.010  0.00  0.00    +0.050 A 
ATOM     12  C   UNL     1      -2.765  -2.404   0.021  0.00  0.00    +0.047 A 
ATOM     13  C   UNL     1      -3.413  -1.223   0.027  0.00  0.00    +0.125 A 
ATOM     14  O   UNL     1      -2.504  -0.234   0.026  0.00  0.00    -0.458 OA
BRANCH  10  20
ATOM     15  C   UNL     1      -0.017   1.392   0.010  0.00  0.00    +0.012 A 
ATOM     16  C   UNL     1       1.170   2.095   0.002  0.00  0.00    +0.016 A 
ATOM     17  C   UNL     1       2.378   1.419  -0.013  0.00  0.00    +0.018 A 
ATOM     18  C   UNL     1       2.404   0.035  -0.021  0.00  0.00    +0.016 A 
ATOM     19  C   UNL     1       1.224  -0.680  -0.013  0.00  0.00    +0.012 A 
ATOM     20  C   UNL     1       0.002  -0.004   0.002  0.00  0.00    +0.017 A 
ATOM     21 BR   UNL     1       4.000   2.390  -0.025  0.00  0.00    -0.050 Br
ENDBRANCH  10  20
ENDBRANCH   9  13
ENDBRANCH   1   9
BRANCH   3  22
ATOM     22  C   UNL     1      -8.573  -0.599   3.196  0.00  0.00    +0.147 C 
BRANCH  22  23
ATOM     23  C   UNL     1      -8.798  -0.573   4.709  0.00  0.00    +0.137 C 
ATOM     24  C   UNL     1     -10.307  -0.426   5.026  0.00  0.00    +0.035 C 
ATOM     25  C   UNL     1     -10.373  -1.054   6.445  0.00  0.00    +0.031 C 
ATOM     26  C   UNL     1      -9.305  -2.165   6.361  0.00  0.00    +0.160 C 
ATOM     27  O   UNL     1      -8.411  -1.827   5.293  0.00  0.00    -0.375 OA
ENDBRANCH  22  23
ENDBRANCH   3  22
TORSDOF 5
