REMARK  Name = ZINC20618064
REMARK  7 active torsions:
REMARK  status: ('A' for Active; 'I' for Inactive)
REMARK    1  A    between atoms: C_1  and  N_2
REMARK    2  A    between atoms: N_2  and  C_3
REMARK    3  A    between atoms: N_2  and  C_4
REMARK    4  A    between atoms: C_4  and  C_5
REMARK    5  A    between atoms: C_5  and  N_6
REMARK    6  A    between atoms: C_7  and  C_9
REMARK    7  A    between atoms: C_12  and  N_15
REMARK                            x       y       z     vdW  Elec       q    Type
REMARK                         _______ _______ _______ _____ _____    ______ ____
ROOT
ATOM      1  C   UNL     1       3.347   3.817   0.250  0.00  0.00    +0.037 A 
ATOM      2  C   UNL     1       2.068   4.376   0.329  0.00  0.00    +0.015 A 
ATOM      3  C   UNL     1       0.959   3.565   0.249  0.00  0.00    +0.028 A 
ATOM      4  C   UNL     1       1.109   2.191   0.090  0.00  0.00    +0.067 A 
ATOM      5  C   UNL     1       2.381   1.631   0.016  0.00  0.00    +0.028 A 
ATOM      6  C   UNL     1       3.494   2.436   0.089  0.00  0.00    +0.015 A 
ENDROOT
BRANCH   4   7
ATOM      7  N   UNL     1      -0.017   1.374   0.010  0.00  0.00    -0.226 NA
ATOM      8  C   UNL     1       0.057   0.162  -0.642  0.00  0.00    +0.155 C 
ATOM      9  N   UNL     1       1.086  -0.325  -1.332  0.00  0.00    -0.318 N 
ATOM     10  C   UNL     1       0.965  -1.660  -1.813  0.00  0.00    +0.108 C 
ATOM     11  C   UNL     1       1.863  -2.308  -2.849  0.00  0.00    +0.189 C 
ATOM     12  S   UNL     1       0.904  -3.857  -3.188  0.00  0.00    -0.028 S 
ATOM     13  O   UNL     1       1.572  -4.958  -2.588  0.00  0.00    -0.174 OA
ATOM     14  O   UNL     1       0.574  -3.906  -4.570  0.00  0.00    -0.174 OA
ATOM     15  C   UNL     1      -0.628  -3.474  -2.213  0.00  0.00    +0.182 C 
ATOM     16  C   UNL     1      -0.528  -1.944  -2.218  0.00  0.00    +0.097 C 
ATOM     17  S   UNL     1      -1.220  -1.101  -0.752  0.00  0.00    -0.084 S 
ATOM     18  H   UNL     1       1.999   0.253  -1.537  0.00  0.00    +0.148 HD
ENDBRANCH   4   7
BRANCH   1  20
ATOM     19  N   UNL     1       5.771   4.142   0.258  0.00  0.00    -0.313 N 
ATOM     20  C   UNL     1       4.539   4.683   0.335  0.00  0.00    +0.244 C 
ATOM     21  O   UNL     1       4.410   5.883   0.474  0.00  0.00    -0.270 OA
ATOM     22  H   UNL     1       5.888   3.056   0.132  0.00  0.00    +0.149 HD
BRANCH  19  23
ATOM     23  C   UNL     1       6.955   5.002   0.342  0.00  0.00    +0.086 C 
BRANCH  23  24
ATOM     24  C   UNL     1       8.217   4.144   0.229  0.00  0.00    -0.061 C 
BRANCH  24  26
ATOM     25  C   UNL     1       9.515   5.619   1.644  0.00  0.00    -0.097 C 
ATOM     26  N   UNL     1       9.403   5.006   0.313  0.00  0.00    +0.377 N 
ATOM     27  C   UNL     1      10.622   4.259  -0.027  0.00  0.00    -0.097 C 
ATOM     28  H   UNL     1       9.286   5.815  -0.423  0.00  0.00    -0.083 HD
ENDBRANCH  24  26
ENDBRANCH  23  24
ENDBRANCH  19  23
ENDBRANCH   1  20
TORSDOF 5
