REMARK  Name = ZINC47777811
REMARK  8 active torsions:
REMARK  status: ('A' for Active; 'I' for Inactive)
REMARK    1  A    between atoms: C_1  and  C_2
REMARK    2  A    between atoms: C_2  and  C_4
REMARK    3  A    between atoms: C_2  and  N_11
REMARK    4  A    between atoms: C_4  and  N_5
REMARK    5  A    between atoms: N_14  and  C_15
REMARK    6  A    between atoms: C_15  and  C_16
REMARK    7  A    between atoms: C_16  and  C_18
REMARK    8  A    between atoms: C_16  and  N_23
REMARK                            x       y       z     vdW  Elec       q    Type
REMARK                         _______ _______ _______ _____ _____    ______ ____
ROOT
ATOM      1  N   UNL     1       0.730   0.561  -1.578  0.00  0.00    -0.296 N 
ATOM      2  C   UNL     1       0.104   0.344  -2.751  0.00  0.00    +0.300 C 
ATOM      3  O   UNL     1      -0.958   0.889  -2.984  0.00  0.00    -0.253 OA
ATOM      4  N   UNL     1       0.654  -0.478  -3.667  0.00  0.00    -0.301 N 
ATOM      5  H   UNL     1       1.577   0.127  -1.393  0.00  0.00    +0.151 HD
ATOM      6  H   UNL     1       1.501  -0.912  -3.482  0.00  0.00    +0.150 HD
ENDROOT
BRANCH   1   8
ATOM      7  C   UNL     1       0.525   2.900  -0.893  0.00  0.00    +0.029 C 
ATOM      8  C   UNL     1       0.132   1.455  -0.583  0.00  0.00    +0.085 C 
BRANCH   8   9
ATOM      9  C   UNL     1       0.637   1.076   0.811  0.00  0.00    +0.106 C 
BRANCH   9  10
ATOM     10  N   UNL     1       0.366  -0.345   1.061  0.00  0.00    -0.296 NA
ATOM     11  C   UNL     1      -1.080  -0.600   1.140  0.00  0.00    +0.112 C 
ATOM     12  C   UNL     1      -1.319  -2.098   1.341  0.00  0.00    +0.175 C 
ATOM     13  O   UNL     1      -0.629  -2.532   2.516  0.00  0.00    -0.377 OA
ATOM     14  C   UNL     1       0.782  -2.301   2.473  0.00  0.00    +0.175 C 
ATOM     15  C   UNL     1       1.042  -0.804   2.283  0.00  0.00    +0.112 C 
ENDBRANCH   9  10
ENDBRANCH   8   9
ENDBRANCH   1   8
BRANCH   4  16
ATOM     16  C   UNL     1      -0.027  -0.714  -4.942  0.00  0.00    +0.098 C 
BRANCH  16  17
ATOM     17  C   UNL     1       0.863  -1.571  -5.845  0.00  0.00    +0.016 C 
BRANCH  17  18
ATOM     18  N   UNL     1       2.161  -0.907  -6.026  0.00  0.00    +0.387 N 
ATOM     19  C   UNL     1       1.946   0.450  -6.542  0.00  0.00    -0.078 C 
ATOM     20  C   UNL     1       3.290   1.174  -6.656  0.00  0.00    -0.019 C 
ATOM     21  C   UNL     1       4.202   0.400  -7.612  0.00  0.00    -0.004 C 
ATOM     22  C   UNL     1       4.358  -1.035  -7.103  0.00  0.00    -0.019 C 
ATOM     23  C   UNL     1       2.975  -1.678  -6.973  0.00  0.00    -0.078 C 
ATOM     24  H   UNL     1       2.638  -0.855  -5.138  0.00  0.00    -0.081 HD
ENDBRANCH  17  18
BRANCH  17  25
ATOM     25  C   UNL     1       0.198  -1.747  -7.185  0.00  0.00    +0.093 A 
ATOM     26  C   UNL     1      -0.354  -2.884  -7.646  0.00  0.00    +0.043 A 
ATOM     27  C   UNL     1      -0.859  -2.601  -8.936  0.00  0.00    +0.041 A 
ATOM     28  C   UNL     1      -0.585  -1.308  -9.187  0.00  0.00    +0.195 A 
ATOM     29  O   UNL     1       0.050  -0.794  -8.120  0.00  0.00    -0.469 OA
ENDBRANCH  17  25
ENDBRANCH  16  17
ENDBRANCH   4  16
TORSDOF 7
