REMARK  Name = ZINC36559247
REMARK  2 active torsions:
REMARK  status: ('A' for Active; 'I' for Inactive)
REMARK    1  A    between atoms: C_1  and  N_2
REMARK    2  A    between atoms: C_5  and  C_13
REMARK                            x       y       z     vdW  Elec       q    Type
REMARK                         _______ _______ _______ _____ _____    ______ ____
ROOT
ATOM      1  C   UNL     1      -0.018   1.461   0.010  0.00  0.00    +0.174 C 
ATOM      2  N   UNL     1       0.002  -0.004   0.002  0.00  0.00    -0.248 N 
ATOM      3  C   UNL     1       0.008  -0.790  -1.120  0.00  0.00    +0.161 A 
ATOM      4  C   UNL     1       0.031  -2.126  -0.673  0.00  0.00    +0.078 A 
ATOM      5  C   UNL     1       0.045  -3.161  -1.627  0.00  0.00    +0.071 A 
ATOM      6  C   UNL     1       0.031  -2.813  -2.984  0.00  0.00    -0.008 A 
ATOM      7  C   UNL     1       0.002  -1.479  -3.340  0.00  0.00    +0.048 A 
ATOM      8  N   UNL     1      -0.005  -0.530  -2.417  0.00  0.00    -0.232 NA
ATOM      9  C   UNL     1      -0.033  -1.036  -4.782  0.00  0.00    +0.056 C 
ATOM     10  C   UNL     1       0.415  -2.167  -5.704  0.00  0.00    +0.006 C 
ATOM     11  C   UNL     1      -0.398  -3.422  -5.363  0.00  0.00    +0.005 C 
ATOM     12  C   UNL     1       0.052  -3.929  -3.994  0.00  0.00    +0.038 C 
ATOM     13  C   UNL     1       0.036  -2.078   0.785  0.00  0.00    +0.149 A 
ATOM     14  N   UNL     1       0.024  -0.819   1.138  0.00  0.00    -0.154 NA
ATOM     15  N   UNL     1       0.054  -3.177   1.649  0.00  0.00    -0.341 N 
ATOM     16  H   UNL     1       0.066  -4.077   1.287  0.00  0.00    +0.144 HD
ATOM     17  H   UNL     1       0.056  -3.040   2.609  0.00  0.00    +0.144 HD
ENDROOT
BRANCH   5  18
ATOM     18  C   UNL     1       0.074  -4.534  -1.222  0.00  0.00    +0.100 C 
ATOM     19  N   UNL     1       0.097  -5.623  -0.900  0.00  0.00    -0.191 NA
ENDBRANCH   5  18
TORSDOF 1
