REMARK  Name = ZINC64369716
REMARK  6 active torsions:
REMARK  status: ('A' for Active; 'I' for Inactive)
REMARK    1  A    between atoms: C_1  and  C_2
REMARK    2  A    between atoms: C_4  and  C_9
REMARK    3  A    between atoms: C_5  and  C_8
REMARK    4  A    between atoms: C_9  and  C_10
REMARK    5  A    between atoms: C_13  and  C_15
REMARK    6  A    between atoms: C_19  and  C_24
REMARK                            x       y       z     vdW  Elec       q    Type
REMARK                         _______ _______ _______ _____ _____    ______ ____
ROOT
ATOM      1  C   UNL     1      -3.254   0.917  -0.612  0.00  0.00    +0.109 A 
ATOM      2  C   UNL     1      -2.957   2.124  -1.127  0.00  0.00    +0.045 A 
ATOM      3  C   UNL     1      -3.880   3.043  -0.576  0.00  0.00    +0.048 A 
ATOM      4  C   UNL     1      -4.686   2.342   0.242  0.00  0.00    +0.137 A 
ATOM      5  O   UNL     1      -4.306   1.054   0.211  0.00  0.00    -0.461 OA
ENDROOT
BRANCH   4   6
ATOM      6  C   UNL     1      -5.826   2.905   1.051  0.00  0.00    +0.218 C 
ATOM      7  N   UNL     1      -6.851   1.869   1.348  0.00  0.00    -0.260 N 
ATOM      8  N   UNL     1      -6.665   1.196   2.519  0.00  0.00    -0.216 N 
ATOM      9  C   UNL     1      -7.068  -0.006   3.075  0.00  0.00    +0.255 A 
ATOM     10  N   UNL     1      -6.588  -0.071   4.281  0.00  0.00    -0.123 NA
ATOM     11  N   UNL     1      -5.897   0.984   4.539  0.00  0.00    -0.121 NA
ATOM     12  C   UNL     1      -5.899   1.764   3.504  0.00  0.00    +0.211 A 
ATOM     13  S   UNL     1      -5.309   3.283   2.781  0.00  0.00    -0.053 S 
ATOM     14  H   UNL     1      -7.781   2.255   1.296  0.00  0.00    +0.168 HD
BRANCH   9  15
ATOM     15  C   UNL     1      -7.915  -1.054   2.400  0.00  0.00    +0.454 C 
ATOM     16  F   UNL     1      -8.397  -1.952   3.359  0.00  0.00    -0.163 F 
ATOM     17  F   UNL     1      -8.992  -0.439   1.754  0.00  0.00    -0.163 F 
ATOM     18  F   UNL     1      -7.141  -1.746   1.462  0.00  0.00    -0.163 F 
ENDBRANCH   9  15
ENDBRANCH   4   6
BRANCH   1  19
ATOM     19  C   UNL     1      -2.532  -0.371  -0.914  0.00  0.00    +0.109 C 
BRANCH  19  22
ATOM     20  C   UNL     1      -0.019   1.526   0.010  0.00  0.00    +0.039 C 
ATOM     21  C   UNL     1       0.002  -0.004   0.002  0.00  0.00    +0.153 C 
ATOM     22  C   UNL     1      -1.409  -0.561   0.072  0.00  0.00    -0.014 C 
ATOM     23  C   UNL     1      -1.423  -1.257   1.211  0.00  0.00    +0.062 C 
ATOM     24  N   UNL     1      -0.222  -1.193   1.828  0.00  0.00    -0.159 NA
ATOM     25  N   UNL     1       0.629  -0.523   1.230  0.00  0.00    -0.180 NA
ATOM     26  C   UNL     1      -2.617  -2.011   1.738  0.00  0.00    +0.067 C 
ENDBRANCH  19  22
ENDBRANCH   1  19
TORSDOF 4
