REMARK  Name = ZINC45112427
REMARK  5 active torsions:
REMARK  status: ('A' for Active; 'I' for Inactive)
REMARK    1  A    between atoms: C_1  and  C_2
REMARK    2  A    between atoms: C_2  and  C_3
REMARK    3  A    between atoms: C_2  and  C_4
REMARK    4  A    between atoms: C_2  and  N_7
REMARK    5  A    between atoms: C_13  and  C_16
REMARK                            x       y       z     vdW  Elec       q    Type
REMARK                         _______ _______ _______ _____ _____    ______ ____
ROOT
ATOM      1  N   UNL     1       0.688  -0.477  -1.203  0.00  0.00    -0.286 N 
ATOM      2  C   UNL     1       1.972  -0.132  -1.427  0.00  0.00    +0.303 C 
ATOM      3  O   UNL     1       2.532   0.644  -0.678  0.00  0.00    -0.253 OA
ATOM      4  N   UNL     1       2.633  -0.647  -2.482  0.00  0.00    -0.286 N 
ATOM      5  C   UNL     1       1.938  -1.494  -3.461  0.00  0.00    +0.110 C 
ATOM      6  C   UNL     1       2.703  -2.813  -3.604  0.00  0.00    +0.034 C 
ATOM      7  C   UNL     1       4.163  -2.516  -3.954  0.00  0.00    +0.105 C 
ATOM      8  C   UNL     1       4.805  -1.705  -2.827  0.00  0.00    +0.034 C 
ATOM      9  C   UNL     1       4.063  -0.369  -2.678  0.00  0.00    +0.110 C 
ATOM     10  H   UNL     1       0.218  -1.038  -1.839  0.00  0.00    +0.151 HD
ENDROOT
BRANCH   1  12
ATOM     11  C   UNL     1      -0.019   1.525   0.011  0.00  0.00    +0.041 C 
ATOM     12  C   UNL     1       0.003  -0.005   0.003  0.00  0.00    +0.106 C 
ATOM     13  C   UNL     1       0.743  -0.511   1.242  0.00  0.00    +0.041 C 
BRANCH  12  14
ATOM     14  C   UNL     1      -1.411  -0.527   0.014  0.00  0.00    +0.233 C 
ATOM     15  O   UNL     1      -1.938  -0.829   1.064  0.00  0.00    -0.274 OA
ATOM     16  N   UNL     1      -2.090  -0.660  -1.143  0.00  0.00    -0.328 N 
ATOM     17  H   UNL     1      -1.669  -0.419  -1.983  0.00  0.00    +0.145 HD
ATOM     18  H   UNL     1      -3.000  -0.996  -1.135  0.00  0.00    +0.145 HD
ENDBRANCH  12  14
ENDBRANCH   1  12
BRANCH   7  19
ATOM     19  C   UNL     1       4.911  -3.813  -4.129  0.00  0.00    +0.359 C 
ATOM     20  O   UNL     1       5.732  -3.927  -5.023  0.00  0.00    -0.246 OA
ATOM     21  O   UNL     1       4.695  -4.747  -3.377  0.00  0.00    -0.246 OA
ENDBRANCH   7  19
TORSDOF 3
