REMARK  Name = ZINC16771159
REMARK  11 active torsions:
REMARK  status: ('A' for Active; 'I' for Inactive)
REMARK    1  A    between atoms: C_1  and  C_2
REMARK    2  A    between atoms: C_2  and  C_4
REMARK    3  A    between atoms: C_2  and  O_15
REMARK    4  A    between atoms: N_6  and  C_7
REMARK    5  A    between atoms: C_8  and  C_12
REMARK    6  A    between atoms: O_15  and  C_16
REMARK    7  A    between atoms: C_16  and  C_18
REMARK    8  A    between atoms: C_18  and  N_19
REMARK    9  A    between atoms: N_19  and  S_20
REMARK   10  A    between atoms: S_20  and  C_23
REMARK   11  A    between atoms: C_24  and  C_25
REMARK                            x       y       z     vdW  Elec       q    Type
REMARK                         _______ _______ _______ _____ _____    ______ ____
ROOT
ATOM      1  O   UNL     1      -0.692   1.554   1.203  0.00  0.00    -0.451 OA
ENDROOT
BRANCH   1   3
ATOM      2  C   UNL     1      -0.753   1.593  -1.232  0.00  0.00    +0.062 C 
ATOM      3  C   UNL     1      -0.013   1.086   0.008  0.00  0.00    +0.259 C 
BRANCH   3   4
ATOM      4  C   UNL     1       1.401   1.607  -0.003  0.00  0.00    +0.258 C 
ATOM      5  O   UNL     1       1.797   2.305   0.907  0.00  0.00    -0.271 OA
ATOM      6  N   UNL     1       2.226   1.299  -1.023  0.00  0.00    -0.276 N 
ATOM      7  H   UNL     1       1.909   0.741  -1.751  0.00  0.00    +0.155 HD
BRANCH   6   8
ATOM      8  C   UNL     1       3.526   1.779  -1.033  0.00  0.00    +0.084 A 
ATOM      9  C   UNL     1       4.518   1.567  -1.984  0.00  0.00    +0.065 A 
ATOM     10  C   UNL     1       5.794   2.196  -1.742  0.00  0.00    +0.022 A 
ATOM     11  C   UNL     1       5.918   2.922  -0.617  0.00  0.00    +0.048 A 
ATOM     12  S   UNL     1       4.312   2.781   0.140  0.00  0.00    -0.081 S 
BRANCH   9  13
ATOM     13  C   UNL     1       4.277   0.748  -3.176  0.00  0.00    +0.244 C 
ATOM     14  O   UNL     1       3.188   0.234  -3.352  0.00  0.00    -0.270 OA
ATOM     15  N   UNL     1       5.262   0.564  -4.077  0.00  0.00    -0.325 N 
ATOM     16  H   UNL     1       6.130   0.974  -3.938  0.00  0.00    +0.145 HD
ATOM     17  H   UNL     1       5.103   0.022  -4.866  0.00  0.00    +0.145 HD
ENDBRANCH   9  13
ENDBRANCH   6   8
ENDBRANCH   3   4
ENDBRANCH   1   3
BRANCH   1  18
ATOM     18  C   UNL     1      -1.655   0.765   1.705  0.00  0.00    +0.323 C 
ATOM     19  O   UNL     1      -1.921  -0.283   1.165  0.00  0.00    -0.249 OA
BRANCH  18  20
ATOM     20  C   UNL     1      -2.404   1.185   2.943  0.00  0.00    +0.226 C 
BRANCH  20  21
ATOM     21  N   UNL     1      -3.394   0.161   3.287  0.00  0.00    -0.180 NA
ATOM     22  H   UNL     1      -3.635  -0.517   2.637  0.00  0.00    +0.149 HD
BRANCH  21  23
ATOM     23  S   UNL     1      -4.101   0.162   4.784  0.00  0.00    +0.052 S 
ATOM     24  O   UNL     1      -5.021  -0.921   4.799  0.00  0.00    -0.154 OA
ATOM     25  O   UNL     1      -3.047   0.280   5.730  0.00  0.00    -0.154 OA
BRANCH  23  26
ATOM     26  C   UNL     1      -5.057   1.636   4.908  0.00  0.00    +0.153 C 
ATOM     27  C   UNL     1      -6.376   1.564   5.014  0.00  0.00    +0.028 C 
BRANCH  27  28
ATOM     28  C   UNL     1      -7.179   2.801   5.118  0.00  0.00    -0.024 A 
ATOM     29  C   UNL     1      -6.550   4.046   5.111  0.00  0.00    +0.008 A 
ATOM     30  C   UNL     1      -7.305   5.198   5.202  0.00  0.00    +0.001 A 
ATOM     31  C   UNL     1      -8.682   5.118   5.314  0.00  0.00    +0.000 A 
ATOM     32  C   UNL     1      -9.311   3.886   5.327  0.00  0.00    +0.001 A 
ATOM     33  C   UNL     1      -8.568   2.728   5.230  0.00  0.00    +0.008 A 
ENDBRANCH  27  28
ENDBRANCH  23  26
ENDBRANCH  21  23
ENDBRANCH  20  21
ENDBRANCH  18  20
ENDBRANCH   1  18
TORSDOF 10
