REMARK  Name = ZINC03623865
REMARK  5 active torsions:
REMARK  status: ('A' for Active; 'I' for Inactive)
REMARK    1  A    between atoms: C_1  and  C_2
REMARK    2  A    between atoms: C_5  and  N_8
REMARK    3  A    between atoms: C_17  and  C_21
REMARK    4  A    between atoms: C_17  and  N_25
REMARK    5  A    between atoms: C_26  and  C_28
REMARK                            x       y       z     vdW  Elec       q    Type
REMARK                         _______ _______ _______ _____ _____    ______ ____
ROOT
ATOM      1  N   UNL     1       5.261   7.429  -1.653  0.00  0.00    -0.249 N 
ATOM      2  C   UNL     1       4.034   6.912  -1.288  0.00  0.00    +0.125 A 
ATOM      3  C   UNL     1       3.936   6.254  -0.098  0.00  0.00    +0.097 A 
ATOM      4  C   UNL     1       5.060   6.115   0.725  0.00  0.00    +0.262 A 
ATOM      5  O   UNL     1       4.976   5.527   1.789  0.00  0.00    -0.267 OA
ATOM      6  N   UNL     1       6.240   6.636   0.326  0.00  0.00    -0.274 N 
ATOM      7  H   UNL     1       7.049   6.541   0.906  0.00  0.00    +0.173 HD
ATOM      8  C   UNL     1       6.329   7.284  -0.850  0.00  0.00    +0.335 A 
ATOM      9  O   UNL     1       7.399   7.748  -1.194  0.00  0.00    -0.246 OA
ATOM     10  C   UNL     1       2.499   5.807   0.031  0.00  0.00    +0.240 C 
ATOM     11  C   UNL     1       1.854   6.313  -1.244  0.00  0.00    +0.256 C 
ATOM     12  O   UNL     1       0.695   6.181  -1.573  0.00  0.00    -0.272 OA
ATOM     13  N   UNL     1       2.823   6.937  -1.937  0.00  0.00    -0.269 N 
ATOM     14  H   UNL     1       2.682   7.358  -2.800  0.00  0.00    +0.156 HD
ENDROOT
BRANCH   1  19
ATOM     15  C   UNL     1       5.800  10.188  -6.582  0.00  0.00    +0.044 C 
ATOM     16  C   UNL     1       5.657   9.456  -5.273  0.00  0.00    -0.050 A 
ATOM     17  C   UNL     1       5.386   8.100  -5.267  0.00  0.00    +0.005 A 
ATOM     18  C   UNL     1       5.255   7.425  -4.069  0.00  0.00    +0.026 A 
ATOM     19  C   UNL     1       5.394   8.110  -2.870  0.00  0.00    +0.053 A 
ATOM     20  C   UNL     1       5.661   9.473  -2.878  0.00  0.00    +0.026 A 
ATOM     21  C   UNL     1       5.797  10.141  -4.080  0.00  0.00    +0.005 A 
ENDBRANCH   1  19
BRANCH  10  22
ATOM     22  C   UNL     1       1.845   6.443   1.259  0.00  0.00    +0.424 C 
ATOM     23  F   UNL     1       2.530   6.044   2.412  0.00  0.00    -0.167 F 
ATOM     24  F   UNL     1       1.896   7.836   1.145  0.00  0.00    -0.167 F 
ATOM     25  F   UNL     1       0.511   6.030   1.343  0.00  0.00    -0.167 F 
ENDBRANCH  10  22
BRANCH  10  26
ATOM     26  N   UNL     1       2.418   4.346   0.104  0.00  0.00    -0.290 N 
ATOM     27  C   UNL     1       2.969   3.591  -0.867  0.00  0.00    +0.217 C 
ATOM     28  O   UNL     1       3.440   4.119  -1.852  0.00  0.00    -0.275 OA
ATOM     29  H   UNL     1       1.969   3.922   0.852  0.00  0.00    +0.150 HD
BRANCH  27  30
ATOM     30  C   UNL     1       2.998   2.090  -0.730  0.00  0.00    +0.075 C 
ATOM     31  C   UNL     1       3.671   1.479  -1.960  0.00  0.00    +0.013 C 
ATOM     32  C   UNL     1       3.701  -0.044  -1.821  0.00  0.00    +0.001 C 
ATOM     33  C   UNL     1       4.489  -0.427  -0.566  0.00  0.00    +0.000 C 
ATOM     34  C   UNL     1       3.815   0.185   0.664  0.00  0.00    +0.001 C 
ATOM     35  C   UNL     1       3.785   1.708   0.525  0.00  0.00    +0.013 C 
ENDBRANCH  27  30
ENDBRANCH  10  26
TORSDOF 4
