REMARK  Name = ZINC04248275
REMARK  7 active torsions:
REMARK  status: ('A' for Active; 'I' for Inactive)
REMARK    1  A    between atoms: C_1  and  C_2
REMARK    2  A    between atoms: C_2  and  N_3
REMARK    3  A    between atoms: C_12  and  C_24
REMARK    4  A    between atoms: C_18  and  C_22
REMARK    5  A    between atoms: C_18  and  C_23
REMARK    6  A    between atoms: C_27  and  O_30
REMARK    7  A    between atoms: O_30  and  C_31
REMARK                            x       y       z     vdW  Elec       q    Type
REMARK                         _______ _______ _______ _____ _____    ______ ____
ROOT
ATOM      1  N   UNL     1      -0.698   1.558   1.213  0.00  0.00    -0.282 N 
ATOM      2  C   UNL     1      -0.340   2.759   1.778  0.00  0.00    +0.116 A 
ATOM      3  C   UNL     1      -0.982   3.194   2.897  0.00  0.00    +0.067 A 
ATOM      4  C   UNL     1      -1.999   2.397   3.454  0.00  0.00    +0.260 A 
ATOM      5  O   UNL     1      -2.588   2.765   4.456  0.00  0.00    -0.267 OA
ATOM      6  N   UNL     1      -2.318   1.224   2.872  0.00  0.00    -0.275 N 
ATOM      7  H   UNL     1      -3.040   0.656   3.265  0.00  0.00    +0.173 HD
ATOM      8  C   UNL     1      -1.673   0.812   1.765  0.00  0.00    +0.331 A 
ATOM      9  O   UNL     1      -1.975  -0.250   1.257  0.00  0.00    -0.246 OA
ATOM     10  C   UNL     1      -0.611   4.498   3.541  0.00  0.00    +0.092 C 
ATOM     11  C   UNL     1       0.170   5.371   2.597  0.00  0.00    +0.024 C 
ATOM     12  C   UNL     1       0.759   4.854   1.498  0.00  0.00    +0.017 C 
ATOM     13  N   UNL     1       0.653   3.519   1.213  0.00  0.00    -0.303 N 
ATOM     14  C   UNL     1       1.554   5.727   0.559  0.00  0.00    +0.058 C 
ATOM     15  C   UNL     1       0.970   7.142   0.555  0.00  0.00    -0.023 C 
ATOM     16  C   UNL     1       1.008   7.686   1.987  0.00  0.00    +0.086 C 
ATOM     17  C   UNL     1       0.261   6.744   2.890  0.00  0.00    +0.162 C 
ATOM     18  O   UNL     1      -0.274   7.176   3.891  0.00  0.00    -0.292 OA
ATOM     19  C   UNL     1      -0.477   7.100   0.060  0.00  0.00    +0.011 C 
ATOM     20  C   UNL     1       1.801   8.043  -0.360  0.00  0.00    +0.011 C 
ATOM     21  H   UNL     1       1.287   3.107   0.605  0.00  0.00    +0.153 HD
ENDROOT
BRANCH  10  22
ATOM     22  C   UNL     1       0.238   4.225   4.755  0.00  0.00    -0.035 A 
ATOM     23  C   UNL     1       1.439   3.554   4.621  0.00  0.00    +0.008 A 
ATOM     24  C   UNL     1       2.223   3.308   5.731  0.00  0.00    +0.046 A 
ATOM     25  C   UNL     1       1.798   3.725   6.985  0.00  0.00    +0.120 A 
ATOM     26  C   UNL     1       0.590   4.393   7.118  0.00  0.00    +0.046 A 
ATOM     27  C   UNL     1      -0.187   4.642   6.003  0.00  0.00    +0.008 A 
BRANCH  25  28
ATOM     28  O   UNL     1       2.564   3.478   8.080  0.00  0.00    -0.495 OA
ATOM     29  C   UNL     1       3.795   2.785   7.868  0.00  0.00    +0.277 C 
ENDBRANCH  25  28
ENDBRANCH  10  22
BRANCH   1  31
ATOM     30  C   UNL     1      -0.753   1.593  -1.232  0.00  0.00    +0.027 C 
ATOM     31  C   UNL     1      -0.013   1.086   0.008  0.00  0.00    +0.125 C 
ENDBRANCH   1  31
TORSDOF 3
