REMARK  Name = ZINC63805175
REMARK  9 active torsions:
REMARK  status: ('A' for Active; 'I' for Inactive)
REMARK    1  A    between atoms: C_1  and  C_2
REMARK    2  A    between atoms: C_4  and  C_20
REMARK    3  A    between atoms: N_6  and  C_8
REMARK    4  A    between atoms: C_8  and  C_9
REMARK    5  A    between atoms: C_9  and  C_10
REMARK    6  A    between atoms: C_9  and  N_11
REMARK    7  A    between atoms: C_12  and  C_14
REMARK    8  A    between atoms: C_14  and  C_15
REMARK    9  A    between atoms: C_14  and  N_16
REMARK                            x       y       z     vdW  Elec       q    Type
REMARK                         _______ _______ _______ _____ _____    ______ ____
ROOT
ATOM      1  N   UNL     1       3.196  -0.219   2.696  0.00  0.00    -0.313 N 
ATOM      2  C   UNL     1       3.936   0.434   1.778  0.00  0.00    +0.233 C 
ATOM      3  O   UNL     1       4.596  -0.191   0.975  0.00  0.00    -0.274 OA
ATOM      4  H   UNL     1       2.614   0.277   3.292  0.00  0.00    +0.149 HD
ENDROOT
BRANCH   1   5
ATOM      5  C   UNL     1       3.272  -1.679   2.793  0.00  0.00    +0.053 C 
ATOM      6  C   UNL     1       4.427  -2.070   3.716  0.00  0.00    +0.026 C 
BRANCH   5   7
ATOM      7  C   UNL     1       1.958  -2.221   3.361  0.00  0.00    -0.057 C 
BRANCH   7  13
ATOM      8  C   UNL     1      -2.917  -2.087   2.943  0.00  0.00    +0.005 C 
ATOM      9  C   UNL     1      -1.597  -1.663   2.297  0.00  0.00    -0.031 C 
ATOM     10  C   UNL     1      -1.508  -2.246   0.883  0.00  0.00    +0.003 C 
ATOM     11  C   UNL     1      -0.151  -1.882   0.276  0.00  0.00    -0.031 C 
ATOM     12  C   UNL     1       0.965  -2.397   1.187  0.00  0.00    -0.076 C 
ATOM     13  N   UNL     1       0.841  -1.783   2.514  0.00  0.00    +0.381 N 
ATOM     14  C   UNL     1      -0.428  -2.187   3.133  0.00  0.00    -0.076 C 
ATOM     15  C   UNL     1      -0.042  -0.361   0.144  0.00  0.00    +0.005 C 
ATOM     16  H   UNL     1       0.864  -0.778   2.422  0.00  0.00    -0.082 HD
ENDBRANCH   7  13
ENDBRANCH   5   7
ENDBRANCH   1   5
BRANCH   2  17
ATOM     17  C   UNL     1       3.943   1.941   1.750  0.00  0.00    +0.157 C 
ATOM     18  C   UNL     1       2.692   2.443   1.028  0.00  0.00    +0.038 C 
BRANCH  17  19
ATOM     19  N   UNL     1       5.137   2.410   1.042  0.00  0.00    -0.289 N 
ATOM     20  C   UNL     1       5.636   3.635   1.302  0.00  0.00    +0.298 C 
ATOM     21  O   UNL     1       5.096   4.350   2.123  0.00  0.00    -0.253 OA
ATOM     22  N   UNL     1       6.734   4.067   0.650  0.00  0.00    -0.313 N 
ATOM     23  H   UNL     1       5.568   1.840   0.387  0.00  0.00    +0.151 HD
ATOM     24  H   UNL     1       7.165   3.497  -0.005  0.00  0.00    +0.146 HD
ATOM     25  H   UNL     1       7.094   4.949   0.837  0.00  0.00    +0.146 HD
ENDBRANCH  17  19
ENDBRANCH   2  17
TORSDOF 5
