REMARK  Name = ZINC01087811
REMARK  5 active torsions:
REMARK  status: ('A' for Active; 'I' for Inactive)
REMARK    1  A    between atoms: C_3  and  C_6
REMARK    2  A    between atoms: C_11  and  C_19
REMARK    3  A    between atoms: C_13  and  C_17
REMARK    4  A    between atoms: C_14  and  N_16
REMARK    5  A    between atoms: C_24  and  C_25
REMARK                            x       y       z     vdW  Elec       q    Type
REMARK                         _______ _______ _______ _____ _____    ______ ____
ROOT
ATOM      1  C   UNL     1       3.930   1.108  -0.591  0.00  0.00    +0.070 C 
ATOM      2  C   UNL     1       3.395   0.125   0.452  0.00  0.00    +0.086 C 
ATOM      3  C   UNL     1       1.885   0.100   0.400  0.00  0.00    +0.115 C 
ATOM      4  C   UNL     1       1.192   1.199   0.049  0.00  0.00    +0.046 C 
ATOM      5  C   UNL     1      -0.317   1.175   0.009  0.00  0.00    +0.105 C 
ATOM      6  C   UNL     1      -0.809  -0.244  -0.053  0.00  0.00    +0.098 C 
ATOM      7  C   UNL     1       0.005  -1.268   0.301  0.00  0.00    +0.198 C 
ATOM      8  O   UNL     1       1.261  -1.050   0.719  0.00  0.00    -0.445 OA
ATOM      9  C   UNL     1       1.845   2.399  -0.291  0.00  0.00    +0.164 C 
ATOM     10  O   UNL     1       1.185   3.375  -0.586  0.00  0.00    -0.292 OA
ATOM     11  C   UNL     1       3.347   2.494  -0.296  0.00  0.00    +0.091 C 
ENDROOT
BRANCH   5  12
ATOM     12  C   UNL     1      -0.860   1.839   1.248  0.00  0.00    +0.010 A 
ATOM     13  C   UNL     1      -0.503   1.562   2.521  0.00  0.00    +0.110 A 
ATOM     14  N   UNL     1      -1.213   2.369   3.339  0.00  0.00    -0.284 N 
ATOM     15  H   UNL     1      -1.158   2.387   4.337  0.00  0.00    +0.188 HD
ATOM     16  N   UNL     1      -2.040   3.174   2.546  0.00  0.00    -0.174 NA
ATOM     17  C   UNL     1      -1.827   2.863   1.284  0.00  0.00    +0.097 A 
BRANCH  17  18
ATOM     18  C   UNL     1      -2.490   3.480   0.109  0.00  0.00    +0.003 A 
ATOM     19  C   UNL     1      -1.757   3.752  -1.044  0.00  0.00    +0.013 A 
ATOM     20  C   UNL     1      -2.379   4.321  -2.137  0.00  0.00    +0.039 A 
ATOM     21  C   UNL     1      -3.728   4.630  -2.085  0.00  0.00    +0.123 A 
ATOM     22  C   UNL     1      -4.460   4.366  -0.938  0.00  0.00    +0.039 A 
ATOM     23  C   UNL     1      -3.847   3.793   0.157  0.00  0.00    +0.013 A 
ATOM     24  F   UNL     1      -4.333   5.191  -3.155  0.00  0.00    -0.205 F 
ENDBRANCH  17  18
ENDBRANCH   5  12
BRANCH   1  27
ATOM     25  C   UNL     1       7.593   1.058  -0.997  0.00  0.00    +0.041 A 
ATOM     26  C   UNL     1       6.287   0.875  -1.508  0.00  0.00    +0.045 A 
ATOM     27  C   UNL     1       5.434   1.164  -0.509  0.00  0.00    +0.109 A 
ATOM     28  O   UNL     1       6.149   1.515   0.572  0.00  0.00    -0.468 OA
ATOM     29  C   UNL     1       7.459   1.447   0.283  0.00  0.00    +0.195 A 
ENDBRANCH   1  27
BRANCH   7  30
ATOM     30  N   UNL     1      -0.466  -2.555   0.230  0.00  0.00    -0.328 N 
ATOM     31  H   UNL     1      -1.372  -2.725  -0.070  0.00  0.00    +0.145 HD
ATOM     32  H   UNL     1       0.108  -3.296   0.481  0.00  0.00    +0.145 HD
ENDBRANCH   7  30
BRANCH   6  33
ATOM     33  C   UNL     1      -2.146  -0.515  -0.488  0.00  0.00    +0.101 C 
ATOM     34  N   UNL     1      -3.207  -0.730  -0.834  0.00  0.00    -0.191 NA
ENDBRANCH   6  33
TORSDOF 5
