REMARK  Name = ZINC63818560
REMARK  9 active torsions:
REMARK  status: ('A' for Active; 'I' for Inactive)
REMARK    1  A    between atoms: C_1  and  O_2
REMARK    2  A    between atoms: O_2  and  C_3
REMARK    3  A    between atoms: C_3  and  C_5
REMARK    4  A    between atoms: C_5  and  C_7
REMARK    5  A    between atoms: C_5  and  N_17
REMARK    6  A    between atoms: C_7  and  C_8
REMARK    7  A    between atoms: C_18  and  C_20
REMARK    8  A    between atoms: N_25  and  C_27
REMARK    9  A    between atoms: C_27  and  C_28
REMARK                            x       y       z     vdW  Elec       q    Type
REMARK                         _______ _______ _______ _____ _____    ______ ____
ROOT
ATOM      1  N   UNL     1      -2.643  -2.570   0.013  0.00  0.00    -0.302 N 
ATOM      2  C   UNL     1      -3.306  -2.679   1.182  0.00  0.00    +0.219 C 
ATOM      3  O   UNL     1      -2.744  -2.417   2.224  0.00  0.00    -0.275 OA
ATOM      4  H   UNL     1      -3.092  -2.779  -0.820  0.00  0.00    +0.150 HD
ENDROOT
BRANCH   2   5
ATOM      5  C   UNL     1      -4.745  -3.126   1.193  0.00  0.00    +0.101 C 
ATOM      6  C   UNL     1      -4.877  -4.579   0.681  0.00  0.00    +0.110 C 
ATOM      7  C   UNL     1      -5.967  -5.178   1.542  0.00  0.00    +0.217 C 
ATOM      8  O   UNL     1      -6.569  -6.200   1.289  0.00  0.00    -0.276 OA
ATOM      9  N   UNL     1      -6.172  -4.413   2.628  0.00  0.00    -0.296 N 
ATOM     10  C   UNL     1      -5.273  -3.252   2.639  0.00  0.00    +0.121 C 
BRANCH   9  11
ATOM     11  C   UNL     1      -7.164  -4.700   3.667  0.00  0.00    +0.142 C 
BRANCH  11  12
ATOM     12  C   UNL     1      -6.537  -5.554   4.738  0.00  0.00    -0.030 A 
ATOM     13  C   UNL     1      -6.579  -6.932   4.635  0.00  0.00    +0.006 A 
ATOM     14  C   UNL     1      -6.004  -7.717   5.617  0.00  0.00    +0.020 A 
ATOM     15  C   UNL     1      -5.387  -7.122   6.704  0.00  0.00    +0.041 A 
ATOM     16  C   UNL     1      -5.346  -5.743   6.806  0.00  0.00    +0.020 A 
ATOM     17  C   UNL     1      -5.916  -4.960   5.821  0.00  0.00    +0.006 A 
ATOM     18 CL   UNL     1      -4.665  -8.107   7.938  0.00  0.00    -0.084 Cl
ENDBRANCH  11  12
ENDBRANCH   9  11
ENDBRANCH   2   5
BRANCH   1  19
ATOM     19  C   UNL     1      -1.244  -2.135   0.003  0.00  0.00    +0.186 C 
BRANCH  19  20
ATOM     20  C   UNL     1      -1.185  -0.630   0.010  0.00  0.00    +0.328 C 
ATOM     21  O   UNL     1      -2.208   0.015   0.023  0.00  0.00    -0.249 OA
BRANCH  20  23
ATOM     22  C   UNL     1      -0.017   1.425   0.010  0.00  0.00    +0.280 C 
ATOM     23  O   UNL     1       0.002  -0.004   0.002  0.00  0.00    -0.467 OA
ENDBRANCH  20  23
ENDBRANCH  19  20
BRANCH  19  24
ATOM     24  C   UNL     1      -0.555  -2.666  -1.256  0.00  0.00    +0.067 C 
BRANCH  24  25
ATOM     25  C   UNL     1      -0.505  -4.172  -1.204  0.00  0.00    -0.039 C 
ATOM     26  C   UNL     1      -1.383  -5.034  -1.765  0.00  0.00    -0.001 A 
ATOM     27  C   UNL     1      -2.601  -4.837  -2.559  0.00  0.00    +0.010 A 
ATOM     28  C   UNL     1      -3.286  -5.921  -2.990  0.00  0.00    +0.001 A 
ATOM     29  C   UNL     1      -2.862  -7.225  -2.698  0.00  0.00    +0.002 A 
ATOM     30  C   UNL     1      -1.753  -7.486  -1.974  0.00  0.00    +0.026 A 
ATOM     31  C   UNL     1      -0.956  -6.421  -1.470  0.00  0.00    +0.043 A 
ATOM     32  N   UNL     1       0.143  -6.416  -0.756  0.00  0.00    -0.380 N 
ATOM     33  C   UNL     1       0.542  -5.023  -0.521  0.00  0.00    +0.144 C 
ATOM     34  H   UNL     1       0.616  -7.201  -0.439  0.00  0.00    +0.160 HD
ENDBRANCH  24  25
ENDBRANCH  19  24
ENDBRANCH   1  19
TORSDOF 8
