REMARK  Name = ZINC54431267
REMARK  1 active torsions:
REMARK  status: ('A' for Active; 'I' for Inactive)
REMARK    1  A    between atoms: C_12  and  C_14
REMARK                            x       y       z     vdW  Elec       q    Type
REMARK                         _______ _______ _______ _____ _____    ______ ____
ROOT
ATOM      1  C   UNL     1      -0.058   1.522  -0.001  0.00  0.00    -0.003 C 
ATOM      2  C   UNL     1       1.381   2.049  -0.025  0.00  0.00    -0.019 C 
ATOM      3  C   UNL     1       2.083   1.500  -1.267  0.00  0.00    -0.078 C 
ATOM      4  N   UNL     1       2.114   0.030  -1.227  0.00  0.00    +0.384 N 
ATOM      5  C   UNL     1       2.848  -0.435  -2.415  0.00  0.00    -0.059 C 
ATOM      6  C   UNL     1       2.998  -1.957  -2.373  0.00  0.00    +0.089 C 
ATOM      7  N   UNL     1       1.654  -2.543  -2.245  0.00  0.00    -0.299 N 
ATOM      8  C   UNL     1       0.790  -2.039  -1.169  0.00  0.00    +0.093 C 
ATOM      9  C   UNL     1       0.749  -0.506  -1.232  0.00  0.00    -0.051 C 
ATOM     10  C   UNL     1      -0.018  -0.007  -0.003  0.00  0.00    -0.014 C 
ATOM     11  C   UNL     1       1.231  -3.508  -3.085  0.00  0.00    +0.272 C 
ATOM     12  O   UNL     1       0.150  -4.035  -2.910  0.00  0.00    -0.268 OA
ATOM     13  H   UNL     1       2.593  -0.274  -0.393  0.00  0.00    -0.081 HD
ENDROOT
BRANCH  11  14
ATOM     14  C   UNL     1       2.082  -3.924  -4.224  0.00  0.00    +0.210 A 
ATOM     15  C   UNL     1       1.702  -4.867  -5.282  0.00  0.00    +0.192 A 
ATOM     16  N   UNL     1       2.707  -4.985  -6.106  0.00  0.00    -0.033 NA
ATOM     17  O   UNL     1       3.754  -4.153  -5.640  0.00  0.00    -0.240 OA
ATOM     18  N   UNL     1       3.300  -3.511  -4.461  0.00  0.00    -0.042 NA
ATOM     19  N   UNL     1       0.482  -5.521  -5.388  0.00  0.00    -0.339 N 
ATOM     20  H   UNL     1      -0.209  -5.369  -4.724  0.00  0.00    +0.144 HD
ATOM     21  H   UNL     1       0.320  -6.129  -6.126  0.00  0.00    +0.144 HD
ENDBRANCH  11  14
TORSDOF 1
