REMARK  Name = ZINC54860601
REMARK  6 active torsions:
REMARK  status: ('A' for Active; 'I' for Inactive)
REMARK    1  A    between atoms: C_1  and  N_2
REMARK    2  A    between atoms: C_4  and  C_7
REMARK    3  A    between atoms: C_7  and  N_8
REMARK    4  A    between atoms: N_8  and  C_9
REMARK    5  A    between atoms: C_12  and  O_16
REMARK    6  A    between atoms: O_16  and  C_17
REMARK                            x       y       z     vdW  Elec       q    Type
REMARK                         _______ _______ _______ _____ _____    ______ ____
ROOT
ATOM      1  C   UNL     1       1.688  -4.924  -2.418  0.00  0.00    +0.030 A 
ATOM      2  C   UNL     1       0.644  -5.633  -2.997  0.00  0.00    +0.026 A 
ATOM      3  C   UNL     1       0.907  -6.770  -3.737  0.00  0.00    +0.050 A 
ATOM      4  C   UNL     1       2.213  -7.204  -3.902  0.00  0.00    +0.162 A 
ATOM      5  C   UNL     1       3.259  -6.496  -3.324  0.00  0.00    +0.167 A 
ATOM      6  C   UNL     1       2.997  -5.354  -2.588  0.00  0.00    +0.065 A 
ATOM      7  F   UNL     1       4.531  -6.919  -3.484  0.00  0.00    -0.202 F 
ENDROOT
BRANCH   1   8
ATOM      8  N   UNL     1       1.421  -3.773  -1.669  0.00  0.00    -0.338 N 
ATOM      9  H   UNL     1       2.151  -3.275  -1.268  0.00  0.00    +0.146 HD
BRANCH   8  10
ATOM     10  C   UNL     1       0.040  -3.319  -1.490  0.00  0.00    +0.160 C 
BRANCH  10  14
ATOM     11  C   UNL     1      -0.018   1.461   0.010  0.00  0.00    +0.174 C 
ATOM     12  N   UNL     1       0.002  -0.004   0.002  0.00  0.00    -0.254 N 
ATOM     13  C   UNL     1       0.008  -0.791  -1.099  0.00  0.00    +0.134 A 
ATOM     14  C   UNL     1       0.027  -2.067  -0.650  0.00  0.00    +0.100 A 
ATOM     15  N   UNL     1       0.032  -2.000   0.686  0.00  0.00    -0.133 NA
ATOM     16  N   UNL     1       0.023  -0.764   1.041  0.00  0.00    -0.066 NA
ENDBRANCH  10  14
ENDBRANCH   8  10
ENDBRANCH   1   8
BRANCH   4  17
ATOM     17  O   UNL     1       2.470  -8.324  -4.630  0.00  0.00    -0.431 OA
BRANCH  17  18
ATOM     18  C   UNL     1       1.347  -9.002  -5.196  0.00  0.00    +0.541 C 
ATOM     19  F   UNL     1       0.485  -9.409  -4.172  0.00  0.00    -0.166 F 
ATOM     20  F   UNL     1       0.668  -8.139  -6.062  0.00  0.00    -0.166 F 
ENDBRANCH  17  18
ENDBRANCH   4  17
TORSDOF 5
