REMARK  Name = ZINC21355396
REMARK  6 active torsions:
REMARK  status: ('A' for Active; 'I' for Inactive)
REMARK    1  A    between atoms: C_3  and  N_9
REMARK    2  A    between atoms: C_6  and  C_7
REMARK    3  A    between atoms: N_9  and  C_10
REMARK    4  A    between atoms: C_10  and  C_11
REMARK    5  A    between atoms: N_13  and  C_14
REMARK    6  A    between atoms: C_19  and  C_22
REMARK                            x       y       z     vdW  Elec       q    Type
REMARK                         _______ _______ _______ _____ _____    ______ ____
ROOT
ATOM      1  C   UNL     1       5.986   2.414  -0.043  0.00  0.00    +0.230 C 
ATOM      2  O   UNL     1       5.747   3.603  -0.035  0.00  0.00    -0.274 OA
ATOM      3  N   UNL     1       7.263   1.984  -0.058  0.00  0.00    -0.311 N 
ATOM      4  H   UNL     1       7.455   1.033  -0.064  0.00  0.00    +0.149 HD
ENDROOT
BRANCH   3   5
ATOM      5  C   UNL     1       8.363   2.952  -0.064  0.00  0.00    +0.074 C 
ATOM      6  C   UNL     1       8.648   3.391  -1.501  0.00  0.00    +0.022 C 
ATOM      7  C   UNL     1       9.796   4.402  -1.507  0.00  0.00    +0.002 C 
ATOM      8  C   UNL     1      11.049   3.756  -0.913  0.00  0.00    +0.012 C 
ATOM      9  C   UNL     1      10.763   3.317   0.525  0.00  0.00    +0.095 C 
ATOM     10  C   UNL     1       9.615   2.305   0.531  0.00  0.00    +0.034 C 
BRANCH   9  11
ATOM     11  C   UNL     1      12.016   2.670   1.119  0.00  0.00    +0.393 C 
ATOM     12  F   UNL     1      13.066   3.595   1.113  0.00  0.00    -0.170 F 
ATOM     13  F   UNL     1      11.755   2.269   2.433  0.00  0.00    -0.170 F 
ATOM     14  F   UNL     1      12.373   1.555   0.353  0.00  0.00    -0.170 F 
ENDBRANCH   9  11
ENDBRANCH   3   5
BRANCH   1  15
ATOM     15  C   UNL     1       4.856   1.418  -0.037  0.00  0.00    +0.197 C 
BRANCH  15  16
ATOM     16  N   UNL     1       3.576   2.131  -0.021  0.00  0.00    -0.335 N 
ATOM     17  H   UNL     1       3.562   3.101  -0.016  0.00  0.00    +0.147 HD
BRANCH  16  20
ATOM     18  C   UNL     1      -0.017   1.394   0.010  0.00  0.00    +0.020 A 
ATOM     19  C   UNL     1       1.167   2.097   0.002  0.00  0.00    +0.024 A 
ATOM     20  C   UNL     1       2.381   1.417  -0.013  0.00  0.00    +0.028 A 
ATOM     21  C   UNL     1       2.404   0.026  -0.021  0.00  0.00    +0.024 A 
ATOM     22  C   UNL     1       1.224  -0.683  -0.014  0.00  0.00    +0.020 A 
ATOM     23  C   UNL     1       0.002  -0.004   0.002  0.00  0.00    +0.052 A 
BRANCH  23  24
ATOM     24  C   UNL     1      -1.227  -0.739   0.010  0.00  0.00    +0.099 C 
ATOM     25  N   UNL     1      -2.202  -1.321   0.017  0.00  0.00    -0.191 NA
ENDBRANCH  23  24
ENDBRANCH  16  20
ENDBRANCH  15  16
ENDBRANCH   1  15
TORSDOF 6
