REMARK  Name = ZINC65136714
REMARK  7 active torsions:
REMARK  status: ('A' for Active; 'I' for Inactive)
REMARK    1  A    between atoms: C_1  and  C_2
REMARK    2  A    between atoms: C_2  and  C_3
REMARK    3  A    between atoms: C_2  and  C_4
REMARK    4  A    between atoms: C_4  and  C_5
REMARK    5  A    between atoms: C_5  and  N_6
REMARK    6  A    between atoms: N_9  and  N_10
REMARK    7  A    between atoms: C_11  and  C_13
REMARK                            x       y       z     vdW  Elec       q    Type
REMARK                         _______ _______ _______ _____ _____    ______ ____
ROOT
ATOM      1  N   UNL     1       2.873  -0.545  -2.413  0.00  0.00    -0.298 N 
ATOM      2  C   UNL     1       4.184  -0.286  -2.587  0.00  0.00    +0.316 C 
ATOM      3  O   UNL     1       4.798   0.340  -1.745  0.00  0.00    -0.251 OA
ATOM      4  N   UNL     1       4.815  -0.721  -3.696  0.00  0.00    -0.218 N 
ATOM      5  H   UNL     1       2.384  -1.045  -3.085  0.00  0.00    +0.150 HD
ATOM      6  H   UNL     1       5.758  -0.534  -3.822  0.00  0.00    +0.174 HD
ENDROOT
BRANCH   4   7
ATOM      7  N   UNL     1       4.108  -1.442  -4.667  0.00  0.00    -0.233 N 
ATOM      8  C   UNL     1       4.739  -1.877  -5.776  0.00  0.00    +0.232 C 
ATOM      9  O   UNL     1       5.918  -1.644  -5.933  0.00  0.00    -0.274 OA
ATOM     10  H   UNL     1       3.164  -1.629  -4.541  0.00  0.00    +0.173 HD
BRANCH   8  11
ATOM     11  C   UNL     1       3.978  -2.653  -6.821  0.00  0.00    +0.081 C 
ATOM     12  C   UNL     1       3.417  -3.935  -6.199  0.00  0.00    +0.041 C 
ATOM     13  C   UNL     1       2.714  -4.754  -7.284  0.00  0.00    +0.160 C 
ATOM     14  O   UNL     1       3.638  -5.040  -8.337  0.00  0.00    -0.380 OA
ATOM     15  C   UNL     1       4.159  -3.879  -8.987  0.00  0.00    +0.160 C 
ATOM     16  C   UNL     1       4.920  -3.025  -7.969  0.00  0.00    +0.041 C 
ENDBRANCH   8  11
ENDBRANCH   4   7
BRANCH   1  17
ATOM     17  C   UNL     1       2.187  -0.073  -1.207  0.00  0.00    +0.106 C 
BRANCH  17  18
ATOM     18  C   UNL     1       0.718  -0.497  -1.257  0.00  0.00    +0.022 C 
BRANCH  18  20
ATOM     19  C   UNL     1      -0.019   1.526   0.010  0.00  0.00    +0.007 C 
ATOM     20  C   UNL     1       0.002  -0.004   0.002  0.00  0.00    -0.016 C 
ATOM     21  C   UNL     1      -1.433  -0.534   0.013  0.00  0.00    +0.007 C 
ENDBRANCH  18  20
ENDBRANCH  17  18
ENDBRANCH   1  17
TORSDOF 5
