REMARK  Name = ZINC46877585
REMARK  7 active torsions:
REMARK  status: ('A' for Active; 'I' for Inactive)
REMARK    1  A    between atoms: C_1  and  C_2
REMARK    2  A    between atoms: C_2  and  C_25
REMARK    3  A    between atoms: N_5  and  C_9
REMARK    4  A    between atoms: C_9  and  C_10
REMARK    5  A    between atoms: N_12  and  C_13
REMARK    6  A    between atoms: C_18  and  N_19
REMARK    7  A    between atoms: C_29  and  C_31
REMARK                            x       y       z     vdW  Elec       q    Type
REMARK                         _______ _______ _______ _____ _____    ______ ____
ROOT
ATOM      1  C   UNL     1      -0.009   1.531   0.023  0.00  0.00    +0.047 C 
ATOM      2  C   UNL     1       0.004   0.001   0.003  0.00  0.00    +0.135 C 
ATOM      3  C   UNL     1       0.816  -0.509  -1.171  0.00  0.00    +0.251 C 
ATOM      4  O   UNL     1       0.600  -0.320  -2.349  0.00  0.00    -0.272 OA
ATOM      5  N   UNL     1       1.830  -1.216  -0.633  0.00  0.00    -0.215 N 
ATOM      6  C   UNL     1       1.771  -1.223   0.704  0.00  0.00    +0.310 C 
ATOM      7  O   UNL     1       2.577  -1.794   1.412  0.00  0.00    -0.252 OA
ATOM      8  N   UNL     1       0.722  -0.527   1.176  0.00  0.00    -0.281 N 
ATOM      9  H   UNL     1       0.484  -0.397   2.107  0.00  0.00    +0.152 HD
ENDROOT
BRANCH   2  10
ATOM     10  C   UNL     1      -1.402  -0.539  -0.046  0.00  0.00    -0.015 A 
ATOM     11  C   UNL     1      -2.004  -0.790  -1.266  0.00  0.00    +0.006 A 
ATOM     12  C   UNL     1      -3.294  -1.285  -1.310  0.00  0.00    +0.001 A 
ATOM     13  C   UNL     1      -3.981  -1.531  -0.136  0.00  0.00    +0.012 A 
ATOM     14  C   UNL     1      -3.379  -1.282   1.082  0.00  0.00    +0.055 A 
ATOM     15  C   UNL     1      -2.087  -0.790   1.127  0.00  0.00    +0.018 A 
BRANCH  14  16
ATOM     16  C   UNL     1      -4.128  -1.549   2.362  0.00  0.00    +0.417 C 
ATOM     17  F   UNL     1      -5.402  -2.042   2.062  0.00  0.00    -0.166 F 
ATOM     18  F   UNL     1      -3.430  -2.494   3.123  0.00  0.00    -0.166 F 
ATOM     19  F   UNL     1      -4.247  -0.360   3.090  0.00  0.00    -0.166 F 
ENDBRANCH  14  16
ENDBRANCH   2  10
BRANCH   5  20
ATOM     20  C   UNL     1       2.867  -1.893  -1.415  0.00  0.00    +0.214 C 
BRANCH  20  21
ATOM     21  C   UNL     1       4.020  -0.951  -1.643  0.00  0.00    +0.235 C 
ATOM     22  O   UNL     1       3.980   0.176  -1.196  0.00  0.00    -0.274 OA
ATOM     23  N   UNL     1       5.097  -1.360  -2.344  0.00  0.00    -0.282 N 
ATOM     24  H   UNL     1       5.165  -2.283  -2.633  0.00  0.00    +0.155 HD
BRANCH  23  25
ATOM     25  C   UNL     1       6.116  -0.452  -2.654  0.00  0.00    +0.061 A 
ATOM     26  C   UNL     1       5.840   0.905  -2.730  0.00  0.00    +0.045 A 
ATOM     27  C   UNL     1       6.848   1.800  -3.036  0.00  0.00    +0.043 A 
ATOM     28  C   UNL     1       8.135   1.345  -3.268  0.00  0.00    +0.022 A 
ATOM     29  C   UNL     1       8.418  -0.005  -3.195  0.00  0.00    +0.031 A 
ATOM     30  C   UNL     1       7.413  -0.909  -2.883  0.00  0.00    +0.088 A 
ATOM     31 CL   UNL     1       6.500   3.498  -3.130  0.00  0.00    -0.083 Cl
BRANCH  30  32
ATOM     32  N   UNL     1       7.700  -2.280  -2.802  0.00  0.00    -0.218 N 
ATOM     33  C   UNL     1       8.913  -2.858  -2.898  0.00  0.00    +0.225 A 
ATOM     34  N   UNL     1       8.757  -4.151  -2.771  0.00  0.00    -0.222 NA
ATOM     35  C   UNL     1       7.467  -4.436  -2.594  0.00  0.00    +0.245 A 
ATOM     36  N   UNL     1       6.781  -3.322  -2.599  0.00  0.00    -0.153 NA
ENDBRANCH  30  32
ENDBRANCH  23  25
ENDBRANCH  20  21
ENDBRANCH   5  20
TORSDOF 6
