REMARK  Name = ZINC47683260
REMARK  13 active torsions:
REMARK  status: ('A' for Active; 'I' for Inactive)
REMARK    1  A    between atoms: C_1  and  C_2
REMARK    2  A    between atoms: C_2  and  C_3
REMARK    3  A    between atoms: C_2  and  N_4
REMARK    4  A    between atoms: N_4  and  C_5
REMARK    5  A    between atoms: N_4  and  C_24
REMARK    6  A    between atoms: C_5  and  C_6
REMARK    7  A    between atoms: C_6  and  N_7
REMARK    8  A    between atoms: N_10  and  C_11
REMARK    9  A    between atoms: C_11  and  C_12
REMARK   10  A    between atoms: C_11  and  C_13
REMARK   11  A    between atoms: C_16  and  N_19
REMARK   12  A    between atoms: C_24  and  C_25
REMARK   13  A    between atoms: C_24  and  C_26
REMARK                            x       y       z     vdW  Elec       q    Type
REMARK                         _______ _______ _______ _____ _____    ______ ____
ROOT
ATOM      1  N   UNL     1      -4.520   0.820  -1.906  0.00  0.00    -0.301 N 
ATOM      2  C   UNL     1      -5.723   1.403  -1.734  0.00  0.00    +0.300 C 
ATOM      3  O   UNL     1      -6.143   1.614  -0.613  0.00  0.00    -0.253 OA
ATOM      4  N   UNL     1      -6.462   1.752  -2.807  0.00  0.00    -0.293 N 
ATOM      5  H   UNL     1      -4.186   0.652  -2.800  0.00  0.00    +0.150 HD
ATOM      6  H   UNL     1      -6.127   1.584  -3.701  0.00  0.00    +0.151 HD
ENDROOT
BRANCH   4   7
ATOM      7  C   UNL     1      -7.770   2.386  -2.621  0.00  0.00    +0.102 C 
ATOM      8  C   UNL     1      -7.585   3.894  -2.441  0.00  0.00    +0.033 C 
BRANCH   7   9
ATOM      9  C   UNL     1      -8.630   2.126  -3.830  0.00  0.00    -0.027 A 
ATOM     10  C   UNL     1      -8.074   2.169  -5.095  0.00  0.00    +0.007 A 
ATOM     11  C   UNL     1      -8.860   1.931  -6.205  0.00  0.00    +0.026 A 
ATOM     12  C   UNL     1     -10.210   1.648  -6.050  0.00  0.00    +0.047 A 
ATOM     13  C   UNL     1     -10.766   1.605  -4.779  0.00  0.00    +0.026 A 
ATOM     14  C   UNL     1      -9.974   1.839  -3.672  0.00  0.00    +0.007 A 
BRANCH  12  15
ATOM     15  N   UNL     1     -11.011   1.407  -7.176  0.00  0.00    -0.306 N 
ATOM     16  C   UNL     1     -12.352   1.122  -7.176  0.00  0.00    +0.112 A 
ATOM     17  C   UNL     1     -12.717   0.963  -8.462  0.00  0.00    +0.130 A 
ATOM     18  N   UNL     1     -11.633   1.144  -9.231  0.00  0.00    -0.244 NA
ATOM     19  C   UNL     1     -10.606   1.416  -8.472  0.00  0.00    +0.204 A 
ENDBRANCH  12  15
ENDBRANCH   7   9
ENDBRANCH   4   7
BRANCH   1  20
ATOM     20  C   UNL     1      -3.718   0.441  -0.740  0.00  0.00    +0.087 C 
BRANCH  20  21
ATOM     21  C   UNL     1      -2.408  -0.196  -1.208  0.00  0.00    -0.059 C 
BRANCH  21  22
ATOM     22  N   UNL     1      -1.616  -0.603  -0.040  0.00  0.00    +0.384 N 
ATOM     23  H   UNL     1      -1.479   0.191   0.567  0.00  0.00    -0.081 HD
BRANCH  22  25
ATOM     24  C   UNL     1       0.420  -0.018  -1.267  0.00  0.00    -0.014 C 
ATOM     25  C   UNL     1      -0.311  -1.110  -0.485  0.00  0.00    -0.074 C 
ATOM     26  C   UNL     1       0.523  -1.511   0.733  0.00  0.00    -0.014 C 
ENDBRANCH  22  25
BRANCH  22  27
ATOM     27  C   UNL     1      -2.329  -1.660   0.690  0.00  0.00    -0.074 C 
ATOM     28  C   UNL     1      -2.028  -3.016   0.048  0.00  0.00    -0.014 C 
ATOM     29  C   UNL     1      -1.868  -1.673   2.148  0.00  0.00    -0.014 C 
ENDBRANCH  22  27
ENDBRANCH  21  22
ENDBRANCH  20  21
ENDBRANCH   1  20
TORSDOF 8
