REMARK  Name = ZINC44249939
REMARK  8 active torsions:
REMARK  status: ('A' for Active; 'I' for Inactive)
REMARK    1  A    between atoms: C_1  and  N_2
REMARK    2  A    between atoms: C_3  and  C_23
REMARK    3  A    between atoms: C_6  and  S_7
REMARK    4  A    between atoms: S_7  and  C_8
REMARK    5  A    between atoms: C_8  and  C_9
REMARK    6  A    between atoms: C_12  and  C_15
REMARK    7  A    between atoms: C_16  and  C_21
REMARK    8  A    between atoms: C_21  and  N_22
REMARK                            x       y       z     vdW  Elec       q    Type
REMARK                         _______ _______ _______ _____ _____    ______ ____
ROOT
ATOM      1  C   UNL     1       0.311  -1.910   5.230  0.00  0.00    -0.037 A 
ATOM      2  C   UNL     1       1.472  -1.912   5.982  0.00  0.00    +0.005 A 
ATOM      3  C   UNL     1       1.429  -1.591   7.324  0.00  0.00    +0.009 A 
ATOM      4  C   UNL     1       0.211  -1.263   7.921  0.00  0.00    -0.010 A 
ATOM      5  C   UNL     1      -0.956  -1.262   7.156  0.00  0.00    +0.009 A 
ATOM      6  C   UNL     1      -0.898  -1.580   5.815  0.00  0.00    +0.005 A 
ENDROOT
BRANCH   4   7
ATOM      7  C   UNL     1       0.158  -0.918   9.358  0.00  0.00    +0.042 A 
ATOM      8  C   UNL     1      -0.695  -1.387  10.345  0.00  0.00    -0.012 A 
ATOM      9  C   UNL     1      -0.483  -0.864  11.599  0.00  0.00    +0.140 A 
ATOM     10  N   UNL     1       0.469   0.012  11.797  0.00  0.00    -0.198 NA
ATOM     11  S   UNL     1       1.179   0.207  10.292  0.00  0.00    +0.013 S 
ATOM     12 CL   UNL     1      -1.484  -1.367  12.925  0.00  0.00    -0.061 Cl
BRANCH   8  13
ATOM     13  C   UNL     1      -1.778  -2.397  10.064  0.00  0.00    -0.046 C 
BRANCH  13  14
ATOM     14  N   UNL     1      -1.250  -3.752  10.274  0.00  0.00    +0.381 N 
ATOM     15  H   UNL     1      -1.975  -4.428  10.085  0.00  0.00    -0.090 HD
ATOM     16  H   UNL     1      -0.472  -3.910   9.650  0.00  0.00    -0.090 HD
ATOM     17  H   UNL     1      -0.941  -3.848  11.229  0.00  0.00    -0.090 HD
ENDBRANCH  13  14
ENDBRANCH   8  13
ENDBRANCH   4   7
BRANCH   1  18
ATOM     18  C   UNL     1       0.366  -2.261   3.765  0.00  0.00    +0.112 C 
BRANCH  18  19
ATOM     19  S   UNL     1       0.649  -0.757   2.793  0.00  0.00    -0.081 S 
BRANCH  19  25
ATOM     20  C   UNL     1       1.086   0.886  -0.044  0.00  0.00    +0.153 C 
ATOM     21  N   UNL     1       0.875  -0.563   0.010  0.00  0.00    -0.302 N 
ATOM     22  C   UNL     1       0.833  -1.432  -1.045  0.00  0.00    +0.238 A 
ATOM     23  N   UNL     1       0.626  -2.623  -0.559  0.00  0.00    -0.124 NA
ATOM     24  N   UNL     1       0.536  -2.567   0.722  0.00  0.00    -0.122 NA
ATOM     25  C   UNL     1       0.687  -1.327   1.126  0.00  0.00    +0.192 A 
BRANCH  22  26
ATOM     26  C   UNL     1       0.994  -1.077  -2.501  0.00  0.00    +0.452 C 
ATOM     27  F   UNL     1       0.557  -2.145  -3.292  0.00  0.00    -0.163 F 
ATOM     28  F   UNL     1       0.232   0.060  -2.791  0.00  0.00    -0.163 F 
ATOM     29  F   UNL     1       2.341  -0.817  -2.771  0.00  0.00    -0.163 F 
ENDBRANCH  22  26
ENDBRANCH  19  25
ENDBRANCH  18  19
ENDBRANCH   1  18
TORSDOF 7
