REMARK  Name = ZINC65010679
REMARK  10 active torsions:
REMARK  status: ('A' for Active; 'I' for Inactive)
REMARK    1  A    between atoms: C_1  and  C_2
REMARK    2  A    between atoms: C_2  and  N_3
REMARK    3  A    between atoms: C_7  and  C_9
REMARK    4  A    between atoms: C_9  and  N_10
REMARK    5  A    between atoms: N_10  and  S_11
REMARK    6  A    between atoms: S_11  and  C_14
REMARK    7  A    between atoms: C_15  and  C_33
REMARK    8  A    between atoms: C_16  and  C_32
REMARK    9  A    between atoms: C_21  and  C_24
REMARK   10  A    between atoms: C_22  and  C_23
REMARK                            x       y       z     vdW  Elec       q    Type
REMARK                         _______ _______ _______ _____ _____    ______ ____
ROOT
ATOM      1  C   UNL     1      -3.432  -1.808  -4.595  0.00  0.00    +0.151 A 
ATOM      2  C   UNL     1      -4.184  -2.951  -4.425  0.00  0.00    -0.018 A 
ATOM      3  C   UNL     1      -5.570  -2.901  -4.473  0.00  0.00    -0.045 A 
ATOM      4  C   UNL     1      -6.213  -1.715  -4.689  0.00  0.00    +0.015 A 
ATOM      5  C   UNL     1      -5.470  -0.546  -4.863  0.00  0.00    +0.026 A 
ATOM      6  C   UNL     1      -4.064  -0.589  -4.811  0.00  0.00    +0.163 A 
ATOM      7  O   UNL     1      -3.610   0.665  -5.001  0.00  0.00    -0.448 OA
ATOM      8  C   UNL     1      -4.635   1.526  -5.169  0.00  0.00    +0.194 A 
ATOM      9  C   UNL     1      -5.814   0.855  -5.107  0.00  0.00    +0.008 A 
ATOM     10  C   UNL     1      -7.197   1.437  -5.244  0.00  0.00    +0.048 C 
ATOM     11  C   UNL     1      -6.371  -4.164  -4.285  0.00  0.00    +0.044 C 
ATOM     12  C   UNL     1      -3.493  -4.269  -4.186  0.00  0.00    +0.046 C 
ENDROOT
BRANCH   8  13
ATOM     13  C   UNL     1      -4.496   2.971  -5.398  0.00  0.00    +0.282 C 
ATOM     14  O   UNL     1      -5.472   3.638  -5.685  0.00  0.00    -0.267 OA
ATOM     15  N   UNL     1      -3.287   3.558  -5.290  0.00  0.00    -0.295 N 
ATOM     16  C   UNL     1      -3.108   4.973  -5.642  0.00  0.00    +0.108 C 
ATOM     17  C   UNL     1      -2.459   5.697  -4.459  0.00  0.00    +0.019 C 
ATOM     18  C   UNL     1      -1.165   4.976  -4.072  0.00  0.00    +0.003 C 
ATOM     19  C   UNL     1      -1.486   3.542  -3.644  0.00  0.00    +0.019 C 
ATOM     20  C   UNL     1      -2.126   2.796  -4.813  0.00  0.00    +0.108 C 
ENDBRANCH   8  13
BRANCH   1  21
ATOM     21  S   UNL     1      -1.673  -1.892  -4.532  0.00  0.00    +0.062 S 
ATOM     22  O   UNL     1      -1.344  -2.702  -3.412  0.00  0.00    -0.153 OA
ATOM     23  O   UNL     1      -1.198  -0.560  -4.675  0.00  0.00    -0.153 OA
BRANCH  21  24
ATOM     24  N   UNL     1      -1.174  -2.719  -5.877  0.00  0.00    -0.191 NA
ATOM     25  H   UNL     1      -0.734  -3.579  -5.783  0.00  0.00    +0.148 HD
BRANCH  24  26
ATOM     26  C   UNL     1      -1.395  -2.153  -7.210  0.00  0.00    +0.090 C 
BRANCH  26  31
ATOM     27  N   UNL     1      -0.812  -4.346  -8.159  0.00  0.00    +0.382 N 
ATOM     28  C   UNL     1      -1.300  -4.798  -9.480  0.00  0.00    -0.078 C 
ATOM     29  C   UNL     1      -1.886  -3.525 -10.142  0.00  0.00    -0.020 C 
ATOM     30  C   UNL     1      -0.893  -2.436  -9.659  0.00  0.00    -0.016 C 
ATOM     31  C   UNL     1      -0.534  -2.899  -8.231  0.00  0.00    -0.053 C 
ATOM     32  H   UNL     1      -1.518  -4.522  -7.460  0.00  0.00    -0.081 HD
BRANCH  27  34
ATOM     33  C   UNL     1       0.101  -6.553  -7.618  0.00  0.00    -0.017 C 
ATOM     34  C   UNL     1       0.419  -5.069  -7.814  0.00  0.00    -0.082 C 
ENDBRANCH  27  34
ENDBRANCH  26  31
ENDBRANCH  24  26
ENDBRANCH  21  24
ENDBRANCH   1  21
TORSDOF 6
