REMARK  Name = ZINC41629798
REMARK  3 active torsions:
REMARK  status: ('A' for Active; 'I' for Inactive)
REMARK    1  A    between atoms: C_4  and  S_9
REMARK    2  A    between atoms: S_9  and  C_10
REMARK    3  A    between atoms: C_10  and  C_11
REMARK                            x       y       z     vdW  Elec       q    Type
REMARK                         _______ _______ _______ _____ _____    ______ ____
ROOT
ATOM      1  C   UNL     1       6.507   0.015  -0.060  0.00  0.00    +0.006 A 
ATOM      2  C   UNL     1       7.153  -0.265   1.129  0.00  0.00    +0.028 A 
ATOM      3  C   UNL     1       8.428  -0.800   1.114  0.00  0.00    +0.042 A 
ATOM      4  C   UNL     1       9.059  -1.055  -0.090  0.00  0.00    +0.029 A 
ATOM      5  C   UNL     1       8.417  -0.777  -1.282  0.00  0.00    +0.022 A 
ATOM      6  C   UNL     1       7.135  -0.248  -1.270  0.00  0.00    +0.133 A 
ATOM      7  O   UNL     1       6.486   0.017  -2.435  0.00  0.00    -0.466 OA
ATOM      8  C   UNL     1       7.284   0.075  -3.621  0.00  0.00    +0.394 C 
ATOM      9  O   UNL     1       8.147  -1.068  -3.647  0.00  0.00    -0.339 OA
ATOM     10  C   UNL     1       9.115  -1.055  -2.589  0.00  0.00    +0.202 C 
ATOM     11 CL   UNL     1       9.239  -1.151   2.609  0.00  0.00    -0.084 Cl
ENDROOT
BRANCH   1  12
ATOM     12  C   UNL     1       5.118   0.598  -0.044  0.00  0.00    +0.116 C 
BRANCH  12  13
ATOM     13  S   UNL     1       3.898  -0.744  -0.039  0.00  0.00    -0.083 S 
BRANCH  13  17
ATOM     14  C   UNL     1      -0.017   1.402   0.010  0.00  0.00    +0.090 A 
ATOM     15  C   UNL     1       1.169   2.078   0.002  0.00  0.00    +0.119 A 
ATOM     16  N   UNL     1       2.319   1.409  -0.013  0.00  0.00    -0.232 NA
ATOM     17  C   UNL     1       2.346   0.090  -0.020  0.00  0.00    +0.169 A 
ATOM     18  N   UNL     1       1.195  -0.637  -0.013  0.00  0.00    -0.302 N 
ATOM     19  H   UNL     1       1.231  -1.606  -0.019  0.00  0.00    +0.171 HD
ATOM     20  C   UNL     1       0.002  -0.004   0.002  0.00  0.00    +0.252 A 
ATOM     21  O   UNL     1      -1.039  -0.640   0.009  0.00  0.00    -0.268 OA
ENDBRANCH  13  17
ENDBRANCH  12  13
ENDBRANCH   1  12
TORSDOF 3
