REMARK  Name = ZINC09517992
REMARK  8 active torsions:
REMARK  status: ('A' for Active; 'I' for Inactive)
REMARK    1  A    between atoms: C_1  and  C_2
REMARK    2  A    between atoms: C_5  and  N_8
REMARK    3  A    between atoms: C_10  and  C_15
REMARK    4  A    between atoms: N_17  and  C_18
REMARK    5  A    between atoms: N_22  and  C_23
REMARK    6  A    between atoms: C_23  and  C_24
REMARK    7  A    between atoms: C_23  and  C_25
REMARK    8  A    between atoms: C_23  and  C_26
REMARK                            x       y       z     vdW  Elec       q    Type
REMARK                         _______ _______ _______ _____ _____    ______ ____
ROOT
ATOM      1  C   UNL     1       0.040  -7.531   2.193  0.00  0.00    +0.223 C 
ATOM      2  O   UNL     1       0.770  -7.313   3.136  0.00  0.00    -0.275 OA
ATOM      3  N   UNL     1       0.059  -8.738   1.591  0.00  0.00    -0.270 N 
ATOM      4  H   UNL     1      -0.489  -8.897   0.807  0.00  0.00    +0.156 HD
ENDROOT
BRANCH   3   5
ATOM      5  C   UNL     1       0.866  -9.756   2.097  0.00  0.00    +0.129 A 
ATOM      6  C   UNL     1       2.038  -9.591   2.800  0.00  0.00    +0.038 A 
ATOM      7  C   UNL     1       2.522 -10.849   3.116  0.00  0.00    +0.091 A 
ATOM      8  N   UNL     1       1.681 -11.749   2.628  0.00  0.00    -0.172 NA
ATOM      9  N   UNL     1       0.635 -11.080   1.991  0.00  0.00    -0.245 N 
ATOM     10  C   UNL     1       3.829 -10.904   3.905  0.00  0.00    +0.223 C 
ATOM     11  S   UNL     1       4.468  -9.192   3.693  0.00  0.00    -0.021 S 
ATOM     12  O   UNL     1       5.327  -9.146   2.562  0.00  0.00    -0.174 OA
ATOM     13  O   UNL     1       4.925  -8.701   4.947  0.00  0.00    -0.174 OA
ATOM     14  C   UNL     1       2.864  -8.397   3.273  0.00  0.00    +0.206 C 
BRANCH   9  15
ATOM     15  C   UNL     1      -0.509 -11.705   1.323  0.00  0.00    +0.057 C 
ATOM     16  C   UNL     1      -0.440 -11.423  -0.179  0.00  0.00    +0.036 C 
ATOM     17  C   UNL     1      -0.474 -13.216   1.560  0.00  0.00    +0.036 C 
ATOM     18  C   UNL     1      -1.808 -11.130   1.891  0.00  0.00    +0.036 C 
ENDBRANCH   9  15
ENDBRANCH   3   5
BRANCH   1  21
ATOM     19  N   UNL     1      -0.894  -4.059   1.574  0.00  0.00    -0.271 N 
ATOM     20  C   UNL     1      -0.737  -5.163   2.527  0.00  0.00    +0.127 C 
ATOM     21  C   UNL     1      -0.887  -6.454   1.692  0.00  0.00    +0.102 C 
ATOM     22  C   UNL     1      -0.465  -5.969   0.285  0.00  0.00    +0.110 C 
ATOM     23  C   UNL     1      -0.746  -4.483   0.307  0.00  0.00    +0.221 C 
ATOM     24  O   UNL     1      -0.824  -3.776  -0.676  0.00  0.00    -0.275 OA
BRANCH  19  29
ATOM     25  C   UNL     1      -2.007   1.306   3.044  0.00  0.00    +0.044 C 
ATOM     26  C   UNL     1      -1.711  -0.119   2.653  0.00  0.00    -0.050 A 
ATOM     27  C   UNL     1      -1.459  -0.434   1.331  0.00  0.00    +0.005 A 
ATOM     28  C   UNL     1      -1.187  -1.739   0.970  0.00  0.00    +0.024 A 
ATOM     29  C   UNL     1      -1.168  -2.736   1.936  0.00  0.00    +0.036 A 
ATOM     30  C   UNL     1      -1.421  -2.416   3.264  0.00  0.00    +0.024 A 
ATOM     31  C   UNL     1      -1.687  -1.108   3.619  0.00  0.00    +0.005 A 
ENDBRANCH  19  29
ENDBRANCH   1  21
TORSDOF 4
