REMARK  Name = ZINC64869100
REMARK  3 active torsions:
REMARK  status: ('A' for Active; 'I' for Inactive)
REMARK    1  A    between atoms: C_1  and  C_2
REMARK    2  A    between atoms: C_7  and  C_8
REMARK    3  A    between atoms: C_10  and  C_15
REMARK                            x       y       z     vdW  Elec       q    Type
REMARK                         _______ _______ _______ _____ _____    ______ ____
ROOT
ATOM      1  C   UNL     1      -0.018   1.503   0.010  0.00  0.00    +0.044 C 
ATOM      2  C   UNL     1       0.002  -0.004   0.002  0.00  0.00    -0.046 A 
ATOM      3  C   UNL     1       0.006  -0.687  -1.202  0.00  0.00    +0.028 A 
ATOM      4  C   UNL     1       0.025  -2.072  -1.210  0.00  0.00    +0.055 A 
ATOM      5  C   UNL     1       0.041  -2.773  -0.005  0.00  0.00    +0.053 A 
ATOM      6  C   UNL     1       0.037  -2.083   1.196  0.00  0.00    +0.028 A 
ATOM      7  C   UNL     1       0.023  -0.699   1.196  0.00  0.00    -0.046 A 
ATOM      8  C   UNL     1       0.025   0.052   2.502  0.00  0.00    +0.044 C 
ATOM      9  N   UNL     1       0.062  -4.162   0.194  0.00  0.00    -0.312 N 
ATOM     10  C   UNL     1       0.072  -5.161  -0.762  0.00  0.00    +0.050 C 
ATOM     11  C   UNL     1       0.063  -5.036  -2.136  0.00  0.00    +0.092 C 
ATOM     12  C   UNL     1       0.042  -3.870  -2.917  0.00  0.00    +0.243 C 
ATOM     13  O   UNL     1       0.039  -4.045  -4.123  0.00  0.00    -0.270 OA
ATOM     14  N   UNL     1       0.026  -2.583  -2.518  0.00  0.00    -0.280 N 
ATOM     15  H   UNL     1       0.071  -4.459   1.118  0.00  0.00    +0.152 HD
ATOM     16  H   UNL     1       0.013  -1.922  -3.228  0.00  0.00    +0.155 HD
ENDROOT
BRANCH  10  17
ATOM     17  C   UNL     1       0.095  -6.532  -0.249  0.00  0.00    +0.035 A 
ATOM     18  C   UNL     1       0.114  -7.729  -0.952  0.00  0.00    +0.018 A 
ATOM     19  C   UNL     1       0.134  -8.870  -0.186  0.00  0.00    +0.023 A 
ATOM     20  C   UNL     1       0.132  -8.757   1.166  0.00  0.00    +0.056 A 
ATOM     21  S   UNL     1       0.112  -7.099   1.441  0.00  0.00    -0.080 S 
ATOM     22 BR   UNL     1       0.156 -10.146   2.448  0.00  0.00    -0.043 Br
ENDBRANCH  10  17
TORSDOF 1
