REMARK  Name = ZINC12332424
REMARK  6 active torsions:
REMARK  status: ('A' for Active; 'I' for Inactive)
REMARK    1  A    between atoms: C_4  and  C_7
REMARK    2  A    between atoms: C_7  and  O_40
REMARK    3  A    between atoms: C_18  and  C_19
REMARK    4  A    between atoms: C_18  and  N_79
REMARK    5  A    between atoms: C_22  and  C_27
REMARK    6  A    between atoms: N_29  and  C_30
REMARK                            x       y       z     vdW  Elec       q    Type
REMARK                         _______ _______ _______ _____ _____    ______ ____
ROOT
ATOM      1  C   UNL     1      -2.569  10.160  -0.951  0.00  0.00    +0.003 A 
ATOM      2  C   UNL     1      -3.348   9.545  -1.877  0.00  0.00    +0.020 A 
ATOM      3  C   UNL     1      -3.275   8.163  -2.047  0.00  0.00    +0.020 A 
ATOM      4  C   UNL     1      -2.394   7.431  -1.254  0.00  0.00    +0.101 A 
ATOM      5  C   UNL     1      -1.605   8.118  -0.295  0.00  0.00    +0.261 A 
ATOM      6  O   UNL     1      -0.830   7.500   0.414  0.00  0.00    -0.267 OA
ATOM      7  N   UNL     1      -1.710   9.455  -0.176  0.00  0.00    -0.327 N 
ATOM      8  H   UNL     1      -1.165   9.920   0.478  0.00  0.00    +0.169 HD
ENDROOT
BRANCH   4   9
ATOM      9  C   UNL     1      -2.288   5.971  -1.403  0.00  0.00    +0.250 C 
ATOM     10  O   UNL     1      -2.891   5.406  -2.295  0.00  0.00    -0.270 OA
ATOM     11  N   UNL     1      -1.523   5.261  -0.550  0.00  0.00    -0.306 N 
ATOM     12  H   UNL     1      -0.986   5.718   0.116  0.00  0.00    +0.150 HD
BRANCH  11  13
ATOM     13  C   UNL     1      -1.503   3.798  -0.630  0.00  0.00    +0.036 C 
ATOM     14  C   UNL     1      -1.011   3.369  -2.014  0.00  0.00    +0.029 C 
ATOM     15  C   UNL     1      -0.990   1.842  -2.097  0.00  0.00    -0.008 C 
ATOM     16  C   UNL     1      -0.049   1.286  -1.026  0.00  0.00    +0.007 C 
ATOM     17  C   UNL     1      -0.541   1.714   0.358  0.00  0.00    -0.008 C 
ATOM     18  C   UNL     1      -0.562   3.242   0.441  0.00  0.00    +0.029 C 
ATOM     19  C   UNL     1      -1.953   1.172   0.588  0.00  0.00    +0.007 C 
ATOM     20  C   UNL     1      -2.894   1.728  -0.483  0.00  0.00    -0.008 C 
ATOM     21  C   UNL     1      -2.402   1.299  -1.867  0.00  0.00    +0.007 C 
ATOM     22  C   UNL     1      -2.915   3.255  -0.400  0.00  0.00    +0.029 C 
ENDBRANCH  11  13
ENDBRANCH   4   9
BRANCH   1  23
ATOM     23  C   UNL     1      -2.661  11.654  -0.781  0.00  0.00    -0.024 C 
BRANCH  23  33
ATOM     24  C   UNL     1      -3.506  13.214   3.110  0.00  0.00    +0.091 C 
ATOM     25  C   UNL     1      -3.146  11.734   2.953  0.00  0.00    +0.021 C 
ATOM     26  C   UNL     1      -2.416  11.528   1.624  0.00  0.00    -0.075 C 
ATOM     27  C   UNL     1      -3.594  13.392   0.622  0.00  0.00    -0.062 C 
ATOM     28  C   UNL     1      -4.364  13.650   1.919  0.00  0.00    +0.012 C 
ATOM     29  C   UNL     1      -4.683  15.142   2.035  0.00  0.00    +0.005 C 
ATOM     30  C   UNL     1      -5.537  15.573   0.841  0.00  0.00    +0.000 C 
ATOM     31  C   UNL     1      -4.773  15.311  -0.458  0.00  0.00    -0.002 C 
ATOM     32  C   UNL     1      -4.452  13.819  -0.571  0.00  0.00    -0.015 C 
ATOM     33  N   UNL     1      -3.302  11.947   0.517  0.00  0.00    +0.386 N 
ATOM     34  H   UNL     1      -4.183  11.424   0.580  0.00  0.00    -0.081 HD
BRANCH  24  38
ATOM     35  C   UNL     1       0.070  15.549   3.224  0.00  0.00    +0.000 A 
ATOM     36  C   UNL     1      -1.161  16.163   3.356  0.00  0.00    +0.000 A 
ATOM     37  C   UNL     1      -2.318  15.408   3.319  0.00  0.00    +0.006 A 
ATOM     38  C   UNL     1      -2.244  14.038   3.150  0.00  0.00    -0.016 A 
ATOM     39  C   UNL     1      -1.013  13.423   3.024  0.00  0.00    +0.006 A 
ATOM     40  C   UNL     1       0.144  14.179   3.057  0.00  0.00    +0.000 A 
ENDBRANCH  24  38
BRANCH  24  41
ATOM     41  O   UNL     1      -4.239  13.402   4.321  0.00  0.00    -0.384 OA
ATOM     42  H   UNL     1      -3.757  13.140   5.118  0.00  0.00    +0.211 HD
ENDBRANCH  24  41
ENDBRANCH  23  33
ENDBRANCH   1  23
TORSDOF 6
