REMARK  Name = ZINC15293000
REMARK  6 active torsions:
REMARK  status: ('A' for Active; 'I' for Inactive)
REMARK    1  A    between atoms: C_1  and  C_2
REMARK    2  A    between atoms: C_4  and  N_9
REMARK    3  A    between atoms: N_9  and  C_10
REMARK    4  A    between atoms: C_10  and  C_11
REMARK    5  A    between atoms: N_13  and  C_14
REMARK    6  A    between atoms: C_14  and  C_19
REMARK                            x       y       z     vdW  Elec       q    Type
REMARK                         _______ _______ _______ _____ _____    ______ ____
ROOT
ATOM      1  C   UNL     1       1.248   1.716  -0.001  0.00  0.00    +0.197 C 
ENDROOT
BRANCH   1   2
ATOM      2  C   UNL     1       2.406   0.752  -0.017  0.00  0.00    +0.231 C 
ATOM      3  O   UNL     1       2.201  -0.443  -0.021  0.00  0.00    -0.274 OA
ATOM      4  N   UNL     1       3.671   1.218  -0.026  0.00  0.00    -0.296 N 
ATOM      5  H   UNL     1       3.835   2.174  -0.023  0.00  0.00    +0.150 HD
BRANCH   4   6
ATOM      6  C   UNL     1       4.797   0.282  -0.042  0.00  0.00    +0.121 C 
ATOM      7  C   UNL     1       4.782  -0.585   1.234  0.00  0.00    +0.041 C 
ATOM      8  C   UNL     1       6.279  -0.753   1.596  0.00  0.00    +0.003 C 
ATOM      9  C   UNL     1       6.874   0.634   1.249  0.00  0.00    +0.003 C 
ATOM     10  C   UNL     1       6.127   1.056  -0.033  0.00  0.00    +0.041 C 
BRANCH   6  11
ATOM     11  C   UNL     1       4.721  -0.577  -1.235  0.00  0.00    +0.088 C 
ATOM     12  N   UNL     1       4.663  -1.240  -2.156  0.00  0.00    -0.194 NA
ENDBRANCH   6  11
ENDBRANCH   4   6
ENDBRANCH   1   2
BRANCH   1  13
ATOM     13  N   UNL     1      -0.011   0.966   0.007  0.00  0.00    -0.335 N 
ATOM     14  H   UNL     1       0.002  -0.004   0.002  0.00  0.00    +0.147 HD
BRANCH  13  18
ATOM     15  C   UNL     1      -4.924   0.847   0.030  0.00  0.00    +0.045 C 
ATOM     16  C   UNL     1      -3.628   1.616   0.029  0.00  0.00    -0.035 A 
ATOM     17  C   UNL     1      -2.425   0.939   0.019  0.00  0.00    +0.027 A 
ATOM     18  C   UNL     1      -1.230   1.648   0.017  0.00  0.00    +0.028 A 
ATOM     19  C   UNL     1      -1.251   3.037   0.030  0.00  0.00    +0.024 A 
ATOM     20  C   UNL     1      -2.458   3.708   0.035  0.00  0.00    +0.017 A 
ATOM     21  C   UNL     1      -3.646   2.999   0.037  0.00  0.00    +0.021 A 
ATOM     22 BR   UNL     1      -5.296   3.922   0.050  0.00  0.00    -0.050 Br
ENDBRANCH  13  18
ENDBRANCH   1  13
TORSDOF 5
