REMARK  Name = ZINC02221422
REMARK  11 active torsions:
REMARK  status: ('A' for Active; 'I' for Inactive)
REMARK    1  A    between atoms: C_1  and  C_2
REMARK    2  A    between atoms: C_2  and  O_3
REMARK    3  A    between atoms: O_3  and  C_4
REMARK    4  A    between atoms: C_7  and  C_13
REMARK    5  A    between atoms: C_9  and  O_10
REMARK    6  A    between atoms: O_10  and  C_11
REMARK    7  A    between atoms: C_11  and  C_12
REMARK    8  A    between atoms: C_18  and  C_23
REMARK    9  A    between atoms: N_19  and  C_22
REMARK   10  A    between atoms: C_25  and  N_29
REMARK   11  A    between atoms: C_26  and  C_27
REMARK                            x       y       z     vdW  Elec       q    Type
REMARK                         _______ _______ _______ _____ _____    ______ ____
ROOT
ATOM      1  C   UNL     1       4.972   4.048  -0.024  0.00  0.00    +0.103 C 
ATOM      2  C   UNL     1       5.752   3.649   1.199  0.00  0.00    +0.072 A 
ATOM      3  C   UNL     1       6.789   2.749   1.114  0.00  0.00    +0.141 A 
ATOM      4  C   UNL     1       7.494   2.403   2.286  0.00  0.00    +0.068 A 
ATOM      5  C   UNL     1       7.146   2.949   3.462  0.00  0.00    +0.022 A 
ATOM      6  N   UNL     1       6.122   3.839   3.542  0.00  0.00    -0.315 N 
ATOM      7  C   UNL     1       5.426   4.195   2.447  0.00  0.00    +0.259 A 
ATOM      8  O   UNL     1       4.508   4.996   2.541  0.00  0.00    -0.267 OA
ATOM      9  C   UNL     1       5.771   4.418   4.841  0.00  0.00    +0.152 C 
ATOM     10  C   UNL     1       7.903   2.573   4.710  0.00  0.00    +0.064 C 
ATOM     11  O   UNL     1       7.136   2.196  -0.068  0.00  0.00    -0.441 OA
ATOM     12  C   UNL     1       6.748   2.774  -1.218  0.00  0.00    +0.199 C 
ATOM     13  C   UNL     1       5.728   3.662  -1.265  0.00  0.00    +0.098 C 
ENDROOT
BRANCH   1  17
ATOM     14  C   UNL     1       1.186   2.059   0.002  0.00  0.00    +0.162 A 
ATOM     15  C   UNL     1       2.359   1.321  -0.008  0.00  0.00    +0.050 A 
ATOM     16  C   UNL     1       3.581   1.967  -0.021  0.00  0.00    +0.008 A 
ATOM     17  C   UNL     1       3.637   3.349  -0.015  0.00  0.00    -0.031 A 
ATOM     18  C   UNL     1       2.470   4.090   0.000  0.00  0.00    +0.054 A 
ATOM     19  C   UNL     1       1.242   3.449   0.009  0.00  0.00    +0.162 A 
BRANCH  14  20
ATOM     20  O   UNL     1      -0.017   1.425   0.010  0.00  0.00    -0.489 OA
BRANCH  20  22
ATOM     21  C   UNL     1      -1.433  -0.534   0.013  0.00  0.00    +0.048 C 
ATOM     22  C   UNL     1       0.002  -0.004   0.002  0.00  0.00    +0.226 C 
ENDBRANCH  20  22
ENDBRANCH  14  20
BRANCH  19  23
ATOM     23  O   UNL     1       0.093   4.177   0.024  0.00  0.00    -0.489 OA
BRANCH  23  24
ATOM     24  C   UNL     1       0.227   5.600   0.030  0.00  0.00    +0.226 C 
ATOM     25  C   UNL     1      -1.162   6.242   0.048  0.00  0.00    +0.048 C 
ENDBRANCH  23  24
ENDBRANCH  19  23
ENDBRANCH   1  17
BRANCH  12  26
ATOM     26  N   UNL     1       7.407   2.454  -2.380  0.00  0.00    -0.328 N 
ATOM     27  H   UNL     1       7.138   2.862  -3.217  0.00  0.00    +0.145 HD
ATOM     28  H   UNL     1       8.140   1.819  -2.362  0.00  0.00    +0.145 HD
ENDBRANCH  12  26
BRANCH  13  29
ATOM     29  C   UNL     1       5.361   4.245  -2.521  0.00  0.00    +0.101 C 
ATOM     30  N   UNL     1       5.069   4.708  -3.516  0.00  0.00    -0.191 NA
ENDBRANCH  13  29
TORSDOF 7
