REMARK  Name = ZINC09868492
REMARK  7 active torsions:
REMARK  status: ('A' for Active; 'I' for Inactive)
REMARK    1  A    between atoms: C_1  and  C_2
REMARK    2  A    between atoms: C_5  and  C_16
REMARK    3  A    between atoms: C_7  and  N_8
REMARK    4  A    between atoms: C_9  and  C_11
REMARK    5  A    between atoms: N_18  and  C_19
REMARK    6  A    between atoms: C_20  and  C_30
REMARK    7  A    between atoms: C_25  and  C_29
REMARK                            x       y       z     vdW  Elec       q    Type
REMARK                         _______ _______ _______ _____ _____    ______ ____
ROOT
ATOM      1  C   UNL     1      -2.172  -1.366   3.536  0.00  0.00    +0.249 C 
ATOM      2  O   UNL     1      -3.207  -1.976   3.344  0.00  0.00    -0.270 OA
ATOM      3  N   UNL     1      -1.443  -0.930   2.490  0.00  0.00    -0.275 N 
ATOM      4  H   UNL     1      -0.618  -0.444   2.644  0.00  0.00    +0.156 HD
ENDROOT
BRANCH   3   5
ATOM      5  C   UNL     1      -1.871  -1.176   1.196  0.00  0.00    +0.085 A 
ATOM      6  C   UNL     1      -1.264  -0.811   0.002  0.00  0.00    +0.068 A 
ATOM      7  C   UNL     1      -1.929  -1.191  -1.233  0.00  0.00    -0.023 A 
ATOM      8  C   UNL     1      -3.082  -1.878  -1.078  0.00  0.00    -0.004 A 
ATOM      9  S   UNL     1      -3.296  -2.014   0.674  0.00  0.00    -0.077 S 
ATOM     10  C   UNL     1      -3.975  -2.399  -2.161  0.00  0.00    +0.046 C 
ATOM     11  C   UNL     1      -3.581  -1.721  -3.481  0.00  0.00    -0.009 C 
ATOM     12  C   UNL     1      -2.059  -1.794  -3.638  0.00  0.00    +0.008 C 
ATOM     13  C   UNL     1      -1.386  -0.872  -2.620  0.00  0.00    +0.037 C 
ATOM     14  C   UNL     1      -4.255  -2.442  -4.650  0.00  0.00    +0.008 C 
BRANCH   6  15
ATOM     15  C   UNL     1      -0.002  -0.066  -0.012  0.00  0.00    +0.244 C 
ATOM     16  O   UNL     1       1.058  -0.664  -0.023  0.00  0.00    -0.270 OA
ATOM     17  N   UNL     1      -0.015   1.282  -0.013  0.00  0.00    -0.325 N 
ATOM     18  H   UNL     1       0.820   1.775  -0.022  0.00  0.00    +0.145 HD
ATOM     19  H   UNL     1      -0.860   1.758  -0.008  0.00  0.00    +0.145 HD
ENDBRANCH   6  15
ENDBRANCH   3   5
BRANCH   1  24
ATOM     20  C   UNL     1      -0.378  -0.337   8.911  0.00  0.00    +0.045 C 
ATOM     21  C   UNL     1      -0.849  -0.607   7.505  0.00  0.00    -0.029 A 
ATOM     22  C   UNL     1      -0.102  -0.161   6.430  0.00  0.00    +0.006 A 
ATOM     23  C   UNL     1      -0.524  -0.409   5.140  0.00  0.00    +0.013 A 
ATOM     24  C   UNL     1      -1.715  -1.104   4.917  0.00  0.00    +0.039 A 
ATOM     25  C   UNL     1      -2.468  -1.554   6.001  0.00  0.00    +0.036 A 
ATOM     26  C   UNL     1      -2.033  -1.304   7.293  0.00  0.00    +0.037 A 
BRANCH  26  27
ATOM     27  N   UNL     1      -2.785  -1.753   8.384  0.00  0.00    -0.279 N 
ATOM     28  C   UNL     1      -4.130  -1.774   8.312  0.00  0.00    +0.284 C 
ATOM     29  O   UNL     1      -4.689  -1.480   7.271  0.00  0.00    -0.266 OA
ATOM     30  H   UNL     1      -2.337  -2.050   9.192  0.00  0.00    +0.155 HD
BRANCH  28  31
ATOM     31  C   UNL     1      -4.922  -2.150   9.488  0.00  0.00    +0.189 A 
ATOM     32  C   UNL     1      -6.284  -2.211   9.551  0.00  0.00    +0.054 A 
ATOM     33  C   UNL     1      -6.609  -2.612  10.857  0.00  0.00    +0.042 A 
ATOM     34  C   UNL     1      -5.446  -2.776  11.524  0.00  0.00    +0.196 A 
ATOM     35  O   UNL     1      -4.431  -2.501  10.694  0.00  0.00    -0.458 OA
ENDBRANCH  28  31
ENDBRANCH  26  27
ENDBRANCH   1  24
TORSDOF 5
