REMARK  Name = ZINC20413723
REMARK  6 active torsions:
REMARK  status: ('A' for Active; 'I' for Inactive)
REMARK    1  A    between atoms: C_1  and  C_2
REMARK    2  A    between atoms: C_2  and  C_17
REMARK    3  A    between atoms: C_5  and  C_8
REMARK    4  A    between atoms: C_11  and  N_14
REMARK    5  A    between atoms: C_19  and  O_24
REMARK    6  A    between atoms: C_22  and  O_23
REMARK                            x       y       z     vdW  Elec       q    Type
REMARK                         _______ _______ _______ _____ _____    ______ ____
ROOT
ATOM      1  C   UNL     1      -1.273  -3.562   2.694  0.00  0.00    +0.065 C 
ATOM      2  C   UNL     1       0.064  -2.846   2.492  0.00  0.00    +0.148 C 
ATOM      3  N   UNL     1       0.303  -1.913   3.611  0.00  0.00    -0.283 NA
ATOM      4  C   UNL     1       1.544  -2.381   4.276  0.00  0.00    +0.120 C 
ATOM      5  C   UNL     1       1.632  -3.861   3.829  0.00  0.00    +0.165 C 
ATOM      6  O   UNL     1       1.132  -3.808   2.474  0.00  0.00    -0.346 OA
ATOM      7  H   UNL     1       0.423  -0.892   3.218  0.00  0.00    +0.125 HD
ENDROOT
BRANCH   5   8
ATOM      8  C   UNL     1       3.059  -4.345   3.859  0.00  0.00    -0.017 A 
ATOM      9  C   UNL     1       3.915  -4.039   2.817  0.00  0.00    +0.008 A 
ATOM     10  C   UNL     1       5.225  -4.478   2.846  0.00  0.00    +0.033 A 
ATOM     11  C   UNL     1       5.677  -5.233   3.913  0.00  0.00    +0.126 A 
ATOM     12  C   UNL     1       4.820  -5.544   4.952  0.00  0.00    +0.033 A 
ATOM     13  C   UNL     1       3.511  -5.100   4.925  0.00  0.00    +0.008 A 
BRANCH  11  14
ATOM     14  N   UNL     1       7.078  -5.709   3.941  0.00  0.00    +0.056 N 
ATOM     15  O   UNL     1       7.476  -6.375   4.880  0.00  0.00    -0.126 OA
ATOM     16  O   UNL     1       7.833  -5.435   3.025  0.00  0.00    -0.126 OA
ENDBRANCH  11  14
ENDBRANCH   5   8
BRANCH   2  17
ATOM     17  C   UNL     1       0.042  -2.085   1.192  0.00  0.00    +0.043 A 
ATOM     18  C   UNL     1       0.887  -2.452   0.162  0.00  0.00    +0.056 A 
ATOM     19  C   UNL     1       0.867  -1.752  -1.035  0.00  0.00    +0.117 A 
ATOM     20  C   UNL     1       0.002  -0.680  -1.196  0.00  0.00    +0.049 A 
ATOM     21  C   UNL     1      -0.847  -0.317  -0.170  0.00  0.00    +0.049 A 
ATOM     22  C   UNL     1      -0.827  -1.017   1.028  0.00  0.00    +0.124 A 
BRANCH  22  23
ATOM     23  O   UNL     1      -1.659  -0.656   2.041  0.00  0.00    -0.506 OA
ATOM     24  H   UNL     1      -2.349   0.192   1.911  0.00  0.00    +0.292 HD
ENDBRANCH  22  23
BRANCH  19  25
ATOM     25  O   UNL     1       1.699  -2.113  -2.048  0.00  0.00    -0.507 OA
ATOM     26  H   UNL     1       1.683  -1.558  -2.997  0.00  0.00    +0.292 HD
ENDBRANCH  19  25
ENDBRANCH   2  17
TORSDOF 5
