REMARK  Name = ZINC10933684
REMARK  10 active torsions:
REMARK  status: ('A' for Active; 'I' for Inactive)
REMARK    1  A    between atoms: C_1  and  N_2
REMARK    2  A    between atoms: C_3  and  N_34
REMARK    3  A    between atoms: C_4  and  C_11
REMARK    4  A    between atoms: N_7  and  C_10
REMARK    5  A    between atoms: C_11  and  C_13
REMARK    6  A    between atoms: C_13  and  O_14
REMARK    7  A    between atoms: O_14  and  C_15
REMARK    8  A    between atoms: C_15  and  C_17
REMARK    9  A    between atoms: C_21  and  N_22
REMARK   10  A    between atoms: C_23  and  C_25
REMARK                            x       y       z     vdW  Elec       q    Type
REMARK                         _______ _______ _______ _____ _____    ______ ____
ROOT
ATOM      1  C   UNL     1       3.635   1.590  -0.112  0.00  0.00    +0.342 C 
ATOM      2  O   UNL     1       3.777   2.798  -0.125  0.00  0.00    -0.245 OA
ENDROOT
BRANCH   1   3
ATOM      3  C   UNL     1       4.809   0.715  -0.135  0.00  0.00    +0.091 A 
ATOM      4  C   UNL     1       5.381   0.247  -1.398  0.00  0.00    -0.021 A 
ATOM      5  C   UNL     1       6.461  -0.545  -1.277  0.00  0.00    -0.004 A 
ATOM      6  S   UNL     1       6.721  -0.693   0.474  0.00  0.00    -0.077 S 
ATOM      7  C   UNL     1       5.415   0.294   1.037  0.00  0.00    +0.086 A 
ATOM      8  C   UNL     1       6.997  -0.976  -2.615  0.00  0.00    +0.043 C 
ATOM      9  C   UNL     1       6.366   0.010  -3.624  0.00  0.00    +0.010 C 
ATOM     10  C   UNL     1       5.080   0.432  -2.886  0.00  0.00    +0.037 C 
BRANCH   7  11
ATOM     11  N   UNL     1       5.062   0.591   2.344  0.00  0.00    -0.279 N 
ATOM     12  C   UNL     1       5.778   0.085   3.368  0.00  0.00    +0.221 C 
ATOM     13  O   UNL     1       6.732  -0.630   3.145  0.00  0.00    -0.275 OA
ATOM     14  H   UNL     1       4.299   1.163   2.522  0.00  0.00    +0.155 HD
BRANCH  12  15
ATOM     15  C   UNL     1       5.394   0.408   4.788  0.00  0.00    +0.075 C 
ATOM     16  C   UNL     1       5.461   1.922   5.003  0.00  0.00    +0.013 C 
ATOM     17  C   UNL     1       5.071   2.249   6.446  0.00  0.00    +0.001 C 
ATOM     18  C   UNL     1       6.038   1.555   7.406  0.00  0.00    +0.000 C 
ATOM     19  C   UNL     1       5.971   0.042   7.191  0.00  0.00    +0.001 C 
ATOM     20  C   UNL     1       6.361  -0.286   5.749  0.00  0.00    +0.013 C 
ENDBRANCH  12  15
ENDBRANCH   7  11
ENDBRANCH   1   3
BRANCH   1  21
ATOM     21  O   UNL     1       2.397   1.057  -0.075  0.00  0.00    -0.453 OA
BRANCH  21  22
ATOM     22  C   UNL     1       1.280   1.984  -0.053  0.00  0.00    +0.312 C 
BRANCH  22  23
ATOM     23  C   UNL     1      -0.014   1.212  -0.013  0.00  0.00    +0.209 C 
ATOM     24  O   UNL     1       0.004  -0.002  -0.004  0.00  0.00    -0.288 OA
BRANCH  23  28
ATOM     25  C   UNL     1      -4.908   1.203  -0.144  0.00  0.00    +0.155 C 
ATOM     26  N   UNL     1      -3.632   1.917  -0.054  0.00  0.00    -0.284 N 
ATOM     27  C   UNL     1      -2.465   1.207  -0.085  0.00  0.00    +0.116 A 
ATOM     28  C   UNL     1      -1.246   1.900   0.007  0.00  0.00    +0.123 A 
ATOM     29  C   UNL     1      -1.295   3.364   0.120  0.00  0.00    +0.269 A 
ATOM     30  O   UNL     1      -0.270   4.016   0.198  0.00  0.00    -0.267 OA
ATOM     31  N   UNL     1      -2.499   3.971   0.135  0.00  0.00    -0.263 N 
ATOM     32  C   UNL     1      -3.632   3.255   0.049  0.00  0.00    +0.333 A 
ATOM     33  O   UNL     1      -4.697   3.840   0.067  0.00  0.00    -0.246 OA
ATOM     34  C   UNL     1      -2.572   5.429   0.246  0.00  0.00    +0.157 C 
BRANCH  27  35
ATOM     35  N   UNL     1      -2.483  -0.149  -0.196  0.00  0.00    -0.344 N 
ATOM     36  H   UNL     1      -1.656  -0.651  -0.133  0.00  0.00    +0.144 HD
ATOM     37  H   UNL     1      -3.323  -0.612  -0.340  0.00  0.00    +0.144 HD
ENDBRANCH  27  35
ENDBRANCH  23  28
ENDBRANCH  22  23
ENDBRANCH  21  22
ENDBRANCH   1  21
TORSDOF 8
