REMARK  Name = ZINC35839668
REMARK  13 active torsions:
REMARK  status: ('A' for Active; 'I' for Inactive)
REMARK    1  A    between atoms: C_1  and  C_2
REMARK    2  A    between atoms: C_8  and  C_10
REMARK    3  A    between atoms: C_13  and  C_15
REMARK    4  A    between atoms: C_15  and  N_16
REMARK    5  A    between atoms: N_19  and  C_22
REMARK    6  A    between atoms: C_22  and  C_23
REMARK    7  A    between atoms: C_23  and  C_25
REMARK    8  A    between atoms: C_23  and  O_31
REMARK    9  A    between atoms: C_25  and  O_26
REMARK   10  A    between atoms: O_26  and  C_27
REMARK   11  A    between atoms: C_27  and  C_28
REMARK   12  A    between atoms: C_28  and  C_29
REMARK   13  A    between atoms: C_28  and  C_30
REMARK                            x       y       z     vdW  Elec       q    Type
REMARK                         _______ _______ _______ _____ _____    ______ ____
ROOT
ATOM      1  N   UNL     1       2.919  -3.312   5.925  0.00  0.00    +0.387 N 
ATOM      2  C   UNL     1       2.636  -1.975   5.386  0.00  0.00    -0.063 C 
ATOM      3  C   UNL     1       2.611  -0.959   6.530  0.00  0.00    +0.066 C 
ATOM      4  N   UNL     1       3.911  -0.964   7.215  0.00  0.00    -0.303 NA
ATOM      5  C   UNL     1       4.219  -2.303   7.739  0.00  0.00    +0.066 C 
ATOM      6  C   UNL     1       4.231  -3.308   6.585  0.00  0.00    -0.063 C 
ATOM      7  H   UNL     1       2.207  -3.562   6.595  0.00  0.00    -0.081 HD
ENDROOT
BRANCH   1   8
ATOM      8  C   UNL     1       2.925  -4.290   4.829  0.00  0.00    +0.019 C 
BRANCH   8  12
ATOM      9  C   UNL     1      -0.183  -4.027   2.987  0.00  0.00    +0.164 A 
ATOM     10  C   UNL     1      -0.502  -5.016   3.866  0.00  0.00    +0.230 A 
ATOM     11  O   UNL     1       0.581  -5.225   4.631  0.00  0.00    -0.449 OA
ATOM     12  C   UNL     1       1.545  -4.383   4.231  0.00  0.00    +0.179 A 
ATOM     13  N   UNL     1       1.103  -3.663   3.244  0.00  0.00    -0.210 NA
BRANCH   9  21
ATOM     14  C   UNL     1       1.540  -0.844  -2.063  0.00  0.00    +0.007 C 
ATOM     15  C   UNL     1       0.661  -0.959  -0.816  0.00  0.00    -0.011 C 
ATOM     16  C   UNL     1       1.461  -1.611   0.314  0.00  0.00    +0.022 C 
ATOM     17  C   UNL     1       0.589  -1.694   1.570  0.00  0.00    +0.108 C 
ATOM     18  N   UNL     1      -0.660  -2.391   1.234  0.00  0.00    -0.296 N 
ATOM     19  C   UNL     1      -1.462  -1.900   0.105  0.00  0.00    +0.108 C 
ATOM     20  C   UNL     1      -0.567  -1.815  -1.135  0.00  0.00    +0.022 C 
ATOM     21  C   UNL     1      -1.063  -3.461   1.948  0.00  0.00    +0.268 C 
ATOM     22  O   UNL     1      -2.151  -3.960   1.736  0.00  0.00    -0.268 OA
ENDBRANCH   9  21
ENDBRANCH   8  12
ENDBRANCH   1   8
BRANCH   4  23
ATOM     23  C   UNL     1       3.946   0.041   8.286  0.00  0.00    +0.117 C 
BRANCH  23  24
ATOM     24  C   UNL     1       5.378   0.181   8.808  0.00  0.00    +0.154 C 
BRANCH  24  25
ATOM     25  O   UNL     1       6.213   0.702   7.772  0.00  0.00    -0.388 OA
ATOM     26  H   UNL     1       5.941   1.572   7.448  0.00  0.00    +0.210 HD
ENDBRANCH  24  25
BRANCH  24  27
ATOM     27  C   UNL     1       5.394   1.134  10.005  0.00  0.00    +0.192 C 
BRANCH  27  28
ATOM     28  O   UNL     1       6.708   1.174  10.564  0.00  0.00    -0.377 OA
BRANCH  28  29
ATOM     29  C   UNL     1       6.832   2.040  11.694  0.00  0.00    +0.163 C 
BRANCH  29  30
ATOM     30  C   UNL     1       8.274   2.005  12.207  0.00  0.00    +0.009 C 
ATOM     31  C   UNL     1       9.207   2.588  11.145  0.00  0.00    +0.009 C 
ATOM     32  C   UNL     1       8.379   2.833  13.489  0.00  0.00    +0.009 C 
ENDBRANCH  29  30
ENDBRANCH  28  29
ENDBRANCH  27  28
ENDBRANCH  24  27
ENDBRANCH  23  24
ENDBRANCH   4  23
TORSDOF 10
