REMARK  Name = ZINC37327623
REMARK  5 active torsions:
REMARK  status: ('A' for Active; 'I' for Inactive)
REMARK    1  A    between atoms: C_1  and  C_2
REMARK    2  A    between atoms: C_2  and  C_4
REMARK    3  A    between atoms: N_9  and  C_10
REMARK    4  A    between atoms: C_10  and  C_12
REMARK    5  A    between atoms: C_10  and  C_13
REMARK                            x       y       z     vdW  Elec       q    Type
REMARK                         _______ _______ _______ _____ _____    ______ ____
ROOT
ATOM      1  C   UNL     1       3.906  -3.415   3.272  0.00  0.00    +0.078 C 
ATOM      2  C   UNL     1       5.124  -2.528   3.537  0.00  0.00    +0.028 C 
ENDROOT
BRANCH   1   3
ATOM      3  C   UNL     1       4.365  -4.856   3.039  0.00  0.00    -0.010 C 
ATOM      4  C   UNL     1       5.303  -4.902   1.830  0.00  0.00    +0.012 C 
ATOM      5  C   UNL     1       5.762  -6.343   1.597  0.00  0.00    -0.010 C 
ATOM      6  C   UNL     1       6.502  -6.850   2.836  0.00  0.00    +0.007 C 
ATOM      7  C   UNL     1       5.565  -6.803   4.044  0.00  0.00    -0.010 C 
ATOM      8  C   UNL     1       5.105  -5.362   4.278  0.00  0.00    +0.012 C 
ATOM      9  C   UNL     1       4.346  -7.690   3.780  0.00  0.00    +0.007 C 
ATOM     10  C   UNL     1       3.606  -7.183   2.540  0.00  0.00    -0.010 C 
ATOM     11  C   UNL     1       4.544  -7.230   1.332  0.00  0.00    +0.007 C 
ATOM     12  C   UNL     1       3.147  -5.742   2.774  0.00  0.00    +0.012 C 
ENDBRANCH   1   3
BRANCH   1  18
ATOM     13  C   UNL     1       0.731  -0.503   1.223  0.00  0.00    +0.238 C 
ATOM     14  O   UNL     1       0.501  -0.014   2.308  0.00  0.00    -0.274 OA
ATOM     15  N   UNL     1       1.638  -1.493   1.108  0.00  0.00    -0.239 N 
ATOM     16  C   UNL     1       2.290  -1.940   2.200  0.00  0.00    +0.306 C 
ATOM     17  O   UNL     1       2.060  -1.450   3.288  0.00  0.00    -0.252 OA
ATOM     18  N   UNL     1       3.198  -2.930   2.085  0.00  0.00    -0.296 N 
ATOM     19  H   UNL     1       1.822  -1.884   0.240  0.00  0.00    +0.159 HD
ATOM     20  H   UNL     1       3.381  -3.321   1.217  0.00  0.00    +0.151 HD
BRANCH  13  22
ATOM     21  C   UNL     1      -0.019   1.526   0.010  0.00  0.00    +0.034 C 
ATOM     22  C   UNL     1       0.002  -0.004   0.002  0.00  0.00    +0.163 C 
ATOM     23 CL   UNL     1      -1.689  -0.628   0.015  0.00  0.00    -0.112 Cl
ENDBRANCH  13  22
ENDBRANCH   1  18
TORSDOF 3
