REMARK  Name = ZINC56878239
REMARK  7 active torsions:
REMARK  status: ('A' for Active; 'I' for Inactive)
REMARK    1  A    between atoms: C_1  and  N_2
REMARK    2  A    between atoms: N_2  and  C_3
REMARK    3  A    between atoms: C_3  and  C_4
REMARK    4  A    between atoms: C_8  and  C_10
REMARK    5  A    between atoms: N_15  and  C_16
REMARK    6  A    between atoms: C_16  and  C_17
REMARK    7  A    between atoms: C_17  and  N_22
REMARK                            x       y       z     vdW  Elec       q    Type
REMARK                         _______ _______ _______ _____ _____    ______ ____
ROOT
ATOM      1  C   UNL     1       0.257   1.532  -0.025  0.00  0.00    +0.134 C 
ATOM      2  N   UNL     1       0.192   0.068  -0.005  0.00  0.00    -0.284 N 
ATOM      3  C   UNL     1       0.100  -0.618  -1.161  0.00  0.00    +0.302 C 
ATOM      4  O   UNL     1       0.046  -1.833  -1.145  0.00  0.00    -0.253 OA
ATOM      5  N   UNL     1       0.068   0.042  -2.336  0.00  0.00    -0.301 N 
ATOM      6  H   UNL     1       0.112   1.011  -2.349  0.00  0.00    +0.150 HD
ENDROOT
BRANCH   2   7
ATOM      7  C   UNL     1       0.227  -0.649   1.272  0.00  0.00    +0.144 C 
BRANCH   7   8
ATOM      8  C   UNL     1      -1.179  -0.831   1.784  0.00  0.00    -0.029 A 
ATOM      9  C   UNL     1      -1.747   0.133   2.599  0.00  0.00    +0.005 A 
ATOM     10  C   UNL     1      -3.037  -0.026   3.073  0.00  0.00    +0.001 A 
ATOM     11  C   UNL     1      -3.765  -1.148   2.736  0.00  0.00    +0.013 A 
ATOM     12  C   UNL     1      -3.199  -2.124   1.915  0.00  0.00    +0.037 A 
ATOM     13  C   UNL     1      -1.899  -1.954   1.436  0.00  0.00    +0.018 A 
BRANCH  12  14
ATOM     14  C   UNL     1      -3.974  -3.329   1.551  0.00  0.00    +0.242 C 
ATOM     15  O   UNL     1      -3.477  -4.177   0.836  0.00  0.00    -0.270 OA
ATOM     16  N   UNL     1      -5.230  -3.487   2.012  0.00  0.00    -0.325 N 
ATOM     17  H   UNL     1      -5.626  -2.810   2.583  0.00  0.00    +0.145 HD
ATOM     18  H   UNL     1      -5.739  -4.278   1.773  0.00  0.00    +0.145 HD
ENDBRANCH  12  14
ENDBRANCH   7   8
ENDBRANCH   2   7
BRANCH   5  19
ATOM     19  C   UNL     1      -0.032  -0.704  -3.593  0.00  0.00    +0.094 C 
BRANCH  19  20
ATOM     20  C   UNL     1      -0.173   0.277  -4.758  0.00  0.00    -0.050 C 
ATOM     21  C   UNL     1      -1.463   1.107  -4.598  0.00  0.00    -0.010 C 
ATOM     22  C   UNL     1      -1.992   1.269  -6.044  0.00  0.00    -0.001 C 
ATOM     23  C   UNL     1      -1.676  -0.107  -6.681  0.00  0.00    -0.001 C 
ATOM     24  C   UNL     1      -0.308  -0.494  -6.083  0.00  0.00    -0.010 C 
BRANCH  20  25
ATOM     25  N   UNL     1       0.995   1.166  -4.811  0.00  0.00    +0.386 N 
ATOM     26  C   UNL     1       0.761   2.208  -5.813  0.00  0.00    -0.067 C 
ATOM     27  C   UNL     1       1.774   3.344  -5.631  0.00  0.00    +0.050 C 
ATOM     28  S   UNL     1       3.443   2.669  -5.896  0.00  0.00    -0.164 S 
ATOM     29  C   UNL     1       3.449   1.192  -4.833  0.00  0.00    +0.050 C 
ATOM     30  C   UNL     1       2.185   0.377  -5.135  0.00  0.00    -0.067 C 
ATOM     31  H   UNL     1       1.122   1.599  -3.909  0.00  0.00    -0.081 HD
ENDBRANCH  20  25
ENDBRANCH  19  20
ENDBRANCH   5  19
TORSDOF 6
