REMARK  Name = ZINC25261014
REMARK  4 active torsions:
REMARK  status: ('A' for Active; 'I' for Inactive)
REMARK    1  A    between atoms: C_1  and  C_2
REMARK    2  A    between atoms: C_2  and  C_4
REMARK    3  A    between atoms: C_2  and  N_9
REMARK    4  A    between atoms: C_10  and  C_12
REMARK                            x       y       z     vdW  Elec       q    Type
REMARK                         _______ _______ _______ _____ _____    ______ ____
ROOT
ATOM      1  N   UNL     1       0.992   3.009   2.191  0.00  0.00    -0.303 N 
ATOM      2  C   UNL     1      -0.255   2.943   1.684  0.00  0.00    +0.255 C 
ATOM      3  O   UNL     1      -0.929   3.947   1.600  0.00  0.00    -0.272 OA
ATOM      4  H   UNL     1       1.604   2.098   2.267  0.00  0.00    +0.150 HD
ENDROOT
BRANCH   2   5
ATOM      5  C   UNL     1      -0.810   1.621   1.220  0.00  0.00    +0.263 C 
ATOM      6  C   UNL     1      -0.013   1.086   0.008  0.00  0.00    +0.093 C 
ATOM      7  C   UNL     1      -0.817   1.623  -1.160  0.00  0.00    -0.000 A 
ATOM      8  C   UNL     1      -0.527   1.755  -2.500  0.00  0.00    +0.027 A 
ATOM      9  C   UNL     1      -1.466   2.297  -3.361  0.00  0.00    +0.041 A 
ATOM     10  C   UNL     1      -2.693   2.706  -2.869  0.00  0.00    +0.023 A 
ATOM     11  C   UNL     1      -2.986   2.572  -1.528  0.00  0.00    +0.047 A 
ATOM     12  C   UNL     1      -2.048   2.023  -0.656  0.00  0.00    +0.125 A 
ATOM     13  O   UNL     1      -2.134   1.786   0.682  0.00  0.00    -0.479 OA
ATOM     14 CL   UNL     1      -1.105   2.464  -5.051  0.00  0.00    -0.084 Cl
ENDBRANCH   2   5
BRANCH   1  16
ATOM     15  C   UNL     1       2.136   5.040   1.450  0.00  0.00    +0.036 C 
ATOM     16  C   UNL     1       1.533   4.294   2.642  0.00  0.00    +0.136 C 
BRANCH  16  17
ATOM     17  C   UNL     1       2.601   4.055   3.677  0.00  0.00    +0.125 A 
ATOM     18  C   UNL     1       2.791   4.781   4.793  0.00  0.00    +0.046 A 
ATOM     19  C   UNL     1       3.894   4.210   5.470  0.00  0.00    +0.041 A 
ATOM     20  C   UNL     1       4.311   3.169   4.727  0.00  0.00    +0.195 A 
ATOM     21  O   UNL     1       3.521   3.076   3.645  0.00  0.00    -0.466 OA
ENDBRANCH  16  17
ENDBRANCH   1  16
TORSDOF 3
