REMARK  Name = ZINC63878154
REMARK  5 active torsions:
REMARK  status: ('A' for Active; 'I' for Inactive)
REMARK    1  A    between atoms: C_1  and  C_2
REMARK    2  A    between atoms: C_5  and  C_19
REMARK    3  A    between atoms: C_7  and  N_8
REMARK    4  A    between atoms: N_8  and  S_9
REMARK    5  A    between atoms: S_9  and  C_12
REMARK                            x       y       z     vdW  Elec       q    Type
REMARK                         _______ _______ _______ _____ _____    ______ ____
ROOT
ATOM      1  C   UNL     1      -0.018   1.503   0.010  0.00  0.00    +0.046 C 
ATOM      2  C   UNL     1       0.002  -0.004   0.002  0.00  0.00    -0.026 A 
ATOM      3  C   UNL     1       0.006  -0.686  -1.200  0.00  0.00    +0.006 A 
ATOM      4  C   UNL     1       0.025  -2.066  -1.216  0.00  0.00    +0.013 A 
ATOM      5  C   UNL     1       0.040  -2.778  -0.015  0.00  0.00    +0.038 A 
ATOM      6  C   UNL     1       0.036  -2.090   1.198  0.00  0.00    +0.040 A 
ATOM      7  C   UNL     1       0.023  -0.703   1.203  0.00  0.00    +0.078 A 
ENDROOT
BRANCH   5   8
ATOM      8  C   UNL     1       0.060  -4.256  -0.029  0.00  0.00    +0.242 C 
ATOM      9  O   UNL     1       0.073  -4.874   1.018  0.00  0.00    -0.270 OA
ATOM     10  N   UNL     1       0.063  -4.919  -1.203  0.00  0.00    -0.325 N 
ATOM     11  H   UNL     1       0.052  -4.426  -2.038  0.00  0.00    +0.145 HD
ATOM     12  H   UNL     1       0.076  -5.889  -1.212  0.00  0.00    +0.145 HD
ENDBRANCH   5   8
BRANCH   7  13
ATOM     13  N   UNL     1       0.025  -0.009   2.416  0.00  0.00    -0.098 NA
BRANCH  13  14
ATOM     14  S   UNL     1       0.050  -0.842   3.846  0.00  0.00    +0.094 S 
ATOM     15  O   UNL     1      -1.185  -1.539   3.932  0.00  0.00    -0.148 OA
ATOM     16  O   UNL     1       1.305  -1.505   3.909  0.00  0.00    -0.148 OA
BRANCH  14  17
ATOM     17  C   UNL     1       0.046   0.351   5.144  0.00  0.00    +0.137 A 
ATOM     18  C   UNL     1      -1.025   0.437   6.015  0.00  0.00    +0.058 A 
ATOM     19  C   UNL     1      -0.995   1.366   7.002  0.00  0.00    +0.081 A 
ATOM     20  S   UNL     1       0.580   2.158   6.718  0.00  0.00    -0.063 S 
ATOM     21  C   UNL     1       1.095   1.194   5.307  0.00  0.00    +0.106 A 
ATOM     22 CL   UNL     1       2.559   1.309   4.381  0.00  0.00    -0.074 Cl
ATOM     23 CL   UNL     1      -2.182   1.700   8.225  0.00  0.00    -0.076 Cl
ENDBRANCH  14  17
ENDBRANCH  13  14
ENDBRANCH   7  13
TORSDOF 4
