REMARK  Name = ZINC15551924
REMARK  10 active torsions:
REMARK  status: ('A' for Active; 'I' for Inactive)
REMARK    1  A    between atoms: C_4  and  C_7
REMARK    2  A    between atoms: C_7  and  O_8
REMARK    3  A    between atoms: O_8  and  C_9
REMARK    4  A    between atoms: C_12  and  C_23
REMARK    5  A    between atoms: C_14  and  O_15
REMARK    6  A    between atoms: O_15  and  C_16
REMARK    7  A    between atoms: C_16  and  C_17
REMARK    8  A    between atoms: N_24  and  O_25
REMARK    9  A    between atoms: O_25  and  C_26
REMARK   10  A    between atoms: C_26  and  C_27
REMARK                            x       y       z     vdW  Elec       q    Type
REMARK                         _______ _______ _______ _____ _____    ______ ____
ROOT
ATOM      1  C   UNL     1       5.737  -1.848  -2.878  0.00  0.00    +0.162 A 
ATOM      2  C   UNL     1       6.938  -2.514  -3.079  0.00  0.00    +0.050 A 
ATOM      3  C   UNL     1       7.687  -2.932  -2.000  0.00  0.00    +0.013 A 
ATOM      4  C   UNL     1       7.240  -2.682  -0.701  0.00  0.00    -0.000 A 
ATOM      5  C   UNL     1       6.034  -2.006  -0.498  0.00  0.00    +0.059 A 
ATOM      6  C   UNL     1       5.288  -1.590  -1.585  0.00  0.00    +0.163 A 
ENDROOT
BRANCH   4   7
ATOM      7  C   UNL     1       8.040  -3.128   0.456  0.00  0.00    +0.161 C 
ATOM      8  N   UNL     1       9.157  -3.754   0.266  0.00  0.00    -0.092 NA
BRANCH   8   9
ATOM      9  O   UNL     1       9.925  -4.183   1.376  0.00  0.00    -0.386 OA
BRANCH   9  10
ATOM     10  C   UNL     1      11.133  -4.859   1.021  0.00  0.00    +0.338 C 
BRANCH  10  11
ATOM     11  C   UNL     1      11.866  -5.268   2.272  0.00  0.00    +0.176 A 
ATOM     12  N   UNL     1      12.750  -4.450   2.815  0.00  0.00    -0.196 NA
ATOM     13  C   UNL     1      13.397  -4.806   3.923  0.00  0.00    +0.217 A 
ATOM     14  N   UNL     1      13.160  -5.990   4.476  0.00  0.00    -0.181 NA
ATOM     15  C   UNL     1      12.274  -6.812   3.925  0.00  0.00    +0.217 A 
ATOM     16  N   UNL     1      11.627  -6.447   2.820  0.00  0.00    -0.196 NA
ATOM     17  N   UNL     1      12.024  -8.043   4.496  0.00  0.00    -0.327 N 
ATOM     18  N   UNL     1      14.316  -3.949   4.492  0.00  0.00    -0.327 N 
ATOM     19  H   UNL     1      11.377  -8.643   4.092  0.00  0.00    +0.145 HD
ATOM     20  H   UNL     1      12.495  -8.309   5.301  0.00  0.00    +0.145 HD
ATOM     21  H   UNL     1      14.790  -4.210   5.297  0.00  0.00    +0.145 HD
ATOM     22  H   UNL     1      14.489  -3.084   4.087  0.00  0.00    +0.145 HD
ENDBRANCH  10  11
ENDBRANCH   9  10
ENDBRANCH   8   9
ENDBRANCH   4   7
BRANCH   1  23
ATOM     23  O   UNL     1       5.000  -1.442  -3.945  0.00  0.00    -0.484 OA
BRANCH  23  24
ATOM     24  C   UNL     1       5.519  -1.739  -5.243  0.00  0.00    +0.264 C 
BRANCH  24  28
ATOM     25  C   UNL     1       2.839  -0.260  -8.222  0.00  0.00    +0.000 A 
ATOM     26  C   UNL     1       3.857   0.546  -7.746  0.00  0.00    +0.000 A 
ATOM     27  C   UNL     1       4.724   0.067  -6.782  0.00  0.00    +0.007 A 
ATOM     28  C   UNL     1       4.574  -1.217  -6.294  0.00  0.00    -0.010 A 
ATOM     29  C   UNL     1       3.560  -2.025  -6.774  0.00  0.00    +0.007 A 
ATOM     30  C   UNL     1       2.689  -1.544  -7.734  0.00  0.00    +0.000 A 
ENDBRANCH  24  28
ENDBRANCH  23  24
ENDBRANCH   1  23
BRANCH   6  31
ATOM     31  O   UNL     1       4.113  -0.932  -1.391  0.00  0.00    -0.484 OA
BRANCH  31  32
ATOM     32  C   UNL     1       3.711  -0.707  -0.039  0.00  0.00    +0.264 C 
BRANCH  32  33
ATOM     33  C   UNL     1       2.396   0.029  -0.022  0.00  0.00    -0.010 A 
ATOM     34  C   UNL     1       1.208  -0.679  -0.014  0.00  0.00    +0.007 A 
ATOM     35  C   UNL     1       0.002  -0.004   0.002  0.00  0.00    +0.000 A 
ATOM     36  C   UNL     1      -0.017   1.378   0.010  0.00  0.00    +0.000 A 
ATOM     37  C   UNL     1       1.171   2.086   0.002  0.00  0.00    +0.000 A 
ATOM     38  C   UNL     1       2.377   1.411  -0.014  0.00  0.00    +0.007 A 
ENDBRANCH  32  33
ENDBRANCH  31  32
ENDBRANCH   6  31
TORSDOF 10
