REMARK  Name = ZINC50700099
REMARK  2 active torsions:
REMARK  status: ('A' for Active; 'I' for Inactive)
REMARK    1  A    between atoms: C_2  and  C_9
REMARK    2  A    between atoms: C_6  and  N_7
REMARK                            x       y       z     vdW  Elec       q    Type
REMARK                         _______ _______ _______ _____ _____    ______ ____
ROOT
ATOM      1  C   UNL     1       2.109   1.364  -0.805  0.00  0.00    +0.056 A 
ATOM      2  C   UNL     1       1.197   2.079  -0.026  0.00  0.00    +0.043 A 
ATOM      3  C   UNL     1       0.257   1.360   0.720  0.00  0.00    +0.053 A 
ATOM      4  C   UNL     1       0.264  -0.020   0.661  0.00  0.00    +0.132 A 
ATOM      5  N   UNL     1       1.141  -0.664  -0.086  0.00  0.00    -0.221 NA
ATOM      6  C   UNL     1       2.048  -0.025  -0.808  0.00  0.00    +0.119 A 
ATOM      7 CL   UNL     1      -0.898  -0.921   1.584  0.00  0.00    -0.062 Cl
ENDROOT
BRANCH   2   8
ATOM      8  C   UNL     1       1.224   3.560   0.009  0.00  0.00    +0.247 C 
ATOM      9  O   UNL     1       0.186   4.188  -0.047  0.00  0.00    -0.270 OA
ATOM     10  N   UNL     1       2.401   4.210   0.103  0.00  0.00    -0.287 N 
ATOM     11  C   UNL     1       2.458   5.676   0.228  0.00  0.00    +0.127 C 
ATOM     12  C   UNL     1       3.127   6.016   1.562  0.00  0.00    +0.123 C 
ATOM     13  N   UNL     1       4.335   5.224   1.751  0.00  0.00    -0.313 N 
ATOM     14  C   UNL     1       4.586   4.068   1.134  0.00  0.00    +0.230 C 
ATOM     15  O   UNL     1       5.592   3.460   1.433  0.00  0.00    -0.274 OA
ATOM     16  C   UNL     1       3.680   3.484   0.091  0.00  0.00    +0.203 C 
ATOM     17  H   UNL     1       5.003   5.560   2.368  0.00  0.00    +0.149 HD
ENDBRANCH   2   8
BRANCH   6  18
ATOM     18  N   UNL     1       2.949  -0.751  -1.579  0.00  0.00    -0.343 N 
ATOM     19  H   UNL     1       3.615  -0.288  -2.111  0.00  0.00    +0.144 HD
ATOM     20  H   UNL     1       2.911  -1.720  -1.585  0.00  0.00    +0.144 HD
ENDBRANCH   6  18
TORSDOF 2
