REMARK  Name = ZINC33006949
REMARK  6 active torsions:
REMARK  status: ('A' for Active; 'I' for Inactive)
REMARK    1  A    between atoms: C_1  and  C_2
REMARK    2  A    between atoms: C_5  and  S_8
REMARK    3  A    between atoms: S_8  and  N_11
REMARK    4  A    between atoms: N_11  and  C_12
REMARK    5  A    between atoms: C_15  and  N_21
REMARK    6  A    between atoms: C_17  and  C_18
REMARK                            x       y       z     vdW  Elec       q    Type
REMARK                         _______ _______ _______ _____ _____    ______ ____
ROOT
ATOM      1  C   UNL     1       0.917  11.949  -1.166  0.00  0.00    +0.062 A 
ATOM      2  C   UNL     1       1.592  11.130  -0.270  0.00  0.00    +0.027 A 
ATOM      3  C   UNL     1       1.620   9.765  -0.464  0.00  0.00    +0.025 A 
ATOM      4  C   UNL     1       0.982   9.198  -1.563  0.00  0.00    +0.031 A 
ATOM      5  C   UNL     1       0.304   9.999  -2.465  0.00  0.00    +0.040 A 
ATOM      6  C   UNL     1       0.266  11.383  -2.273  0.00  0.00    +0.087 A 
ENDROOT
BRANCH   4   7
ATOM      7  N   UNL     1       1.021   7.811  -1.754  0.00  0.00    -0.327 N 
ATOM      8  C   UNL     1       1.788   7.154  -0.687  0.00  0.00    +0.124 C 
ATOM      9  C   UNL     1       1.874   5.653  -0.974  0.00  0.00    +0.125 C 
ATOM     10  N   UNL     1       0.517   5.095  -1.063  0.00  0.00    -0.314 N 
ATOM     11  C   UNL     1      -0.250   5.752  -2.130  0.00  0.00    +0.125 C 
ATOM     12  C   UNL     1      -0.336   7.253  -1.843  0.00  0.00    +0.124 C 
ATOM     13  C   UNL     1       0.556   3.719  -1.252  0.00  0.00    +0.099 A 
ATOM     14  C   UNL     1      -0.633   3.004  -1.361  0.00  0.00    +0.042 A 
ATOM     15  C   UNL     1      -0.580   1.636  -1.554  0.00  0.00    +0.005 A 
ATOM     16  C   UNL     1       0.665   1.024  -1.621  0.00  0.00    +0.018 A 
ATOM     17  C   UNL     1       1.804   1.794  -1.506  0.00  0.00    +0.084 A 
ATOM     18  N   UNL     1       1.724   3.099  -1.327  0.00  0.00    -0.350 N 
ATOM     19  H   UNL     1       2.658   3.674  -1.240  0.00  0.00    +0.166 HD
ENDBRANCH   4   7
BRANCH   6  20
ATOM     20  C   UNL     1      -0.453  12.243  -3.229  0.00  0.00    +0.388 C 
ATOM     21  O   UNL     1      -0.484  13.446  -3.059  0.00  0.00    -0.241 OA
ATOM     22  O   UNL     1      -1.077  11.696  -4.291  0.00  0.00    -0.241 OA
ENDBRANCH   6  20
BRANCH   1  23
ATOM     23  N   UNL     1       0.885  13.325  -0.966  0.00  0.00    -0.215 N 
ATOM     24  H   UNL     1      -0.017  13.898  -1.227  0.00  0.00    +0.174 HD
BRANCH  23  25
ATOM     25  S   UNL     1       2.204  14.101  -0.334  0.00  0.00    +0.072 S 
ATOM     26  O   UNL     1       1.916  15.492  -0.376  0.00  0.00    -0.150 OA
ATOM     27  O   UNL     1       2.532  13.427   0.873  0.00  0.00    -0.150 OA
BRANCH  25  32
ATOM     28  C   UNL     1       6.804  13.178  -4.129  0.00  0.00    +0.044 C 
ATOM     29  C   UNL     1       5.655  13.409  -3.181  0.00  0.00    -0.050 A 
ATOM     30  C   UNL     1       4.832  14.507  -3.347  0.00  0.00    +0.005 A 
ATOM     31  C   UNL     1       3.778  14.718  -2.477  0.00  0.00    +0.029 A 
ATOM     32  C   UNL     1       3.547  13.831  -1.442  0.00  0.00    +0.109 A 
ATOM     33  C   UNL     1       4.374  12.736  -1.273  0.00  0.00    +0.029 A 
ATOM     34  C   UNL     1       5.425  12.522  -2.146  0.00  0.00    +0.005 A 
ENDBRANCH  25  32
ENDBRANCH  23  25
ENDBRANCH   1  23
TORSDOF 5
