REMARK  Name = ZINC52587935
REMARK  10 active torsions:
REMARK  status: ('A' for Active; 'I' for Inactive)
REMARK    1  A    between atoms: C_1  and  C_2
REMARK    2  A    between atoms: C_2  and  N_3
REMARK    3  A    between atoms: C_4  and  C_6
REMARK    4  A    between atoms: C_6  and  N_7
REMARK    5  A    between atoms: N_15  and  C_16
REMARK    6  A    between atoms: C_16  and  C_17
REMARK    7  A    between atoms: C_17  and  N_25
REMARK    8  A    between atoms: C_21  and  C_24
REMARK    9  A    between atoms: N_25  and  C_26
REMARK   10  A    between atoms: N_25  and  C_27
REMARK                            x       y       z     vdW  Elec       q    Type
REMARK                         _______ _______ _______ _____ _____    ______ ____
ROOT
ATOM      1  N   UNL     1       1.756  -3.638   2.720  0.00  0.00    -0.291 NA
ATOM      2  C   UNL     1       2.543  -4.146   1.588  0.00  0.00    +0.104 C 
ATOM      3  C   UNL     1       2.350  -5.662   1.476  0.00  0.00    +0.124 C 
ATOM      4  N   UNL     1       2.666  -6.271   2.777  0.00  0.00    -0.283 N 
ATOM      5  C   UNL     1       2.018  -5.722   3.978  0.00  0.00    +0.124 C 
ATOM      6  C   UNL     1       2.224  -4.204   3.992  0.00  0.00    +0.104 C 
ATOM      7  C   UNL     1       3.526  -7.305   2.867  0.00  0.00    +0.302 C 
ATOM      8  O   UNL     1       3.983  -7.805   1.857  0.00  0.00    -0.253 OA
ATOM      9  N   UNL     1       3.880  -7.784   4.075  0.00  0.00    -0.301 N 
ATOM     10  H   UNL     1       3.455  -7.440   4.877  0.00  0.00    +0.150 HD
ENDROOT
BRANCH   1  11
ATOM     11  C   UNL     1       1.777  -2.169   2.758  0.00  0.00    +0.180 C 
BRANCH  11  13
ATOM     12  N   UNL     1       0.962  -0.294   1.366  0.00  0.00    -0.315 N 
ATOM     13  C   UNL     1       1.067  -1.625   1.544  0.00  0.00    +0.227 C 
ATOM     14  O   UNL     1       0.592  -2.386   0.728  0.00  0.00    -0.274 OA
ATOM     15  H   UNL     1       1.343   0.315   2.019  0.00  0.00    +0.149 HD
BRANCH  12  17
ATOM     16  C   UNL     1       0.294   1.764   0.226  0.00  0.00    +0.024 C 
ATOM     17  C   UNL     1       0.272   0.235   0.187  0.00  0.00    +0.101 C 
ENDBRANCH  12  17
ENDBRANCH  11  13
ENDBRANCH   1  11
BRANCH   9  18
ATOM     18  C   UNL     1       4.905  -8.825   4.179  0.00  0.00    +0.094 C 
BRANCH  18  19
ATOM     19  C   UNL     1       5.026  -9.280   5.635  0.00  0.00    -0.050 C 
ATOM     20  C   UNL     1       3.662  -9.763   6.132  0.00  0.00    -0.010 C 
ATOM     21  C   UNL     1       3.782 -10.218   7.588  0.00  0.00    -0.001 C 
ATOM     22  C   UNL     1       4.253  -9.046   8.451  0.00  0.00    +0.003 C 
ATOM     23  C   UNL     1       5.617  -8.563   7.954  0.00  0.00    -0.015 C 
ATOM     24  C   UNL     1       5.497  -8.108   6.498  0.00  0.00    -0.007 C 
ATOM     25  C   UNL     1       6.089  -7.391   8.817  0.00  0.00    +0.007 C 
BRANCH  19  26
ATOM     26  N   UNL     1       5.997 -10.378   5.726  0.00  0.00    +0.381 N 
ATOM     27  C   UNL     1       5.580 -11.476   4.845  0.00  0.00    -0.096 C 
ATOM     28  C   UNL     1       7.322  -9.895   5.314  0.00  0.00    -0.096 C 
ATOM     29  H   UNL     1       6.042 -10.709   6.678  0.00  0.00    -0.082 HD
ENDBRANCH  19  26
ENDBRANCH  18  19
ENDBRANCH   9  18
TORSDOF 6
