REMARK  Name = ZINC58246587
REMARK  6 active torsions:
REMARK  status: ('A' for Active; 'I' for Inactive)
REMARK    1  A    between atoms: C_1  and  C_2
REMARK    2  A    between atoms: C_3  and  C_19
REMARK    3  A    between atoms: C_4  and  C_11
REMARK    4  A    between atoms: N_9  and  C_10
REMARK    5  A    between atoms: N_21  and  C_22
REMARK    6  A    between atoms: C_27  and  C_28
REMARK                            x       y       z     vdW  Elec       q    Type
REMARK                         _______ _______ _______ _____ _____    ______ ____
ROOT
ATOM      1  C   UNL     1      -0.207   0.971  -0.099  0.00  0.00    +0.061 C 
ATOM      2  C   UNL     1      -0.292  -0.530   0.006  0.00  0.00    +0.022 C 
ATOM      3  C   UNL     1      -1.500  -1.131  -0.036  0.00  0.00    +0.056 C 
ATOM      4  C   UNL     1      -1.540  -2.642   0.072  0.00  0.00    +0.142 C 
ATOM      5  N   UNL     1      -0.249  -3.335   0.215  0.00  0.00    -0.288 N 
ATOM      6  C   UNL     1       0.877  -2.596   0.240  0.00  0.00    +0.307 C 
ATOM      7  O   UNL     1       1.948  -3.159   0.357  0.00  0.00    -0.252 OA
ATOM      8  N   UNL     1       0.855  -1.261   0.135  0.00  0.00    -0.262 N 
ATOM      9  C   UNL     1       2.132  -0.543   0.166  0.00  0.00    +0.139 C 
ATOM     10  H   UNL     1      -0.210  -4.302   0.289  0.00  0.00    +0.151 HD
ENDROOT
BRANCH   4  11
ATOM     11  C   UNL     1      -2.221  -3.177  -1.161  0.00  0.00    -0.020 A 
ATOM     12  C   UNL     1      -1.521  -3.276  -2.349  0.00  0.00    +0.009 A 
ATOM     13  C   UNL     1      -2.143  -3.767  -3.481  0.00  0.00    +0.041 A 
ATOM     14  C   UNL     1      -3.469  -4.161  -3.426  0.00  0.00    +0.158 A 
ATOM     15  C   UNL     1      -4.171  -4.063  -2.234  0.00  0.00    +0.159 A 
ATOM     16  C   UNL     1      -3.544  -3.575  -1.101  0.00  0.00    +0.047 A 
ATOM     17  F   UNL     1      -5.465  -4.446  -2.179  0.00  0.00    -0.202 F 
ATOM     18  F   UNL     1      -4.078  -4.641  -4.532  0.00  0.00    -0.202 F 
ENDBRANCH   4  11
BRANCH   3  19
ATOM     19  C   UNL     1      -2.690  -0.374  -0.175  0.00  0.00    +0.248 C 
ATOM     20  O   UNL     1      -3.427  -0.219   0.781  0.00  0.00    -0.270 OA
ATOM     21  N   UNL     1      -3.005   0.172  -1.366  0.00  0.00    -0.281 N 
ATOM     22  H   UNL     1      -2.455  -0.010  -2.144  0.00  0.00    +0.155 HD
BRANCH  21  23
ATOM     23  C   UNL     1      -4.125   1.003  -1.479  0.00  0.00    +0.045 A 
ATOM     24  C   UNL     1      -4.685   1.574  -0.344  0.00  0.00    +0.024 A 
ATOM     25  C   UNL     1      -5.791   2.394  -0.459  0.00  0.00    +0.002 A 
ATOM     26  C   UNL     1      -6.340   2.645  -1.704  0.00  0.00    +0.001 A 
ATOM     27  C   UNL     1      -5.784   2.078  -2.836  0.00  0.00    +0.014 A 
ATOM     28  C   UNL     1      -4.675   1.262  -2.728  0.00  0.00    +0.076 A 
BRANCH  28  29
ATOM     29  C   UNL     1      -4.066   0.650  -3.962  0.00  0.00    +0.419 C 
ATOM     30  F   UNL     1      -4.767   1.084  -5.093  0.00  0.00    -0.166 F 
ATOM     31  F   UNL     1      -2.727   1.041  -4.065  0.00  0.00    -0.166 F 
ATOM     32  F   UNL     1      -4.139  -0.745  -3.876  0.00  0.00    -0.166 F 
ENDBRANCH  28  29
ENDBRANCH  21  23
ENDBRANCH   3  19
TORSDOF 4
