REMARK  Name = ZINC35271448
REMARK  14 active torsions:
REMARK  status: ('A' for Active; 'I' for Inactive)
REMARK    1  A    between atoms: C_1  and  C_2
REMARK    2  A    between atoms: C_5  and  C_37
REMARK    3  A    between atoms: C_7  and  O_17
REMARK    4  A    between atoms: C_14  and  O_16
REMARK    5  A    between atoms: O_17  and  C_18
REMARK    6  A    between atoms: C_20  and  O_36
REMARK    7  A    between atoms: C_22  and  O_35
REMARK    8  A    between atoms: C_24  and  O_34
REMARK    9  A    between atoms: C_26  and  C_29
REMARK   10  A    between atoms: C_29  and  O_30
REMARK   11  A    between atoms: O_30  and  C_31
REMARK   12  A    between atoms: C_31  and  C_33
REMARK   13  A    between atoms: C_37  and  C_38
REMARK   14  A    between atoms: C_37  and  C_39
REMARK                            x       y       z     vdW  Elec       q    Type
REMARK                         _______ _______ _______ _____ _____    ______ ____
ROOT
ATOM      1  O   UNL     1       3.422   0.168  -3.423  0.00  0.00    -0.345 OA
ENDROOT
BRANCH   1   7
ATOM      2  C   UNL     1      -0.461   1.046  -0.248  0.00  0.00    +0.041 C 
ATOM      3  C   UNL     1      -0.018  -0.386  -0.088  0.00  0.00    -0.048 C 
ATOM      4  C   UNL     1       0.171  -1.135  -1.146  0.00  0.00    -0.025 C 
ATOM      5  C   UNL     1      -0.054  -0.564  -2.522  0.00  0.00    +0.033 C 
ATOM      6  C   UNL     1       1.198  -0.777  -3.375  0.00  0.00    +0.025 C 
ATOM      7  C   UNL     1       2.439  -0.407  -2.560  0.00  0.00    +0.129 C 
ATOM      8  C   UNL     1       3.010  -1.665  -1.903  0.00  0.00    +0.062 C 
ATOM      9  C   UNL     1       3.182  -1.426  -0.425  0.00  0.00    -0.074 C 
ATOM     10  C   UNL     1       4.110  -0.606   0.003  0.00  0.00    +0.008 C 
ATOM     11  C   UNL     1       2.286  -2.131   0.561  0.00  0.00    +0.033 C 
ATOM     12  C   UNL     1       1.705  -1.109   1.542  0.00  0.00    +0.040 C 
ATOM     13  C   UNL     1       0.200  -0.958   1.289  0.00  0.00    +0.140 C 
BRANCH   6  14
ATOM     14  C   UNL     1       1.123   0.109  -4.620  0.00  0.00    -0.011 C 
ATOM     15  C   UNL     1       2.196  -0.327  -5.621  0.00  0.00    +0.007 C 
ATOM     16  C   UNL     1      -0.259  -0.029  -5.262  0.00  0.00    +0.007 C 
ENDBRANCH   6  14
BRANCH  13  17
ATOM     17  O   UNL     1      -0.432  -2.236   1.379  0.00  0.00    -0.388 OA
ATOM     18  H   UNL     1      -1.387  -2.215   1.227  0.00  0.00    +0.210 HD
ENDBRANCH  13  17
ENDBRANCH   1   7
BRANCH   1  19
ATOM     19  C   UNL     1       3.571   1.581  -3.275  0.00  0.00    +0.282 C 
ATOM     20  C   UNL     1       4.445   2.125  -4.408  0.00  0.00    +0.201 C 
ATOM     21  C   UNL     1       4.649   3.629  -4.208  0.00  0.00    +0.179 C 
ATOM     22  C   UNL     1       5.270   3.870  -2.828  0.00  0.00    +0.178 C 
ATOM     23  C   UNL     1       4.364   3.259  -1.756  0.00  0.00    +0.190 C 
ATOM     24  O   UNL     1       4.190   1.865  -2.018  0.00  0.00    -0.339 OA
BRANCH  22  25
ATOM     25  O   UNL     1       6.560   3.257  -2.771  0.00  0.00    -0.386 OA
ATOM     26  H   UNL     1       7.185   3.594  -3.428  0.00  0.00    +0.210 HD
ENDBRANCH  22  25
BRANCH  21  27
ATOM     27  O   UNL     1       5.522   4.132  -5.221  0.00  0.00    -0.386 OA
ATOM     28  H   UNL     1       5.193   4.007  -6.122  0.00  0.00    +0.210 HD
ENDBRANCH  21  27
BRANCH  20  29
ATOM     29  O   UNL     1       5.711   1.463  -4.393  0.00  0.00    -0.384 OA
ATOM     30  H   UNL     1       5.656   0.505  -4.510  0.00  0.00    +0.210 HD
ENDBRANCH  20  29
BRANCH  23  31
ATOM     31  C   UNL     1       5.007   3.443  -0.380  0.00  0.00    +0.266 C 
BRANCH  31  32
ATOM     32  O   UNL     1       4.118   2.961   0.630  0.00  0.00    -0.462 OA
BRANCH  32  33
ATOM     33  C   UNL     1       4.534   3.050   1.902  0.00  0.00    +0.304 C 
ATOM     34  O   UNL     1       5.618   3.522   2.151  0.00  0.00    -0.251 OA
ATOM     35  C   UNL     1       3.650   2.562   3.021  0.00  0.00    +0.136 C 
ENDBRANCH  32  33
ENDBRANCH  31  32
ENDBRANCH  23  31
ENDBRANCH   1  19
TORSDOF 10
