REMARK  Name = ZINC67466006
REMARK  7 active torsions:
REMARK  status: ('A' for Active; 'I' for Inactive)
REMARK    1  A    between atoms: C_1  and  C_2
REMARK    2  A    between atoms: C_2  and  C_3
REMARK    3  A    between atoms: C_2  and  N_4
REMARK    4  A    between atoms: C_5  and  C_7
REMARK    5  A    between atoms: C_11  and  C_13
REMARK    6  A    between atoms: C_13  and  N_14
REMARK    7  A    between atoms: N_17  and  N_18
REMARK                            x       y       z     vdW  Elec       q    Type
REMARK                         _______ _______ _______ _____ _____    ______ ____
ROOT
ATOM      1  N   UNL     1       0.100  -0.660   7.949  0.00  0.00    -0.294 N 
ATOM      2  C   UNL     1      -0.489  -0.577   9.158  0.00  0.00    +0.316 C 
ATOM      3  O   UNL     1      -1.084  -1.536   9.611  0.00  0.00    -0.251 OA
ATOM      4  N   UNL     1      -0.420   0.568   9.864  0.00  0.00    -0.219 N 
ATOM      5  H   UNL     1       0.575   0.105   7.587  0.00  0.00    +0.151 HD
ATOM      6  H   UNL     1      -0.844   0.628  10.735  0.00  0.00    +0.174 HD
ENDROOT
BRANCH   4   7
ATOM      7  N   UNL     1       0.265   1.673   9.342  0.00  0.00    -0.246 N 
ATOM      8  C   UNL     1       0.337   2.856  10.071  0.00  0.00    +0.157 A 
ATOM      9  C   UNL     1       1.014   3.959   9.551  0.00  0.00    +0.050 A 
ATOM     10  C   UNL     1       1.057   5.113  10.316  0.00  0.00    +0.045 A 
ATOM     11  C   UNL     1       0.424   5.100  11.553  0.00  0.00    +0.152 A 
ATOM     12  N   UNL     1      -0.193   4.010  11.966  0.00  0.00    -0.136 NA
ATOM     13  N   UNL     1      -0.241   2.940  11.259  0.00  0.00    -0.132 NA
ATOM     14 CL   UNL     1       0.446   6.518  12.555  0.00  0.00    -0.060 Cl
ATOM     15  H   UNL     1       0.690   1.613   8.472  0.00  0.00    +0.172 HD
ENDBRANCH   4   7
BRANCH   1  16
ATOM     16  C   UNL     1       0.024  -1.905   7.181  0.00  0.00    +0.141 C 
BRANCH  16  21
ATOM     17  C   UNL     1       0.766  -1.123   3.553  0.00  0.00    +0.037 A 
ATOM     18  C   UNL     1       2.126  -1.432   3.481  0.00  0.00    +0.013 A 
ATOM     19  C   UNL     1       2.787  -1.888   4.602  0.00  0.00    +0.001 A 
ATOM     20  C   UNL     1       2.106  -2.040   5.797  0.00  0.00    +0.005 A 
ATOM     21  C   UNL     1       0.758  -1.736   5.875  0.00  0.00    -0.030 A 
ATOM     22  C   UNL     1       0.086  -1.274   4.763  0.00  0.00    +0.018 A 
BRANCH  17  24
ATOM     23  N   UNL     1       0.711  -0.489   1.189  0.00  0.00    -0.309 N 
ATOM     24  C   UNL     1       0.051  -0.633   2.355  0.00  0.00    +0.244 C 
ATOM     25  O   UNL     1      -1.131  -0.361   2.423  0.00  0.00    -0.270 OA
ATOM     26  H   UNL     1       1.654  -0.707   1.135  0.00  0.00    +0.149 HD
BRANCH  23  28
ATOM     27  C   UNL     1      -0.019   1.526   0.010  0.00  0.00    +0.027 C 
ATOM     28  C   UNL     1       0.002  -0.004   0.002  0.00  0.00    +0.067 C 
ATOM     29  C   UNL     1       0.718  -0.497  -1.257  0.00  0.00    +0.027 C 
ENDBRANCH  23  28
ENDBRANCH  17  24
ENDBRANCH  16  21
ENDBRANCH   1  16
TORSDOF 5
