REMARK  Name = ZINC39947431
REMARK  10 active torsions:
REMARK  status: ('A' for Active; 'I' for Inactive)
REMARK    1  A    between atoms: C_1  and  C_2
REMARK    2  A    between atoms: C_2  and  N_3
REMARK    3  A    between atoms: C_4  and  C_26
REMARK    4  A    between atoms: C_8  and  S_9
REMARK    5  A    between atoms: S_9  and  C_10
REMARK    6  A    between atoms: C_10  and  C_12
REMARK    7  A    between atoms: C_10  and  C_13
REMARK    8  A    between atoms: C_13  and  C_15
REMARK    9  A    between atoms: C_23  and  C_25
REMARK   10  A    between atoms: C_26  and  N_27
REMARK                            x       y       z     vdW  Elec       q    Type
REMARK                         _______ _______ _______ _____ _____    ______ ____
ROOT
ATOM      1  N   UNL     1      -1.457   0.173  -0.146  0.00  0.00    -0.288 N 
ATOM      2  C   UNL     1      -2.172   0.219   1.141  0.00  0.00    +0.194 C 
ATOM      3  N   UNL     1      -3.486  -0.372   0.837  0.00  0.00    -0.245 N 
ATOM      4  N   UNL     1      -3.459  -0.706  -0.522  0.00  0.00    -0.163 NA
ATOM      5  C   UNL     1      -2.330  -0.395  -1.063  0.00  0.00    +0.176 C 
ATOM      6  H   UNL     1      -4.223  -0.503   1.455  0.00  0.00    +0.170 HD
ENDROOT
BRANCH   1   8
ATOM      7  C   UNL     1      -0.140   2.066  -0.960  0.00  0.00    +0.024 C 
ATOM      8  C   UNL     1      -0.094   0.640  -0.409  0.00  0.00    +0.105 C 
ENDBRANCH   1   8
BRANCH   5   9
ATOM      9  S   UNL     1      -1.942  -0.662  -2.761  0.00  0.00    -0.078 S 
BRANCH   9  10
ATOM     10  C   UNL     1      -3.444  -1.417  -3.441  0.00  0.00    +0.122 C 
ATOM     11  C   UNL     1      -3.667  -2.784  -2.791  0.00  0.00    +0.028 C 
BRANCH  10  12
ATOM     12  C   UNL     1      -3.290  -1.588  -4.931  0.00  0.00    +0.175 C 
ATOM     13  O   UNL     1      -2.182  -1.646  -5.424  0.00  0.00    -0.291 OA
BRANCH  12  14
ATOM     14  C   UNL     1      -4.434  -1.681  -5.752  0.00  0.00    +0.027 C 
ATOM     15  C   UNL     1      -5.754  -1.744  -5.344  0.00  0.00    +0.006 A 
ATOM     16  C   UNL     1      -6.369  -1.740  -4.070  0.00  0.00    +0.010 A 
ATOM     17  C   UNL     1      -7.714  -1.815  -3.962  0.00  0.00    +0.001 A 
ATOM     18  C   UNL     1      -8.556  -1.899  -5.082  0.00  0.00    +0.002 A 
ATOM     19  C   UNL     1      -8.071  -1.911  -6.342  0.00  0.00    +0.026 A 
ATOM     20  C   UNL     1      -6.615  -1.832  -6.549  0.00  0.00    +0.043 A 
ATOM     21  N   UNL     1      -5.889  -1.825  -7.630  0.00  0.00    -0.377 N 
ATOM     22  C   UNL     1      -4.473  -1.725  -7.264  0.00  0.00    +0.111 C 
ATOM     23  C   UNL     1      -3.712  -2.950  -7.775  0.00  0.00    +0.035 C 
ATOM     24  H   UNL     1      -6.232  -1.873  -8.537  0.00  0.00    +0.160 HD
ENDBRANCH  12  14
ENDBRANCH  10  12
ENDBRANCH   9  10
ENDBRANCH   5   9
BRANCH   2  25
ATOM     25  C   UNL     1      -2.327   1.665   1.616  0.00  0.00    +0.151 C 
BRANCH  25  26
ATOM     26  N   UNL     1      -2.896   1.677   2.966  0.00  0.00    -0.298 N 
ATOM     27  C   UNL     1      -4.355   1.616   3.145  0.00  0.00    +0.108 C 
ATOM     28  C   UNL     1      -4.725   0.234   3.688  0.00  0.00    +0.019 C 
ATOM     29  C   UNL     1      -4.629   0.204   5.202  0.00  0.00    +0.002 C 
ATOM     30  C   UNL     1      -3.214   0.352   5.729  0.00  0.00    +0.009 C 
ATOM     31  C   UNL     1      -2.664   1.748   5.425  0.00  0.00    +0.096 C 
ATOM     32  C   UNL     1      -2.087   1.737   4.025  0.00  0.00    +0.216 C 
ATOM     33  O   UNL     1      -0.886   1.787   3.866  0.00  0.00    -0.276 OA
ENDBRANCH  25  26
ENDBRANCH   2  25
TORSDOF 7
