REMARK  Name = ZINC32991024
REMARK  7 active torsions:
REMARK  status: ('A' for Active; 'I' for Inactive)
REMARK    1  A    between atoms: C_1  and  C_2
REMARK    2  A    between atoms: C_2  and  C_4
REMARK    3  A    between atoms: C_2  and  N_25
REMARK    4  A    between atoms: N_6  and  C_7
REMARK    5  A    between atoms: C_7  and  C_8
REMARK    6  A    between atoms: C_8  and  N_9
REMARK    7  A    between atoms: C_13  and  C_14
REMARK                            x       y       z     vdW  Elec       q    Type
REMARK                         _______ _______ _______ _____ _____    ______ ____
ROOT
ATOM      1  N   UNL     1       1.787   3.447   0.059  0.00  0.00    -0.227 N 
ATOM      2  C   UNL     1       1.648   4.095   1.203  0.00  0.00    +0.260 C 
ATOM      3  O   UNL     1       1.620   3.510   2.270  0.00  0.00    -0.269 OA
ATOM      4  C   UNL     1       1.527   5.565   1.121  0.00  0.00    +0.080 C 
ATOM      5  C   UNL     1       1.377   6.478   2.114  0.00  0.00    +0.029 C 
ATOM      6  S   UNL     1       1.635   5.811  -0.646  0.00  0.00    -0.026 S 
ATOM      7  C   UNL     1       1.822   4.100  -1.121  0.00  0.00    +0.286 C 
ATOM      8  O   UNL     1       1.949   3.636  -2.238  0.00  0.00    -0.262 OA
ENDROOT
BRANCH   5   9
ATOM      9  C   UNL     1       1.465   7.913   1.812  0.00  0.00    -0.005 A 
ATOM     10  C   UNL     1       2.058   8.346   0.620  0.00  0.00    +0.011 A 
ATOM     11  C   UNL     1       2.137   9.694   0.344  0.00  0.00    +0.020 A 
ATOM     12  C   UNL     1       1.631  10.620   1.242  0.00  0.00    +0.042 A 
ATOM     13  C   UNL     1       1.044  10.201   2.424  0.00  0.00    +0.040 A 
ATOM     14  C   UNL     1       0.952   8.854   2.712  0.00  0.00    +0.050 A 
ATOM     15 CL   UNL     1       0.208   8.330   4.191  0.00  0.00    -0.083 Cl
ATOM     16 CL   UNL     1       1.736  12.316   0.884  0.00  0.00    -0.083 Cl
ENDBRANCH   5   9
BRANCH   1  17
ATOM     17  C   UNL     1       1.911   1.988   0.073  0.00  0.00    +0.136 C 
BRANCH  17  18
ATOM     18  C   UNL     1       0.521   1.356  -0.026  0.00  0.00    +0.123 C 
BRANCH  18  21
ATOM     19  C   UNL     1      -0.457  -0.874  -0.090  0.00  0.00    +0.233 C 
ATOM     20  O   UNL     1      -1.552  -0.360  -0.172  0.00  0.00    -0.274 OA
ATOM     21  N   UNL     1       0.646  -0.103  -0.012  0.00  0.00    -0.312 N 
ATOM     22  H   UNL     1       1.639  -0.570   0.062  0.00  0.00    +0.149 HD
BRANCH  19  24
ATOM     23  C   UNL     1       0.523  -2.827  -1.264  0.00  0.00    +0.038 C 
ATOM     24  C   UNL     1      -0.329  -2.376  -0.076  0.00  0.00    +0.157 C 
BRANCH  24  25
ATOM     25  N   UNL     1      -1.660  -2.981  -0.171  0.00  0.00    -0.289 N 
ATOM     26  C   UNL     1      -1.873  -4.221   0.313  0.00  0.00    +0.298 C 
ATOM     27  O   UNL     1      -0.960  -4.837   0.828  0.00  0.00    -0.253 OA
ATOM     28  N   UNL     1      -3.097  -4.777   0.225  0.00  0.00    -0.313 N 
ATOM     29  H   UNL     1      -2.485  -2.422  -0.637  0.00  0.00    +0.151 HD
ATOM     30  H   UNL     1      -3.271  -5.789   0.620  0.00  0.00    +0.146 HD
ATOM     31  H   UNL     1      -3.923  -4.219  -0.241  0.00  0.00    +0.146 HD
ENDBRANCH  24  25
ENDBRANCH  19  24
ENDBRANCH  18  21
ENDBRANCH  17  18
ENDBRANCH   1  17
TORSDOF 6
