REMARK  Name = ZINC36100888
REMARK  6 active torsions:
REMARK  status: ('A' for Active; 'I' for Inactive)
REMARK    1  A    between atoms: C_1  and  C_2
REMARK    2  A    between atoms: C_8  and  C_10
REMARK    3  A    between atoms: C_10  and  C_12
REMARK    4  A    between atoms: C_10  and  N_13
REMARK    5  A    between atoms: N_13  and  S_14
REMARK    6  A    between atoms: S_14  and  C_17
REMARK                            x       y       z     vdW  Elec       q    Type
REMARK                         _______ _______ _______ _____ _____    ______ ____
ROOT
ATOM      1  N   UNL     1      -5.055  -3.989   0.003  0.00  0.00    -0.178 NA
ATOM      2  H   UNL     1      -5.335  -3.191  -0.472  0.00  0.00    +0.149 HD
ENDROOT
BRANCH   1   3
ATOM      3  S   UNL     1      -6.168  -4.897   0.826  0.00  0.00    +0.059 S 
ATOM      4  O   UNL     1      -7.421  -4.244   0.669  0.00  0.00    -0.153 OA
ATOM      5  O   UNL     1      -5.959  -6.247   0.436  0.00  0.00    -0.153 OA
BRANCH   3   6
ATOM      6  C   UNL     1      -5.760  -4.798   2.537  0.00  0.00    +0.106 A 
ATOM      7  C   UNL     1      -4.892  -5.718   3.098  0.00  0.00    +0.029 A 
ATOM      8  C   UNL     1      -4.580  -5.636   4.438  0.00  0.00    +0.006 A 
ATOM      9  C   UNL     1      -5.128  -4.635   5.231  0.00  0.00    -0.044 A 
ATOM     10  C   UNL     1      -5.987  -3.716   4.672  0.00  0.00    -0.042 A 
ATOM     11  C   UNL     1      -6.299  -3.800   3.321  0.00  0.00    +0.032 A 
ATOM     12  C   UNL     1      -6.606  -2.596   5.467  0.00  0.00    +0.035 C 
ATOM     13  C   UNL     1      -6.515  -2.886   6.964  0.00  0.00    +0.005 C 
ATOM     14  C   UNL     1      -5.063  -3.245   7.301  0.00  0.00    +0.005 C 
ATOM     15  C   UNL     1      -4.749  -4.609   6.689  0.00  0.00    +0.035 C 
ENDBRANCH   3   6
ENDBRANCH   1   3
BRANCH   1  16
ATOM     16  C   UNL     1      -3.646  -4.389  -0.006  0.00  0.00    +0.159 C 
ATOM     17  C   UNL     1      -3.358  -5.215  -1.261  0.00  0.00    +0.035 C 
BRANCH  16  25
ATOM     18  C   UNL     1      -0.018   1.503   0.010  0.00  0.00    +0.089 C 
ATOM     19  C   UNL     1       0.002  -0.004   0.002  0.00  0.00    +0.136 A 
ATOM     20  C   UNL     1      -1.076  -0.808   0.003  0.00  0.00    +0.091 A 
ATOM     21  C   UNL     1      -0.625  -2.147  -0.007  0.00  0.00    +0.168 A 
ATOM     22  N   UNL     1       0.683  -2.130  -0.013  0.00  0.00    -0.063 NA
ATOM     23  O   UNL     1       1.100  -0.776  -0.013  0.00  0.00    -0.358 OA
ATOM     24  N   UNL     1      -1.432  -3.285  -0.010  0.00  0.00    -0.266 N 
ATOM     25  C   UNL     1      -2.774  -3.159  -0.003  0.00  0.00    +0.237 C 
ATOM     26  O   UNL     1      -3.280  -2.057   0.006  0.00  0.00    -0.274 OA
ATOM     27  H   UNL     1      -1.027  -4.166  -0.017  0.00  0.00    +0.156 HD
ENDBRANCH  16  25
ENDBRANCH   1  16
TORSDOF 4
