REMARK  Name = ZINC45400564
REMARK  6 active torsions:
REMARK  status: ('A' for Active; 'I' for Inactive)
REMARK    1  A    between atoms: C_1  and  C_2
REMARK    2  A    between atoms: C_5  and  C_9
REMARK    3  A    between atoms: C_6  and  C_8
REMARK    4  A    between atoms: C_9  and  N_10
REMARK    5  A    between atoms: C_11  and  C_13
REMARK    6  A    between atoms: C_13  and  C_18
REMARK                            x       y       z     vdW  Elec       q    Type
REMARK                         _______ _______ _______ _____ _____    ______ ____
ROOT
ATOM      1  N   UNL     1      -1.293  -4.782   0.223  0.00  0.00    -0.310 N 
ATOM      2  C   UNL     1      -1.518  -6.111   0.260  0.00  0.00    +0.233 C 
ATOM      3  O   UNL     1      -0.601  -6.886   0.091  0.00  0.00    -0.274 OA
ATOM      4  H   UNL     1      -2.026  -4.162   0.359  0.00  0.00    +0.149 HD
ENDROOT
BRANCH   2   5
ATOM      5  C   UNL     1      -2.909  -6.633   0.512  0.00  0.00    +0.133 C 
ATOM      6  C   UNL     1      -3.391  -6.199   1.911  0.00  0.00    +0.031 C 
ATOM      7  C   UNL     1      -4.202  -7.413   2.427  0.00  0.00    +0.002 C 
ATOM      8  C   UNL     1      -3.384  -8.619   1.902  0.00  0.00    +0.002 C 
ATOM      9  C   UNL     1      -2.904  -8.171   0.506  0.00  0.00    +0.031 C 
BRANCH   5  10
ATOM     10  C   UNL     1      -3.831  -6.127  -0.519  0.00  0.00    +0.079 C 
ATOM     11  N   UNL     1      -4.542  -5.738  -1.315  0.00  0.00    -0.195 NA
ENDBRANCH   5  10
ENDBRANCH   2   5
BRANCH   1  12
ATOM     12  C   UNL     1       0.059  -4.275  -0.021  0.00  0.00    +0.139 C 
BRANCH  12  17
ATOM     13  C   UNL     1      -0.018   1.503   0.010  0.00  0.00    +0.044 C 
ATOM     14  C   UNL     1       0.002  -0.004   0.002  0.00  0.00    -0.050 A 
ATOM     15  C   UNL     1       0.006  -0.689  -1.199  0.00  0.00    +0.004 A 
ATOM     16  C   UNL     1       0.025  -2.071  -1.207  0.00  0.00    +0.006 A 
ATOM     17  C   UNL     1       0.040  -2.768  -0.013  0.00  0.00    -0.027 A 
ATOM     18  C   UNL     1       0.037  -2.084   1.188  0.00  0.00    -0.046 A 
ATOM     19  C   UNL     1       0.023  -0.702   1.195  0.00  0.00    +0.007 A 
ATOM     20  C   UNL     1       0.054  -2.845   2.489  0.00  0.00    +0.044 C 
ENDBRANCH  12  17
ENDBRANCH   1  12
TORSDOF 4
