REMARK  Name = ZINC39549110
REMARK  10 active torsions:
REMARK  status: ('A' for Active; 'I' for Inactive)
REMARK    1  A    between atoms: C_1  and  O_2
REMARK    2  A    between atoms: O_2  and  C_3
REMARK    3  A    between atoms: C_5  and  C_13
REMARK    4  A    between atoms: C_8  and  O_9
REMARK    5  A    between atoms: O_9  and  C_10
REMARK    6  A    between atoms: C_10  and  C_11
REMARK    7  A    between atoms: C_14  and  C_15
REMARK    8  A    between atoms: N_17  and  C_18
REMARK    9  A    between atoms: C_20  and  C_30
REMARK   10  A    between atoms: C_23  and  N_24
REMARK                            x       y       z     vdW  Elec       q    Type
REMARK                         _______ _______ _______ _____ _____    ______ ____
ROOT
ATOM      1  C   UNL     1       3.588   0.543  -6.328  0.00  0.00    +0.241 C 
ATOM      2  O   UNL     1       3.553   1.758  -6.265  0.00  0.00    -0.270 OA
ATOM      3  N   UNL     1       4.189  -0.060  -7.373  0.00  0.00    -0.280 N 
ATOM      4  H   UNL     1       4.288  -1.025  -7.385  0.00  0.00    +0.155 HD
ENDROOT
BRANCH   3   5
ATOM      5  C   UNL     1       4.670   0.706  -8.443  0.00  0.00    +0.056 A 
ATOM      6  C   UNL     1       4.119   1.946  -8.708  0.00  0.00    +0.038 A 
ATOM      7  C   UNL     1       4.602   2.707  -9.775  0.00  0.00    +0.038 A 
ATOM      8  C   UNL     1       5.640   2.213 -10.571  0.00  0.00    +0.015 A 
ATOM      9  C   UNL     1       6.186   0.978 -10.303  0.00  0.00    +0.026 A 
ATOM     10  C   UNL     1       5.711   0.220  -9.239  0.00  0.00    +0.051 A 
BRANCH  10  11
ATOM     11  N   UNL     1       6.270  -1.026  -8.968  0.00  0.00    -0.328 N 
ATOM     12  C   UNL     1       5.732  -2.240  -9.597  0.00  0.00    +0.105 C 
ATOM     13  C   UNL     1       6.877  -2.985 -10.290  0.00  0.00    +0.019 C 
ATOM     14  C   UNL     1       7.997  -3.244  -9.280  0.00  0.00    +0.003 C 
ATOM     15  C   UNL     1       8.535  -1.909  -8.760  0.00  0.00    +0.019 C 
ATOM     16  C   UNL     1       7.413  -1.151  -8.053  0.00  0.00    +0.105 C 
ENDBRANCH  10  11
BRANCH   7  17
ATOM     17  C   UNL     1       4.017   4.031 -10.063  0.00  0.00    +0.242 C 
ATOM     18  O   UNL     1       3.114   4.460  -9.370  0.00  0.00    -0.270 OA
ATOM     19  N   UNL     1       4.483   4.765 -11.093  0.00  0.00    -0.325 N 
ATOM     20  H   UNL     1       5.203   4.423 -11.645  0.00  0.00    +0.145 HD
ATOM     21  H   UNL     1       4.098   5.635 -11.281  0.00  0.00    +0.145 HD
ENDBRANCH   7  17
ENDBRANCH   3   5
BRANCH   1  23
ATOM     22  C   UNL     1       2.378   0.342  -4.224  0.00  0.00    +0.013 C 
ATOM     23  C   UNL     1       2.980  -0.262  -5.270  0.00  0.00    +0.068 C 
BRANCH  22  26
ATOM     24  C   UNL     1       0.568  -0.609  -1.078  0.00  0.00    +0.162 A 
ATOM     25  C   UNL     1       1.142   0.157  -2.074  0.00  0.00    +0.057 A 
ATOM     26  C   UNL     1       1.766  -0.468  -3.160  0.00  0.00    -0.021 A 
ATOM     27  C   UNL     1       1.805  -1.865  -3.231  0.00  0.00    +0.012 A 
ATOM     28  C   UNL     1       1.230  -2.621  -2.233  0.00  0.00    +0.050 A 
ATOM     29  C   UNL     1       0.616  -2.001  -1.153  0.00  0.00    +0.162 A 
BRANCH  24  31
ATOM     30  C   UNL     1      -0.051   1.423  -0.009  0.00  0.00    +0.277 C 
ATOM     31  O   UNL     1      -0.039  -0.006  -0.021  0.00  0.00    -0.491 OA
ENDBRANCH  24  31
BRANCH  29  32
ATOM     32  O   UNL     1       0.056  -2.752  -0.170  0.00  0.00    -0.484 OA
BRANCH  32  33
ATOM     33  C   UNL     1       0.141  -4.171  -0.309  0.00  0.00    +0.256 C 
BRANCH  33  34
ATOM     34  C   UNL     1      -0.530  -4.833   0.867  0.00  0.00    +0.006 C 
ATOM     35  C   UNL     1      -1.341  -5.844   0.675  0.00  0.00    +0.007 C 
ENDBRANCH  33  34
ENDBRANCH  32  33
ENDBRANCH  29  32
ENDBRANCH  22  26
ENDBRANCH   1  23
TORSDOF 9
