REMARK  Name = ZINC67432753
REMARK  8 active torsions:
REMARK  status: ('A' for Active; 'I' for Inactive)
REMARK    1  A    between atoms: C_1  and  C_2
REMARK    2  A    between atoms: C_2  and  C_4
REMARK    3  A    between atoms: C_2  and  N_12
REMARK    4  A    between atoms: C_13  and  C_15
REMARK    5  A    between atoms: N_17  and  C_18
REMARK    6  A    between atoms: C_21  and  N_24
REMARK    7  A    between atoms: C_25  and  O_27
REMARK    8  A    between atoms: O_27  and  C_28
REMARK                            x       y       z     vdW  Elec       q    Type
REMARK                         _______ _______ _______ _____ _____    ______ ____
ROOT
ATOM      1  C   UNL     1       0.799  -1.153   3.546  0.00  0.00    +0.303 C 
ATOM      2  O   UNL     1       1.977  -1.440   3.481  0.00  0.00    -0.265 OA
ATOM      3  N   UNL     1       0.136  -1.286   4.712  0.00  0.00    -0.278 N 
ATOM      4  H   UNL     1      -0.786  -0.994   4.782  0.00  0.00    +0.155 HD
ENDROOT
BRANCH   3   5
ATOM      5  C   UNL     1       0.779  -1.843   5.822  0.00  0.00    +0.034 A 
ATOM      6  C   UNL     1       0.066  -2.640   6.710  0.00  0.00    +0.025 A 
ATOM      7  C   UNL     1       0.701  -3.190   7.805  0.00  0.00    +0.025 A 
ATOM      8  C   UNL     1       2.051  -2.948   8.019  0.00  0.00    +0.037 A 
ATOM      9  C   UNL     1       2.764  -2.152   7.132  0.00  0.00    +0.025 A 
ATOM     10  C   UNL     1       2.131  -1.606   6.034  0.00  0.00    +0.025 A 
BRANCH   8  11
ATOM     11  N   UNL     1       2.695  -3.507   9.131  0.00  0.00    -0.251 N 
ATOM     12  C   UNL     1       3.668  -2.820   9.761  0.00  0.00    +0.404 C 
ATOM     13  O   UNL     1       4.046  -1.754   9.316  0.00  0.00    -0.226 OA
ATOM     14  H   UNL     1       2.439  -4.387   9.448  0.00  0.00    +0.158 HD
BRANCH  12  15
ATOM     15  O   UNL     1       4.223  -3.315  10.884  0.00  0.00    -0.453 OA
ATOM     16  C   UNL     1       5.249  -2.534  11.500  0.00  0.00    +0.282 C 
ENDBRANCH  12  15
ENDBRANCH   8  11
ENDBRANCH   3   5
BRANCH   1  18
ATOM     17  N   UNL     1       0.747  -0.521   1.167  0.00  0.00    -0.301 N 
ATOM     18  C   UNL     1       0.084  -0.654   2.334  0.00  0.00    +0.300 C 
ATOM     19  O   UNL     1      -1.093  -0.367   2.398  0.00  0.00    -0.265 OA
ATOM     20  H   UNL     1       1.688  -0.750   1.116  0.00  0.00    +0.150 HD
BRANCH  17  22
ATOM     21  C   UNL     1       0.043   1.498  -0.018  0.00  0.00    +0.033 C 
ATOM     22  C   UNL     1       0.045  -0.032  -0.022  0.00  0.00    +0.101 C 
BRANCH  22  23
ATOM     23  C   UNL     1       0.747  -0.530  -1.259  0.00  0.00    -0.026 A 
ATOM     24  C   UNL     1       2.128  -0.567  -1.303  0.00  0.00    +0.008 A 
ATOM     25  C   UNL     1       2.773  -1.024  -2.436  0.00  0.00    +0.040 A 
ATOM     26  C   UNL     1       2.035  -1.445  -3.530  0.00  0.00    +0.142 A 
ATOM     27  C   UNL     1       0.651  -1.408  -3.486  0.00  0.00    +0.076 A 
ATOM     28  C   UNL     1       0.008  -0.955  -2.348  0.00  0.00    +0.028 A 
ATOM     29 CL   UNL     1      -0.276  -1.936  -4.855  0.00  0.00    -0.081 Cl
ATOM     30  F   UNL     1       2.664  -1.892  -4.638  0.00  0.00    -0.204 F 
ENDBRANCH  22  23
ENDBRANCH  17  22
ENDBRANCH   1  18
TORSDOF 6
