REMARK  Name = ZINC50036500
REMARK  6 active torsions:
REMARK  status: ('A' for Active; 'I' for Inactive)
REMARK    1  A    between atoms: C_1  and  C_2
REMARK    2  A    between atoms: C_2  and  C_4
REMARK    3  A    between atoms: C_2  and  O_10
REMARK    4  A    between atoms: O_10  and  C_11
REMARK    5  A    between atoms: C_11  and  C_13
REMARK    6  A    between atoms: C_18  and  N_19
REMARK                            x       y       z     vdW  Elec       q    Type
REMARK                         _______ _______ _______ _____ _____    ______ ____
ROOT
ATOM      1  C   UNL     1       2.005  -0.630  -1.094  0.00  0.00    +0.342 C 
ATOM      2  O   UNL     1       2.579  -0.423  -0.043  0.00  0.00    -0.245 OA
ENDROOT
BRANCH   1   3
ATOM      3  C   UNL     1       2.759  -1.114  -2.261  0.00  0.00    +0.082 A 
ATOM      4  C   UNL     1       2.086  -1.472  -3.435  0.00  0.00    +0.058 A 
ATOM      5  C   UNL     1       2.797  -1.924  -4.525  0.00  0.00    +0.159 A 
ATOM      6  C   UNL     1       4.183  -2.027  -4.464  0.00  0.00    +0.160 A 
ATOM      7  C   UNL     1       4.860  -1.677  -3.311  0.00  0.00    +0.064 A 
ATOM      8  C   UNL     1       4.158  -1.214  -2.206  0.00  0.00    +0.042 A 
ATOM      9  F   UNL     1       4.871  -2.471  -5.538  0.00  0.00    -0.202 F 
ATOM     10  F   UNL     1       2.145  -2.269  -5.657  0.00  0.00    -0.202 F 
BRANCH   8  11
ATOM     11  N   UNL     1       4.838  -0.857  -1.048  0.00  0.00    -0.357 N 
ATOM     12  H   UNL     1       4.343  -0.615  -0.250  0.00  0.00    +0.142 HD
ATOM     13  H   UNL     1       5.808  -0.851  -1.037  0.00  0.00    +0.142 HD
ENDBRANCH   8  11
ENDBRANCH   1   3
BRANCH   1  14
ATOM     14  O   UNL     1       0.677  -0.417  -1.190  0.00  0.00    -0.449 OA
BRANCH  14  16
ATOM     15  C   UNL     1       0.019   1.583  -0.004  0.00  0.00    +0.062 C 
ATOM     16  C   UNL     1       0.009   0.053  -0.018  0.00  0.00    +0.259 C 
BRANCH  16  17
ATOM     17  C   UNL     1      -1.415  -0.440  -0.020  0.00  0.00    +0.261 C 
ATOM     18  O   UNL     1      -1.844  -1.049  -0.976  0.00  0.00    -0.271 OA
ATOM     19  N   UNL     1      -2.211  -0.205   1.042  0.00  0.00    -0.237 N 
ATOM     20  C   UNL     1      -3.485  -0.646   1.040  0.00  0.00    +0.303 C 
ATOM     21  O   UNL     1      -3.915  -1.256   0.082  0.00  0.00    -0.253 OA
ATOM     22  N   UNL     1      -4.281  -0.410   2.102  0.00  0.00    -0.313 N 
ATOM     23  H   UNL     1      -1.867   0.283   1.807  0.00  0.00    +0.159 HD
ATOM     24  H   UNL     1      -3.937   0.077   2.867  0.00  0.00    +0.146 HD
ATOM     25  H   UNL     1      -5.197  -0.727   2.101  0.00  0.00    +0.146 HD
ENDBRANCH  16  17
ENDBRANCH  14  16
ENDBRANCH   1  14
TORSDOF 5
