REMARK  Name = ZINC64683994
REMARK  10 active torsions:
REMARK  status: ('A' for Active; 'I' for Inactive)
REMARK    1  A    between atoms: C_1  and  C_2
REMARK    2  A    between atoms: C_7  and  N_8
REMARK    3  A    between atoms: C_9  and  C_35
REMARK    4  A    between atoms: C_13  and  S_15
REMARK    5  A    between atoms: S_15  and  C_16
REMARK    6  A    between atoms: C_16  and  C_17
REMARK    7  A    between atoms: N_19  and  CA_20
REMARK    8  A    between atoms: CA_20  and  CB_22
REMARK    9  A    between atoms: CA_20  and  C_32
REMARK   10  A    between atoms: CB_22  and  CG_23
REMARK                            x       y       z     vdW  Elec       q    Type
REMARK                         _______ _______ _______ _____ _____    ______ ____
ROOT
ATOM      1  C   UNK A   0       0.799   3.995  -0.218  0.00  0.00    +0.224 C 
ATOM      2  O   UNK A   0       1.859   3.930  -0.805  0.00  0.00    -0.275 OA
ATOM      3  N   TRP A   1      -0.115   4.918  -0.578  0.00  0.00    -0.301 N 
ATOM      4  H   TRP A   1      -0.962   4.971  -0.109  0.00  0.00    +0.150 HD
ENDROOT
BRANCH   1   5
ATOM      5  C   UNK A   0       0.504   3.044   0.913  0.00  0.00    +0.168 C 
BRANCH   5   6
ATOM      6  S   UNK A   0       1.918   1.933   1.153  0.00  0.00    -0.112 S 
BRANCH   6  11
ATOM      7  N   UNK A   0       0.212   0.024   2.010  0.00  0.00    -0.288 N 
ATOM      8  C   UNK A   0      -0.897   0.346   2.931  0.00  0.00    +0.155 C 
ATOM      9  N   UNK A   0      -0.221   0.822   4.166  0.00  0.00    -0.235 NA
ATOM     10  N   UNK A   0       0.923   1.585   3.643  0.00  0.00    -0.226 NA
ATOM     11  C   UNK A   0       1.374   0.807   2.466  0.00  0.00    +0.217 C 
ATOM     12  C   UNK A   0      -1.780   1.448   2.341  0.00  0.00    +0.046 C 
ATOM     13  H   UNK A   0      -0.833   1.414   4.708  0.00  0.00    +0.143 HD
ATOM     14  H   UNK A   0       0.646   2.518   3.380  0.00  0.00    +0.143 HD
BRANCH   7  21
ATOM     15  C   UNK A   0       0.745  -2.729   2.490  0.00  0.00    +0.045 C 
ATOM     16  C   UNK A   0       0.423  -2.207   1.113  0.00  0.00    -0.029 A 
ATOM     17  C   UNK A   0       0.375  -3.073   0.039  0.00  0.00    +0.005 A 
ATOM     18  C   UNK A   0       0.080  -2.595  -1.224  0.00  0.00    +0.000 A 
ATOM     19  C   UNK A   0      -0.168  -1.248  -1.417  0.00  0.00    +0.002 A 
ATOM     20  C   UNK A   0      -0.121  -0.376  -0.347  0.00  0.00    +0.023 A 
ATOM     21  C   UNK A   0       0.169  -0.854   0.925  0.00  0.00    +0.036 A 
ENDBRANCH   7  21
ENDBRANCH   6  11
ENDBRANCH   5   6
ENDBRANCH   1   5
BRANCH   3  22
ATOM     22  CA  TRP A   1       0.172   5.843  -1.678  0.00  0.00    +0.190 C 
BRANCH  22  23
ATOM     23  C   TRP A   1       0.946   7.024  -1.152  0.00  0.00    +0.376 C 
ATOM     24  O   TRP A   1       1.232   7.088   0.032  0.00  0.00    -0.244 OA
ATOM     25  OXT TRP A   1       1.286   7.916  -1.910  0.00  0.00    -0.244 OA
ENDBRANCH  22  23
BRANCH  22  26
ATOM     26  CB  TRP A   1      -1.143   6.327  -2.292  0.00  0.00    +0.067 C 
BRANCH  26  27
ATOM     27  CG  TRP A   1      -1.860   5.163  -2.926  0.00  0.00    -0.039 C 
ATOM     28  CD2 TRP A   1      -2.827   4.401  -2.367  0.00  0.00    -0.001 A 
ATOM     29  CE3 TRP A   1      -3.475   4.426  -1.050  0.00  0.00    +0.010 A 
ATOM     30  CZ3 TRP A   1      -4.433   3.513  -0.773  0.00  0.00    +0.001 A 
ATOM     31  CH2 TRP A   1      -4.821   2.544  -1.710  0.00  0.00    +0.002 A 
ATOM     32  CZ2 TRP A   1      -4.271   2.458  -2.940  0.00  0.00    +0.026 A 
ATOM     33  CE2 TRP A   1      -3.255   3.369  -3.338  0.00  0.00    +0.043 A 
ATOM     34  NE1 TRP A   1      -2.578   3.489  -4.455  0.00  0.00    -0.380 N 
ATOM     35  CD1 TRP A   1      -1.648   4.615  -4.320  0.00  0.00    +0.144 C 
ATOM     36  HE1 TRP A   1      -2.679   2.928  -5.240  0.00  0.00    +0.160 HD
ENDBRANCH  26  27
ENDBRANCH  22  26
ENDBRANCH   3  22
TORSDOF 8
