REMARK  Name = ZINC44887241
REMARK  7 active torsions:
REMARK  status: ('A' for Active; 'I' for Inactive)
REMARK    1  A    between atoms: C_1  and  C_2
REMARK    2  A    between atoms: C_4  and  N_20
REMARK    3  A    between atoms: C_6  and  S_8
REMARK    4  A    between atoms: S_8  and  N_11
REMARK    5  A    between atoms: N_11  and  C_12
REMARK    6  A    between atoms: C_12  and  C_14
REMARK    7  A    between atoms: C_12  and  C_15
REMARK                            x       y       z     vdW  Elec       q    Type
REMARK                         _______ _______ _______ _____ _____    ______ ____
ROOT
ATOM      1  S   UNL     1       0.056  -2.967   2.717  0.00  0.00    +0.059 S 
ATOM      2  O   UNL     1      -0.502  -2.101   3.696  0.00  0.00    -0.153 OA
ATOM      3  O   UNL     1      -0.479  -4.256   2.447  0.00  0.00    -0.153 OA
ENDROOT
BRANCH   1   9
ATOM      4  C   UNL     1      -0.018   1.503   0.010  0.00  0.00    +0.044 C 
ATOM      5  C   UNL     1       0.002  -0.004   0.002  0.00  0.00    -0.047 A 
ATOM      6  C   UNL     1       0.006  -0.687  -1.198  0.00  0.00    +0.026 A 
ATOM      7  C   UNL     1       0.025  -2.076  -1.205  0.00  0.00    +0.027 A 
ATOM      8  C   UNL     1       0.041  -2.773  -0.004  0.00  0.00    +0.051 A 
ATOM      9  C   UNL     1       0.037  -2.084   1.193  0.00  0.00    +0.107 A 
ATOM     10  C   UNL     1       0.023  -0.701   1.196  0.00  0.00    +0.032 A 
BRANCH   7  11
ATOM     11  N   UNL     1       0.028  -2.770  -2.417  0.00  0.00    -0.358 N 
ATOM     12  H   UNL     1       0.017  -2.282  -3.256  0.00  0.00    +0.142 HD
ATOM     13  H   UNL     1       0.042  -3.740  -2.421  0.00  0.00    +0.142 HD
ENDBRANCH   7  11
ENDBRANCH   1   9
BRANCH   1  14
ATOM     14  N   UNL     1       1.643  -3.191   3.134  0.00  0.00    -0.180 NA
ATOM     15  H   UNL     1       2.014  -4.087   3.168  0.00  0.00    +0.149 HD
BRANCH  14  16
ATOM     16  C   UNL     1       2.487  -2.037   3.450  0.00  0.00    +0.145 C 
ATOM     17  C   UNL     1       2.501  -1.815   4.964  0.00  0.00    +0.034 C 
BRANCH  16  18
ATOM     18  C   UNL     1       3.891  -2.293   2.967  0.00  0.00    +0.195 A 
ATOM     19  N   UNL     1       4.667  -1.446   2.308  0.00  0.00    -0.109 NA
ATOM     20  N   UNL     1       5.788  -2.041   2.078  0.00  0.00    -0.021 NA
ATOM     21  N   UNL     1       5.740  -3.230   2.570  0.00  0.00    -0.021 NA
ATOM     22  N   UNL     1       4.590  -3.408   3.126  0.00  0.00    -0.109 NA
ENDBRANCH  16  18
ENDBRANCH  14  16
ENDBRANCH   1  14
TORSDOF 5
