REMARK  Name = ZINC66106421
REMARK  3 active torsions:
REMARK  status: ('A' for Active; 'I' for Inactive)
REMARK    1  A    between atoms: C_6  and  N_7
REMARK    2  A    between atoms: C_11  and  C_14
REMARK    3  A    between atoms: C_16  and  C_19
REMARK                            x       y       z     vdW  Elec       q    Type
REMARK                         _______ _______ _______ _____ _____    ______ ____
ROOT
ATOM      1  N   UNL     1      -1.173  -0.708   0.009  0.00  0.00    -0.225 NA
ATOM      2  C   UNL     1      -1.369  -1.668  -0.866  0.00  0.00    +0.174 C 
ATOM      3  N   UNL     1      -0.384  -2.086  -1.750  0.00  0.00    -0.215 N 
ATOM      4  N   UNL     1      -0.738  -2.478  -3.038  0.00  0.00    -0.181 NA
ATOM      5  C   UNL     1      -1.906  -2.648  -3.519  0.00  0.00    +0.111 C 
ATOM      6  C   UNL     1      -3.210  -2.432  -2.803  0.00  0.00    +0.138 C 
ATOM      7  S   UNL     1      -2.914  -2.536  -1.002  0.00  0.00    -0.083 S 
ATOM      8  H   UNL     1       0.546  -2.104  -1.473  0.00  0.00    +0.176 HD
ENDROOT
BRANCH   1  14
ATOM      9  C   UNL     1       0.439   0.598  -1.192  0.00  0.00    +0.030 A 
ATOM     10  C   UNL     1       1.618   1.315  -1.202  0.00  0.00    +0.040 A 
ATOM     11  C   UNL     1       2.361   1.448  -0.041  0.00  0.00    +0.124 A 
ATOM     12  C   UNL     1       1.927   0.862   1.137  0.00  0.00    +0.040 A 
ATOM     13  C   UNL     1       0.750   0.143   1.160  0.00  0.00    +0.030 A 
ATOM     14  C   UNL     1      -0.004   0.005  -0.007  0.00  0.00    +0.067 A 
ATOM     15  F   UNL     1       3.515   2.150  -0.058  0.00  0.00    -0.205 F 
ENDBRANCH   1  14
BRANCH   5  16
ATOM     16  C   UNL     1      -1.986  -3.099  -4.913  0.00  0.00    +0.152 A 
ATOM     17  C   UNL     1      -0.927  -3.355  -5.727  0.00  0.00    +0.064 A 
ATOM     18  C   UNL     1      -1.466  -3.763  -6.977  0.00  0.00    +0.075 A 
ATOM     19  C   UNL     1      -2.825  -3.730  -6.844  0.00  0.00    +0.208 A 
ATOM     20  O   UNL     1      -3.121  -3.336  -5.600  0.00  0.00    -0.461 OA
BRANCH  18  21
ATOM     21  C   UNL     1      -0.707  -4.147  -8.181  0.00  0.00    +0.245 C 
ATOM     22  O   UNL     1       0.508  -4.133  -8.164  0.00  0.00    -0.270 OA
ATOM     23  N   UNL     1      -1.361  -4.514  -9.301  0.00  0.00    -0.325 N 
ATOM     24  H   UNL     1      -2.331  -4.526  -9.315  0.00  0.00    +0.145 HD
ATOM     25  H   UNL     1      -0.862  -4.767 -10.094  0.00  0.00    +0.145 HD
ENDBRANCH  18  21
ENDBRANCH   5  16
TORSDOF 3
