REMARK  Name = ZINC57125061
REMARK  6 active torsions:
REMARK  status: ('A' for Active; 'I' for Inactive)
REMARK    1  A    between atoms: C_1  and  C_2
REMARK    2  A    between atoms: C_5  and  C_8
REMARK    3  A    between atoms: C_9  and  S_10
REMARK    4  A    between atoms: S_10  and  N_13
REMARK    5  A    between atoms: N_13  and  N_14
REMARK    6  A    between atoms: N_17  and  C_18
REMARK                            x       y       z     vdW  Elec       q    Type
REMARK                         _______ _______ _______ _____ _____    ______ ____
ROOT
ATOM      1  N   UNL     1       1.542  -7.156   1.772  0.00  0.00    -0.107 NA
ATOM      2  H   UNL     1       2.161  -7.689   1.249  0.00  0.00    +0.172 HD
ENDROOT
BRANCH   1   3
ATOM      3  N   UNL     1       1.869  -6.786   3.083  0.00  0.00    -0.216 N 
ATOM      4  C   UNL     1       2.198  -7.730   3.987  0.00  0.00    +0.315 C 
ATOM      5  O   UNL     1       2.482  -7.409   5.125  0.00  0.00    -0.251 OA
ATOM      6  N   UNL     1       2.212  -9.030   3.629  0.00  0.00    -0.294 N 
ATOM      7  H   UNL     1       1.858  -5.851   3.340  0.00  0.00    +0.172 HD
ATOM      8  H   UNL     1       1.986  -9.285   2.721  0.00  0.00    +0.151 HD
BRANCH   6   9
ATOM      9  C   UNL     1       2.571 -10.056   4.612  0.00  0.00    +0.097 C 
ATOM     10  C   UNL     1       1.320 -10.453   5.414  0.00  0.00    +0.046 C 
ATOM     11  C   UNL     1       1.649 -11.744   6.217  0.00  0.00    +0.168 C 
ATOM     12  S   UNL     1       2.618 -12.683   4.962  0.00  0.00    -0.029 S 
ATOM     13  O   UNL     1       1.737 -13.529   4.236  0.00  0.00    -0.174 OA
ATOM     14  O   UNL     1       3.766 -13.240   5.588  0.00  0.00    -0.174 OA
ATOM     15  C   UNL     1       3.140 -11.293   3.878  0.00  0.00    +0.188 C 
ENDBRANCH   6   9
ENDBRANCH   1   3
BRANCH   1  16
ATOM     16  S   UNL     1       0.098  -6.682   1.113  0.00  0.00    +0.067 S 
ATOM     17  O   UNL     1      -0.917  -7.106   2.012  0.00  0.00    -0.152 OA
ATOM     18  O   UNL     1       0.123  -7.080  -0.251  0.00  0.00    -0.152 OA
BRANCH  16  20
ATOM     19  C   UNL     1       0.060  -4.251  -0.021  0.00  0.00    +0.028 C 
ATOM     20  C   UNL     1       0.074  -4.920   1.123  0.00  0.00    +0.155 C 
BRANCH  19  25
ATOM     21  C   UNL     1      -0.018   1.503   0.010  0.00  0.00    +0.044 C 
ATOM     22  C   UNL     1       0.002  -0.004   0.002  0.00  0.00    -0.050 A 
ATOM     23  C   UNL     1       0.006  -0.686  -1.202  0.00  0.00    +0.004 A 
ATOM     24  C   UNL     1       0.024  -2.066  -1.216  0.00  0.00    +0.008 A 
ATOM     25  C   UNL     1       0.040  -2.773  -0.013  0.00  0.00    -0.024 A 
ATOM     26  C   UNL     1       0.037  -2.079   1.197  0.00  0.00    +0.008 A 
ATOM     27  C   UNL     1       0.023  -0.699   1.198  0.00  0.00    +0.004 A 
ENDBRANCH  19  25
ENDBRANCH  16  20
ENDBRANCH   1  16
TORSDOF 5
