REMARK  Name = ZINC02331332
REMARK  10 active torsions:
REMARK  status: ('A' for Active; 'I' for Inactive)
REMARK    1  A    between atoms: C_1  and  C_2
REMARK    2  A    between atoms: C_2  and  C_3
REMARK    3  A    between atoms: C_2  and  C_4
REMARK    4  A    between atoms: C_2  and  C_5
REMARK    5  A    between atoms: C_8  and  C_11
REMARK    6  A    between atoms: N_17  and  N_18
REMARK    7  A    between atoms: C_19  and  C_20
REMARK    8  A    between atoms: C_23  and  N_26
REMARK    9  A    between atoms: N_26  and  C_27
REMARK   10  A    between atoms: N_26  and  C_28
REMARK                            x       y       z     vdW  Elec       q    Type
REMARK                         _______ _______ _______ _____ _____    ______ ____
ROOT
ATOM      1  C   UNL     1      -5.528   0.511   1.152  0.00  0.00    +0.184 A 
ATOM      2  N   UNL     1      -6.601  -0.121   0.765  0.00  0.00    -0.152 NA
ATOM      3  N   UNL     1      -6.622  -0.123  -0.636  0.00  0.00    -0.253 N 
ATOM      4  H   UNL     1      -7.447  -0.613  -1.173  0.00  0.00    +0.191 HD
ATOM      5  C   UNL     1      -5.524   0.538  -1.060  0.00  0.00    +0.197 A 
ATOM      6  S   UNL     1      -5.083   0.823  -2.689  0.00  0.00    -0.010 S 
ATOM      7  N   UNL     1      -4.837   0.930   0.031  0.00  0.00    -0.188 N 
ENDROOT
BRANCH   1  11
ATOM      8  C   UNL     1      -4.354   1.171   5.181  0.00  0.00    -0.042 A 
ATOM      9  C   UNL     1      -5.647   0.770   4.898  0.00  0.00    +0.005 A 
ATOM     10  C   UNL     1      -6.034   0.554   3.591  0.00  0.00    +0.012 A 
ATOM     11  C   UNL     1      -5.119   0.742   2.555  0.00  0.00    +0.021 A 
ATOM     12  C   UNL     1      -3.815   1.142   2.848  0.00  0.00    +0.012 A 
ATOM     13  C   UNL     1      -3.441   1.359   4.159  0.00  0.00    +0.005 A 
BRANCH   8  15
ATOM     14  C   UNL     1      -4.108   0.111   7.410  0.00  0.00    +0.015 C 
ATOM     15  C   UNL     1      -3.937   1.405   6.611  0.00  0.00    -0.013 C 
ATOM     16  C   UNL     1      -2.470   1.839   6.650  0.00  0.00    +0.015 C 
ATOM     17  C   UNL     1      -4.810   2.502   7.224  0.00  0.00    +0.015 C 
ENDBRANCH   8  15
ENDBRANCH   1  11
BRANCH   7  18
ATOM     18  N   UNL     1      -3.632   1.644   0.029  0.00  0.00    -0.171 NA
ATOM     19  C   UNL     1      -2.500   1.008   0.020  0.00  0.00    +0.141 C 
BRANCH  19  20
ATOM     20  C   UNL     1      -1.232   1.759   0.017  0.00  0.00    -0.005 A 
ATOM     21  C   UNL     1      -0.013   1.076   0.008  0.00  0.00    +0.011 A 
ATOM     22  C   UNL     1       1.170   1.782   0.001  0.00  0.00    +0.024 A 
ATOM     23  C   UNL     1       1.152   3.172   0.008  0.00  0.00    +0.029 A 
ATOM     24  C   UNL     1      -0.059   3.856   0.022  0.00  0.00    +0.024 A 
ATOM     25  C   UNL     1      -1.246   3.157   0.029  0.00  0.00    +0.011 A 
BRANCH  23  26
ATOM     26  N   UNL     1       2.352   3.883   0.000  0.00  0.00    -0.336 N 
ATOM     27  C   UNL     1       3.629   3.165  -0.016  0.00  0.00    +0.129 C 
ATOM     28  C   UNL     1       2.335   5.348   0.007  0.00  0.00    +0.129 C 
ENDBRANCH  23  26
ENDBRANCH  19  20
ENDBRANCH   7  18
TORSDOF 5
