REMARK  Name = ZINC14625587
REMARK  9 active torsions:
REMARK  status: ('A' for Active; 'I' for Inactive)
REMARK    1  A    between atoms: C_4  and  C_7
REMARK    2  A    between atoms: N_11  and  C_15
REMARK    3  A    between atoms: C_15  and  C_16
REMARK    4  A    between atoms: C_16  and  N_17
REMARK    5  A    between atoms: C_18  and  C_20
REMARK    6  A    between atoms: C_20  and  S_21
REMARK    7  A    between atoms: S_21  and  C_22
REMARK    8  A    between atoms: C_25  and  C_31
REMARK    9  A    between atoms: C_27  and  N_28
REMARK                            x       y       z     vdW  Elec       q    Type
REMARK                         _______ _______ _______ _____ _____    ______ ____
ROOT
ATOM      1  N   UNL     1      -4.006  -2.362   0.681  0.00  0.00    -0.313 N 
ATOM      2  C   UNL     1      -4.259  -1.078   1.003  0.00  0.00    +0.223 C 
ATOM      3  O   UNL     1      -5.394  -0.727   1.245  0.00  0.00    -0.275 OA
ATOM      4  H   UNL     1      -3.098  -2.644   0.487  0.00  0.00    +0.149 HD
ENDROOT
BRANCH   1   5
ATOM      5  C   UNL     1      -5.101  -3.333   0.624  0.00  0.00    +0.123 C 
BRANCH   5   6
ATOM      6  C   UNL     1      -4.546  -4.706   0.239  0.00  0.00    +0.136 C 
BRANCH   6  11
ATOM      7  C   UNL     1      -7.620  -8.136   2.082  0.00  0.00    +0.028 C 
ATOM      8  C   UNL     1      -7.077  -7.317   1.148  0.00  0.00    +0.080 C 
ATOM      9  C   UNL     1      -5.960  -6.356   1.271  0.00  0.00    +0.260 C 
ATOM     10  O   UNL     1      -5.367  -6.196   2.321  0.00  0.00    -0.269 OA
ATOM     11  N   UNL     1      -5.642  -5.677   0.182  0.00  0.00    -0.227 N 
ATOM     12  C   UNL     1      -6.299  -5.862  -0.981  0.00  0.00    +0.286 C 
ATOM     13  O   UNL     1      -6.109  -5.314  -2.050  0.00  0.00    -0.262 OA
ATOM     14  S   UNL     1      -7.513  -7.105  -0.573  0.00  0.00    -0.026 S 
BRANCH   7  18
ATOM     15  C   UNL     1     -11.140 -10.328   1.194  0.00  0.00    +0.000 A 
ATOM     16  C   UNL     1     -10.450 -10.580   2.368  0.00  0.00    +0.001 A 
ATOM     17  C   UNL     1      -9.304  -9.872   2.663  0.00  0.00    +0.008 A 
ATOM     18  C   UNL     1      -8.840  -8.896   1.774  0.00  0.00    -0.024 A 
ATOM     19  C   UNL     1      -9.547  -8.643   0.594  0.00  0.00    +0.008 A 
ATOM     20  C   UNL     1     -10.687  -9.364   0.310  0.00  0.00    +0.001 A 
ENDBRANCH   7  18
ENDBRANCH   6  11
ENDBRANCH   5   6
ENDBRANCH   1   5
BRANCH   2  21
ATOM     21  C   UNL     1      -3.132  -0.080   1.061  0.00  0.00    +0.170 C 
BRANCH  21  22
ATOM     22  S   UNL     1      -3.790   1.548   1.518  0.00  0.00    -0.114 S 
BRANCH  22  23
ATOM     23  C   UNL     1      -2.369   2.590   1.544  0.00  0.00    +0.039 A 
ATOM     24  C   UNL     1      -1.115   2.063   1.245  0.00  0.00    +0.018 A 
ATOM     25  C   UNL     1      -0.011   2.867   1.258  0.00  0.00    +0.014 A 
ATOM     26  C   UNL     1      -0.136   4.223   1.577  0.00  0.00    +0.039 A 
ATOM     27  C   UNL     1      -1.393   4.753   1.882  0.00  0.00    +0.047 A 
ATOM     28  C   UNL     1      -2.502   3.938   1.868  0.00  0.00    +0.140 A 
BRANCH  26  29
ATOM     29  C   UNL     1       1.056   5.091   1.591  0.00  0.00    +0.242 C 
ATOM     30  O   UNL     1       0.946   6.270   1.868  0.00  0.00    -0.270 OA
ATOM     31  N   UNL     1       2.267   4.578   1.296  0.00  0.00    -0.325 N 
ATOM     32  H   UNL     1       2.355   3.638   1.075  0.00  0.00    +0.145 HD
ATOM     33  H   UNL     1       3.051   5.149   1.305  0.00  0.00    +0.145 HD
ENDBRANCH  26  29
BRANCH  28  34
ATOM     34  N   UNL     1      -3.835   4.495   2.191  0.00  0.00    +0.058 N 
ATOM     35  O   UNL     1      -3.951   5.675   2.469  0.00  0.00    -0.126 OA
ATOM     36  O   UNL     1      -4.816   3.773   2.178  0.00  0.00    -0.126 OA
ENDBRANCH  28  34
ENDBRANCH  22  23
ENDBRANCH  21  22
ENDBRANCH   2  21
TORSDOF 9
