REMARK  Name = ZINC63074142
REMARK  6 active torsions:
REMARK  status: ('A' for Active; 'I' for Inactive)
REMARK    1  A    between atoms: C_1  and  C_2
REMARK    2  A    between atoms: C_2  and  C_19
REMARK    3  A    between atoms: N_6  and  S_7
REMARK    4  A    between atoms: S_7  and  C_10
REMARK    5  A    between atoms: C_15  and  N_16
REMARK    6  A    between atoms: N_16  and  N_17
REMARK                            x       y       z     vdW  Elec       q    Type
REMARK                         _______ _______ _______ _____ _____    ______ ____
ROOT
ATOM      1  C   UNL     1       2.315   1.264   2.392  0.00  0.00    +0.147 A 
ATOM      2  C   UNL     1       2.777   2.478   1.915  0.00  0.00    +0.048 A 
ATOM      3  C   UNL     1       3.109   3.467   2.832  0.00  0.00    +0.038 A 
ATOM      4  C   UNL     1       2.969   3.211   4.183  0.00  0.00    +0.128 A 
ATOM      5  N   UNL     1       2.526   2.044   4.608  0.00  0.00    -0.236 NA
ATOM      6  C   UNL     1       2.193   1.078   3.765  0.00  0.00    +0.159 A 
ATOM      7 BR   UNL     1       3.747   5.145   2.239  0.00  0.00    -0.049 Br
ENDROOT
BRANCH   1   8
ATOM      8  S   UNL     1       1.879  -0.026   1.274  0.00  0.00    +0.065 S 
ATOM      9  O   UNL     1       2.512  -1.206   1.749  0.00  0.00    -0.153 OA
ATOM     10  O   UNL     1       2.097   0.480  -0.036  0.00  0.00    -0.153 OA
BRANCH   8  16
ATOM     11  C   UNL     1      -0.728   1.966   1.146  0.00  0.00    +0.029 C 
ATOM     12  C   UNL     1      -0.800   0.495   0.731  0.00  0.00    +0.038 C 
ATOM     13  C   UNL     1      -2.158  -0.104   1.152  0.00  0.00    +0.025 C 
ATOM     14  C   UNL     1      -1.779  -1.535   1.615  0.00  0.00    +0.019 C 
ATOM     15  C   UNL     1      -0.394  -1.295   2.266  0.00  0.00    +0.110 C 
ATOM     16  N   UNL     1       0.248  -0.272   1.421  0.00  0.00    -0.171 NA
ATOM     17  C   UNL     1      -0.621   0.372  -0.784  0.00  0.00    +0.029 C 
ENDBRANCH   8  16
ENDBRANCH   1   8
BRANCH   6  18
ATOM     18  N   UNL     1       1.724  -0.135   4.256  0.00  0.00    -0.266 N 
ATOM     19  H   UNL     1       1.582  -0.881   3.653  0.00  0.00    +0.167 HD
BRANCH  18  20
ATOM     20  N   UNL     1       1.462  -0.276   5.590  0.00  0.00    -0.255 NA
ATOM     21  H   UNL     1       0.804   0.422   5.905  0.00  0.00    +0.140 HD
ATOM     22  H   UNL     1       1.129  -1.206   5.797  0.00  0.00    +0.140 HD
ENDBRANCH  18  20
ENDBRANCH   6  18
TORSDOF 4
