REMARK  Name = ZINC15670261
REMARK  5 active torsions:
REMARK  status: ('A' for Active; 'I' for Inactive)
REMARK    1  A    between atoms: C_1  and  C_2
REMARK    2  A    between atoms: C_9  and  C_13
REMARK    3  A    between atoms: C_16  and  O_19
REMARK    4  A    between atoms: O_19  and  C_20
REMARK    5  A    between atoms: C_25  and  C_27
REMARK                            x       y       z     vdW  Elec       q    Type
REMARK                         _______ _______ _______ _____ _____    ______ ____
ROOT
ATOM      1  C   UNL     1      -1.249   2.174   0.020  0.00  0.00    +0.068 C 
ATOM      2  C   UNL     1      -0.016   1.308   0.009  0.00  0.00    +0.066 A 
ATOM      3  C   UNL     1       1.296   1.762  -0.001  0.00  0.00    +0.023 A 
ATOM      4  C   UNL     1       2.122   0.669  -0.009  0.00  0.00    +0.136 A 
ATOM      5  N   UNL     1       1.340  -0.432  -0.013  0.00  0.00    -0.182 N 
ATOM      6  N   UNL     1       0.002  -0.004   0.002  0.00  0.00    -0.167 NA
ATOM      7  C   UNL     1       1.781  -1.754  -0.031  0.00  0.00    +0.273 A 
ATOM      8  N   UNL     1       0.895  -2.739  -0.033  0.00  0.00    -0.208 NA
ATOM      9  C   UNL     1       1.322  -4.001  -0.050  0.00  0.00    +0.095 A 
ATOM     10  C   UNL     1       2.701  -4.241  -0.064  0.00  0.00    +0.163 A 
ATOM     11  N   UNL     1       3.531  -3.215  -0.061  0.00  0.00    -0.152 NA
ATOM     12  N   UNL     1       3.082  -2.009  -0.050  0.00  0.00    -0.109 NA
ATOM     13  N   UNL     1       3.509   0.797  -0.026  0.00  0.00    -0.270 N 
ATOM     14  C   UNL     1       4.038   2.019   0.199  0.00  0.00    +0.219 C 
ATOM     15  O   UNL     1       5.226   2.187   0.019  0.00  0.00    -0.275 OA
ATOM     16  C   UNL     1       3.200   3.177   0.664  0.00  0.00    +0.109 C 
ATOM     17  C   UNL     1       1.826   3.174  -0.013  0.00  0.00    +0.063 C 
ATOM     18  H   UNL     1       4.079   0.030  -0.194  0.00  0.00    +0.156 HD
ENDROOT
BRANCH   9  19
ATOM     19  C   UNL     1       0.357  -5.126  -0.053  0.00  0.00    +0.002 A 
ATOM     20  C   UNL     1      -1.011  -4.873  -0.138  0.00  0.00    +0.013 A 
ATOM     21  C   UNL     1      -1.906  -5.922  -0.145  0.00  0.00    +0.046 A 
ATOM     22  C   UNL     1      -1.445  -7.229  -0.058  0.00  0.00    +0.120 A 
ATOM     23  C   UNL     1      -0.083  -7.485   0.032  0.00  0.00    +0.046 A 
ATOM     24  C   UNL     1       0.817  -6.440   0.035  0.00  0.00    +0.013 A 
BRANCH  22  25
ATOM     25  O   UNL     1      -2.329  -8.261  -0.060  0.00  0.00    -0.495 OA
ATOM     26  C   UNL     1      -3.715  -7.927  -0.154  0.00  0.00    +0.277 C 
ENDBRANCH  22  25
ENDBRANCH   9  19
BRANCH  17  27
ATOM     27  C   UNL     1       1.958   3.655  -1.435  0.00  0.00    -0.032 A 
ATOM     28  C   UNL     1       1.258   4.765  -1.867  0.00  0.00    +0.012 A 
ATOM     29  C   UNL     1       1.400   5.172  -3.153  0.00  0.00    +0.045 A 
ATOM     30  S   UNL     1       2.551   3.968  -3.796  0.00  0.00    -0.105 S 
ATOM     31  C   UNL     1       2.769   3.008  -2.307  0.00  0.00    +0.049 A 
ENDBRANCH  17  27
TORSDOF 3
