REMARK  Name = ZINC42598459
REMARK  6 active torsions:
REMARK  status: ('A' for Active; 'I' for Inactive)
REMARK    1  A    between atoms: C_1  and  C_2
REMARK    2  A    between atoms: C_5  and  C_7
REMARK    3  A    between atoms: C_7  and  C_9
REMARK    4  A    between atoms: C_7  and  N_10
REMARK    5  A    between atoms: N_10  and  S_11
REMARK    6  A    between atoms: S_11  and  C_14
REMARK                            x       y       z     vdW  Elec       q    Type
REMARK                         _______ _______ _______ _____ _____    ______ ____
ROOT
ATOM      1  S   UNL     1       2.415  -5.466   1.802  0.00  0.00    +0.064 S 
ATOM      2  O   UNL     1       3.513  -5.294   2.688  0.00  0.00    -0.153 OA
ATOM      3  O   UNL     1       1.091  -5.693   2.265  0.00  0.00    -0.153 OA
ENDROOT
BRANCH   1   4
ATOM      4  C   UNL     1       2.821  -6.824   0.754  0.00  0.00    +0.164 A 
ATOM      5  C   UNL     1       2.030  -7.887   0.486  0.00  0.00    +0.135 A 
ATOM      6  N   UNL     1       2.702  -8.701  -0.355  0.00  0.00    -0.281 N 
ATOM      7  H   UNL     1       2.377  -9.540  -0.717  0.00  0.00    +0.188 HD
ATOM      8  N   UNL     1       3.950  -8.121  -0.616  0.00  0.00    -0.157 NA
ATOM      9  C   UNL     1       4.022  -6.990   0.045  0.00  0.00    +0.164 A 
ATOM     10  N   UNL     1       5.107  -6.105   0.046  0.00  0.00    -0.340 N 
ATOM     11  H   UNL     1       5.043  -5.260   0.517  0.00  0.00    +0.144 HD
ATOM     12  H   UNL     1       5.923  -6.338  -0.424  0.00  0.00    +0.144 HD
ENDBRANCH   1   4
BRANCH   1  13
ATOM     13  N   UNL     1       2.358  -4.113   0.850  0.00  0.00    -0.182 NA
ATOM     14  H   UNL     1       2.988  -3.390   0.997  0.00  0.00    +0.149 HD
BRANCH  13  15
ATOM     15  C   UNL     1       1.356  -4.007  -0.213  0.00  0.00    +0.110 C 
ATOM     16  C   UNL     1       2.054  -3.724  -1.545  0.00  0.00    +0.031 C 
BRANCH  15  21
ATOM     17  C   UNL     1      -1.414   0.703   1.284  0.00  0.00    +0.051 C 
ATOM     18  C   UNL     1      -0.914  -0.640   0.816  0.00  0.00    -0.013 A 
ATOM     19  C   UNL     1      -1.615  -1.679   0.301  0.00  0.00    +0.011 A 
ATOM     20  C   UNL     1      -0.940  -2.829  -0.065  0.00  0.00    +0.013 A 
ATOM     21  C   UNL     1       0.404  -2.882   0.103  0.00  0.00    +0.008 A 
ATOM     22  S   UNL     1       0.755  -1.272   0.791  0.00  0.00    -0.097 S 
ENDBRANCH  15  21
ENDBRANCH  13  15
ENDBRANCH   1  13
TORSDOF 4
