REMARK  Name = ZINC24108007
REMARK  8 active torsions:
REMARK  status: ('A' for Active; 'I' for Inactive)
REMARK    1  A    between atoms: C_4  and  C_7
REMARK    2  A    between atoms: C_7  and  N_8
REMARK    3  A    between atoms: N_11  and  C_14
REMARK    4  A    between atoms: C_14  and  C_15
REMARK    5  A    between atoms: C_15  and  N_16
REMARK    6  A    between atoms: N_16  and  C_17
REMARK    7  A    between atoms: C_20  and  C_26
REMARK    8  A    between atoms: C_22  and  N_23
REMARK                            x       y       z     vdW  Elec       q    Type
REMARK                         _______ _______ _______ _____ _____    ______ ____
ROOT
ATOM      1  C   UNL     1       6.694  -3.874   4.766  0.00  0.00    +0.117 C 
ENDROOT
BRANCH   1   2
ATOM      2  N   UNL     1       7.240  -4.027   6.117  0.00  0.00    -0.341 N 
ATOM      3  H   UNL     1       6.817  -3.576   6.865  0.00  0.00    +0.146 HD
BRANCH   2   4
ATOM      4  C   UNL     1       8.364  -4.817   6.328  0.00  0.00    +0.058 A 
ATOM      5  C   UNL     1       9.043  -5.363   5.241  0.00  0.00    +0.026 A 
ATOM      6  C   UNL     1      10.157  -6.145   5.447  0.00  0.00    +0.015 A 
ATOM      7  C   UNL     1      10.606  -6.392   6.747  0.00  0.00    +0.039 A 
ATOM      8  C   UNL     1       9.922  -5.842   7.836  0.00  0.00    +0.047 A 
ATOM      9  C   UNL     1       8.812  -5.056   7.624  0.00  0.00    +0.148 A 
BRANCH   7  10
ATOM     10  C   UNL     1      11.799  -7.230   6.971  0.00  0.00    +0.242 C 
ATOM     11  O   UNL     1      12.188  -7.444   8.103  0.00  0.00    -0.270 OA
ATOM     12  N   UNL     1      12.457  -7.760   5.920  0.00  0.00    -0.325 N 
ATOM     13  H   UNL     1      12.146  -7.589   5.018  0.00  0.00    +0.145 HD
ATOM     14  H   UNL     1      13.241  -8.311   6.067  0.00  0.00    +0.145 HD
ENDBRANCH   7  10
BRANCH   9  15
ATOM     15  N   UNL     1       8.091  -4.470   8.775  0.00  0.00    +0.058 N 
ATOM     16  O   UNL     1       8.708  -4.070   9.735  0.00  0.00    -0.126 OA
ATOM     17  O   UNL     1       6.885  -4.390   8.756  0.00  0.00    -0.126 OA
ENDBRANCH   9  15
ENDBRANCH   2   4
ENDBRANCH   1   2
BRANCH   1  18
ATOM     18  C   UNL     1       5.468  -2.961   4.811  0.00  0.00    +0.103 C 
BRANCH  18  22
ATOM     19  N   UNL     1       3.986  -1.301   1.217  0.00  0.00    +0.384 N 
ATOM     20  C   UNL     1       3.052  -2.051   2.068  0.00  0.00    -0.063 C 
ATOM     21  C   UNL     1       3.614  -2.137   3.489  0.00  0.00    +0.066 C 
ATOM     22  N   UNL     1       4.921  -2.808   3.457  0.00  0.00    -0.304 NA
ATOM     23  C   UNL     1       5.859  -2.082   2.589  0.00  0.00    +0.066 C 
ATOM     24  C   UNL     1       5.279  -1.997   1.175  0.00  0.00    -0.063 C 
ATOM     25  H   UNL     1       4.114  -0.375   1.595  0.00  0.00    -0.081 HD
BRANCH  19  26
ATOM     26  C   UNL     1       3.438  -1.204  -0.142  0.00  0.00    -0.043 C 
BRANCH  26  30
ATOM     27  C   UNL     1      -0.147   1.118  -0.072  0.00  0.00    +0.000 A 
ATOM     28  C   UNL     1       1.073   1.737  -0.269  0.00  0.00    +0.000 A 
ATOM     29  C   UNL     1       2.234   0.986  -0.291  0.00  0.00    +0.002 A 
ATOM     30  C   UNL     1       2.173  -0.384  -0.117  0.00  0.00    -0.064 A 
ATOM     31  C   UNL     1       0.953  -1.003   0.081  0.00  0.00    +0.002 A 
ATOM     32  C   UNL     1      -0.207  -0.252   0.102  0.00  0.00    +0.000 A 
ENDBRANCH  26  30
ENDBRANCH  19  26
ENDBRANCH  18  22
ENDBRANCH   1  18
TORSDOF 8
