REMARK  Name = ZINC41154163
REMARK  4 active torsions:
REMARK  status: ('A' for Active; 'I' for Inactive)
REMARK    1  A    between atoms: C_1  and  C_2
REMARK    2  A    between atoms: C_7  and  C_9
REMARK    3  A    between atoms: C_7  and  N_22
REMARK    4  A    between atoms: C_11  and  C_14
REMARK                            x       y       z     vdW  Elec       q    Type
REMARK                         _______ _______ _______ _____ _____    ______ ____
ROOT
ATOM      1  C   UNL     1       0.784  -1.491   3.444  0.00  0.00    +0.161 A 
ATOM      2  N   UNL     1       0.434  -1.751   4.706  0.00  0.00    -0.193 NA
ATOM      3  C   UNL     1       1.305  -2.567   5.255  0.00  0.00    +0.260 A 
ATOM      4  O   UNL     1       2.246  -2.849   4.337  0.00  0.00    -0.333 OA
ATOM      5  N   UNL     1       1.879  -2.138   3.164  0.00  0.00    -0.062 NA
ENDROOT
BRANCH   3   6
ATOM      6  C   UNL     1       1.259  -3.085   6.638  0.00  0.00    +0.056 A 
ATOM      7  C   UNL     1       0.217  -2.715   7.490  0.00  0.00    +0.052 A 
ATOM      8  C   UNL     1       0.180  -3.203   8.782  0.00  0.00    +0.124 A 
ATOM      9  C   UNL     1       1.175  -4.057   9.232  0.00  0.00    +0.039 A 
ATOM     10  C   UNL     1       2.209  -4.426   8.393  0.00  0.00    +0.019 A 
ATOM     11  C   UNL     1       2.255  -3.950   7.097  0.00  0.00    +0.030 A 
ATOM     12 BR   UNL     1       3.667  -4.463   5.948  0.00  0.00    -0.050 Br
ATOM     13  F   UNL     1      -0.828  -2.847   9.609  0.00  0.00    -0.205 F 
ENDBRANCH   3   6
BRANCH   1  19
ATOM     14  C   UNL     1      -0.019   1.524   0.010  0.00  0.00    +0.007 C 
ATOM     15  C   UNL     1       0.002  -0.004   0.002  0.00  0.00    -0.015 C 
ATOM     16  C   UNL     1      -1.413  -0.559  -0.081  0.00  0.00    +0.003 C 
ATOM     17  C   UNL     1      -2.139  -0.397   1.253  0.00  0.00    -0.001 C 
ATOM     18  C   UNL     1      -1.376  -1.167   2.330  0.00  0.00    -0.005 C 
ATOM     19  C   UNL     1       0.029  -0.597   2.495  0.00  0.00    -0.006 C 
ATOM     20  C   UNL     1       0.785  -0.559   1.177  0.00  0.00    -0.002 C 
BRANCH  19  21
ATOM     21  N   UNL     1      -0.039   0.739   3.103  0.00  0.00    +0.387 N 
ATOM     22  H   UNL     1      -0.479   0.675   4.008  0.00  0.00    -0.089 HD
ATOM     23  H   UNL     1       0.894   1.109   3.208  0.00  0.00    -0.089 HD
ATOM     24  H   UNL     1      -0.578   1.352   2.509  0.00  0.00    -0.089 HD
ENDBRANCH  19  21
ENDBRANCH   1  19
TORSDOF 3
