REMARK  Name = ZINC48192581
REMARK  6 active torsions:
REMARK  status: ('A' for Active; 'I' for Inactive)
REMARK    1  A    between atoms: C_1  and  C_2
REMARK    2  A    between atoms: C_2  and  C_3
REMARK    3  A    between atoms: C_2  and  O_4
REMARK    4  A    between atoms: O_4  and  C_5
REMARK    5  A    between atoms: C_10  and  N_11
REMARK    6  A    between atoms: C_20  and  O_24
REMARK                            x       y       z     vdW  Elec       q    Type
REMARK                         _______ _______ _______ _____ _____    ______ ____
ROOT
ATOM      1  N   UNL     1       1.983  -1.175   3.519  0.00  0.00    -0.266 N 
ATOM      2  C   UNL     1       2.572  -1.629   4.644  0.00  0.00    +0.307 C 
ATOM      3  O   UNL     1       1.921  -1.749   5.665  0.00  0.00    -0.252 OA
ATOM      4  N   UNL     1       3.881  -1.948   4.638  0.00  0.00    -0.281 N 
ATOM      5  C   UNL     1       4.530  -2.541   5.819  0.00  0.00    +0.114 C 
ATOM      6  C   UNL     1       4.991  -3.948   5.445  0.00  0.00    +0.054 C 
ATOM      7  C   UNL     1       5.720  -3.942   4.127  0.00  0.00    -0.041 A 
ATOM      8  C   UNL     1       6.558  -5.016   3.849  0.00  0.00    +0.007 A 
ATOM      9  C   UNL     1       7.248  -5.079   2.658  0.00  0.00    +0.045 A 
ATOM     10  C   UNL     1       7.105  -4.062   1.724  0.00  0.00    +0.117 A 
ATOM     11  C   UNL     1       6.273  -2.991   2.001  0.00  0.00    +0.050 A 
ATOM     12  C   UNL     1       5.585  -2.928   3.204  0.00  0.00    -0.023 A 
ATOM     13  C   UNL     1       4.715  -1.726   3.452  0.00  0.00    +0.144 C 
ATOM     14  H   UNL     1       2.520  -0.985   2.734  0.00  0.00    +0.156 HD
ENDROOT
BRANCH   1  20
ATOM     15  C   UNL     1      -0.101  -1.132   2.288  0.00  0.00    +0.142 A 
ATOM     16  C   UNL     1      -1.473  -0.943   2.260  0.00  0.00    +0.047 A 
ATOM     17  C   UNL     1      -2.147  -0.599   3.417  0.00  0.00    +0.004 A 
ATOM     18  C   UNL     1      -1.456  -0.442   4.604  0.00  0.00    +0.002 A 
ATOM     19  C   UNL     1      -0.087  -0.629   4.640  0.00  0.00    +0.027 A 
ATOM     20  C   UNL     1       0.596  -0.980   3.484  0.00  0.00    +0.077 A 
BRANCH  15  21
ATOM     21  O   UNL     1       0.564  -1.470   1.150  0.00  0.00    -0.488 OA
BRANCH  21  23
ATOM     22  C   UNL     1      -0.470  -0.233  -0.650  0.00  0.00    +0.051 C 
ATOM     23  C   UNL     1      -0.216  -1.612  -0.039  0.00  0.00    +0.167 C 
ATOM     24  C   UNL     1       0.540  -2.484  -1.043  0.00  0.00    +0.051 C 
ENDBRANCH  21  23
ENDBRANCH  15  21
ENDBRANCH   1  20
BRANCH  10  25
ATOM     25  O   UNL     1       7.778  -4.118   0.545  0.00  0.00    -0.507 OA
ATOM     26  H   UNL     1       7.295  -4.566  -0.163  0.00  0.00    +0.292 HD
ENDBRANCH  10  25
TORSDOF 4
