REMARK  Name = ZINC31773387
REMARK  5 active torsions:
REMARK  status: ('A' for Active; 'I' for Inactive)
REMARK    1  A    between atoms: C_1  and  C_2
REMARK    2  A    between atoms: C_5  and  N_19
REMARK    3  A    between atoms: C_7  and  N_8
REMARK    4  A    between atoms: N_8  and  C_9
REMARK    5  A    between atoms: C_16  and  O_18
REMARK                            x       y       z     vdW  Elec       q    Type
REMARK                         _______ _______ _______ _____ _____    ______ ____
ROOT
ATOM      1  N   UNL     1       3.582   2.122  -0.021  0.00  0.00    -0.337 N 
ATOM      2  H   UNL     1       3.569   3.222  -0.015  0.00  0.00    +0.147 HD
ENDROOT
BRANCH   1   9
ATOM      3  C   UNL     1       1.148   3.594   0.010  0.00  0.00    +0.045 C 
ATOM      4  C   UNL     1       1.169   2.087   0.002  0.00  0.00    -0.029 A 
ATOM      5  C   UNL     1      -0.017   1.378   0.010  0.00  0.00    +0.007 A 
ATOM      6  C   UNL     1       0.002  -0.004   0.002  0.00  0.00    +0.033 A 
ATOM      7  C   UNL     1       1.207  -0.682  -0.013  0.00  0.00    +0.128 A 
ATOM      8  C   UNL     1       2.396   0.020  -0.021  0.00  0.00    +0.056 A 
ATOM      9  C   UNL     1       2.381   1.409  -0.013  0.00  0.00    +0.033 A 
BRANCH   7  10
ATOM     10  N   UNL     1       1.222  -2.162  -0.021  0.00  0.00    +0.056 N 
ATOM     11  O   UNL     1       0.174  -2.782  -0.015  0.00  0.00    -0.126 OA
ATOM     12  O   UNL     1       2.284  -2.760  -0.035  0.00  0.00    -0.126 OA
ENDBRANCH   7  10
ENDBRANCH   1   9
BRANCH   1  13
ATOM     13  C   UNL     1       4.860   1.405  -0.037  0.00  0.00    +0.121 C 
ATOM     14  C   UNL     1       5.224   1.014   1.413  0.00  0.00    +0.190 C 
ATOM     15  S   UNL     1       7.055   1.227   1.397  0.00  0.00    -0.027 S 
ATOM     16  O   UNL     1       7.660   0.073   0.832  0.00  0.00    -0.174 OA
ATOM     17  O   UNL     1       7.484   1.698   2.667  0.00  0.00    -0.174 OA
ATOM     18  C   UNL     1       7.119   2.611   0.178  0.00  0.00    +0.199 C 
ATOM     19  C   UNL     1       5.901   2.284  -0.715  0.00  0.00    +0.157 C 
BRANCH  19  20
ATOM     20  O   UNL     1       6.363   1.618  -1.891  0.00  0.00    -0.388 OA
ATOM     21  H   UNL     1       7.125   2.091  -2.528  0.00  0.00    +0.210 HD
ENDBRANCH  19  20
ENDBRANCH   1  13
TORSDOF 4
