REMARK  Name = ZINC13555009
REMARK  7 active torsions:
REMARK  status: ('A' for Active; 'I' for Inactive)
REMARK    1  A    between atoms: C_4  and  C_7
REMARK    2  A    between atoms: C_8  and  C_23
REMARK    3  A    between atoms: N_11  and  C_14
REMARK    4  A    between atoms: C_17  and  N_20
REMARK    5  A    between atoms: N_24  and  C_25
REMARK    6  A    between atoms: C_25  and  C_26
REMARK    7  A    between atoms: C_26  and  N_27
REMARK                            x       y       z     vdW  Elec       q    Type
REMARK                         _______ _______ _______ _____ _____    ______ ____
ROOT
ATOM      1  C   UNL     1       3.695  -0.707  -0.235  0.00  0.00    +0.077 A 
ATOM      2  C   UNL     1       3.865  -2.063   0.045  0.00  0.00    +0.084 A 
ATOM      3  C   UNL     1       5.309  -2.280   0.195  0.00  0.00    +0.281 A 
ATOM      4  O   UNL     1       5.861  -3.336   0.444  0.00  0.00    -0.265 OA
ATOM      5  N   UNL     1       5.909  -1.087   0.004  0.00  0.00    -0.219 N 
ATOM      6  N   UNL     1       4.931  -0.125  -0.264  0.00  0.00    -0.289 N 
ATOM      7  H   UNL     1       5.103   0.813  -0.441  0.00  0.00    +0.187 HD
ENDROOT
BRANCH   1  11
ATOM      8  C   UNL     1      -0.006   1.261  -0.899  0.00  0.00    +0.000 A 
ATOM      9  C   UNL     1       0.929   1.822  -0.048  0.00  0.00    +0.001 A 
ATOM     10  C   UNL     1       2.134   1.189   0.173  0.00  0.00    +0.010 A 
ATOM     11  C   UNL     1       2.409  -0.024  -0.465  0.00  0.00    +0.000 A 
ATOM     12  C   UNL     1       1.460  -0.585  -1.324  0.00  0.00    +0.010 A 
ATOM     13  C   UNL     1       0.260   0.060  -1.535  0.00  0.00    +0.001 A 
ENDBRANCH   1  11
BRANCH   5  14
ATOM     14  C   UNL     1       7.286  -0.852   0.060  0.00  0.00    +0.067 A 
ATOM     15  C   UNL     1       7.783   0.428  -0.149  0.00  0.00    +0.030 A 
ATOM     16  C   UNL     1       9.143   0.657  -0.093  0.00  0.00    +0.035 A 
ATOM     17  C   UNL     1      10.011  -0.387   0.171  0.00  0.00    +0.126 A 
ATOM     18  C   UNL     1       9.520  -1.663   0.379  0.00  0.00    +0.035 A 
ATOM     19  C   UNL     1       8.160  -1.897   0.330  0.00  0.00    +0.030 A 
BRANCH  17  20
ATOM     20  N   UNL     1      11.469  -0.138   0.230  0.00  0.00    +0.056 N 
ATOM     21  O   UNL     1      11.900   0.977   0.047  0.00  0.00    -0.126 OA
ATOM     22  O   UNL     1      12.229  -1.050   0.460  0.00  0.00    -0.126 OA
ENDBRANCH  17  20
ENDBRANCH   5  14
BRANCH   2  23
ATOM     23  C   UNL     1       2.810  -3.073   0.166  0.00  0.00    +0.120 C 
ATOM     24  N   UNL     1       3.123  -4.322   0.332  0.00  0.00    -0.289 NA
BRANCH  24  25
ATOM     25  C   UNL     1       2.067  -5.331   0.453  0.00  0.00    +0.157 C 
BRANCH  25  26
ATOM     26  C   UNL     1       2.136  -6.286  -0.740  0.00  0.00    +0.107 C 
BRANCH  26  27
ATOM     27  N   UNL     1       1.078  -7.298  -0.619  0.00  0.00    -0.304 NA
ATOM     28  C   UNL     1      -0.253  -6.687  -0.743  0.00  0.00    +0.065 C 
ATOM     29  C   UNL     1      -1.325  -7.762  -0.552  0.00  0.00    -0.067 C 
ATOM     30  N   UNL     1      -1.152  -8.811  -1.565  0.00  0.00    +0.381 N 
ATOM     31  C   UNL     1       0.171  -9.429  -1.413  0.00  0.00    -0.067 C 
ATOM     32  C   UNL     1       1.256  -8.368  -1.611  0.00  0.00    +0.065 C 
ATOM     33  H   UNL     1      -1.867  -9.513  -1.447  0.00  0.00    -0.086 HD
ATOM     34  H   UNL     1      -1.230  -8.405  -2.486  0.00  0.00    -0.086 HD
ENDBRANCH  26  27
ENDBRANCH  25  26
ENDBRANCH  24  25
ENDBRANCH   2  23
TORSDOF 7
