REMARK  Name = ZINC26295086
REMARK  5 active torsions:
REMARK  status: ('A' for Active; 'I' for Inactive)
REMARK    1  A    between atoms: C_1  and  N_2
REMARK    2  A    between atoms: N_2  and  C_3
REMARK    3  A    between atoms: C_3  and  C_4
REMARK    4  A    between atoms: N_12  and  C_13
REMARK    5  A    between atoms: C_18  and  C_21
REMARK                            x       y       z     vdW  Elec       q    Type
REMARK                         _______ _______ _______ _____ _____    ______ ____
ROOT
ATOM      1  C   UNL     1      -0.696   4.895  -3.415  0.00  0.00    +0.134 C 
ATOM      2  N   UNL     1       0.300   5.745  -2.758  0.00  0.00    -0.284 N 
ATOM      3  C   UNL     1       0.952   5.299  -1.666  0.00  0.00    +0.302 C 
ATOM      4  O   UNL     1       1.779   6.004  -1.121  0.00  0.00    -0.253 OA
ATOM      5  N   UNL     1       0.687   4.071  -1.179  0.00  0.00    -0.296 N 
ATOM      6  H   UNL     1      -0.060   3.432  -1.672  0.00  0.00    +0.151 HD
ENDROOT
BRANCH   5   7
ATOM      7  C   UNL     1       1.396   3.585   0.008  0.00  0.00    +0.075 C 
ATOM      8  C   UNL     1       0.680   4.079   1.267  0.00  0.00    +0.022 C 
ATOM      9  C   UNL     1      -0.756   3.549   1.278  0.00  0.00    +0.002 C 
ATOM     10  C   UNL     1      -0.735   2.019   1.269  0.00  0.00    +0.012 C 
ATOM     11  C   UNL     1      -0.019   1.526   0.010  0.00  0.00    +0.095 C 
ATOM     12  C   UNL     1       1.417   2.055  -0.000  0.00  0.00    +0.034 C 
BRANCH  11  13
ATOM     13  C   UNL     1       0.002  -0.004   0.002  0.00  0.00    +0.393 C 
ATOM     14  F   UNL     1       0.679  -0.468   1.135  0.00  0.00    -0.170 F 
ATOM     15  F   UNL     1      -1.310  -0.488   0.012  0.00  0.00    -0.170 F 
ATOM     16  F   UNL     1       0.657  -0.455  -1.149  0.00  0.00    -0.170 F 
ENDBRANCH  11  13
ENDBRANCH   5   7
BRANCH   2  17
ATOM     17  C   UNL     1       0.588   7.080  -3.288  0.00  0.00    +0.151 C 
BRANCH  17  18
ATOM     18  C   UNL     1       1.701   6.990  -4.300  0.00  0.00    +0.009 A 
ATOM     19  C   UNL     1       1.624   6.788  -5.637  0.00  0.00    +0.014 A 
ATOM     20  C   UNL     1       2.791   6.742  -6.377  0.00  0.00    +0.028 A 
ATOM     21  C   UNL     1       3.979   6.900  -5.741  0.00  0.00    +0.078 A 
ATOM     22  S   UNL     1       3.463   7.130  -4.047  0.00  0.00    -0.080 S 
ATOM     23 CL   UNL     1       5.584   6.890  -6.403  0.00  0.00    -0.076 Cl
ENDBRANCH  17  18
ENDBRANCH   2  17
TORSDOF 4
