REMARK  Name = ZINC05255346
REMARK  7 active torsions:
REMARK  status: ('A' for Active; 'I' for Inactive)
REMARK    1  A    between atoms: C_1  and  C_2
REMARK    2  A    between atoms: C_5  and  C_9
REMARK    3  A    between atoms: C_6  and  C_8
REMARK    4  A    between atoms: N_11  and  C_12
REMARK    5  A    between atoms: C_13  and  C_25
REMARK    6  A    between atoms: C_21  and  O_23
REMARK    7  A    between atoms: O_23  and  C_24
REMARK                            x       y       z     vdW  Elec       q    Type
REMARK                         _______ _______ _______ _____ _____    ______ ____
ROOT
ATOM      1  C   UNL     1       3.823  -0.705  -0.846  0.00  0.00    +0.085 A 
ATOM      2  C   UNL     1       4.108  -2.053  -1.016  0.00  0.00    +0.068 A 
ATOM      3  C   UNL     1       5.494  -2.423  -1.251  0.00  0.00    -0.020 A 
ATOM      4  C   UNL     1       6.365  -1.391  -1.281  0.00  0.00    +0.013 A 
ATOM      5  S   UNL     1       5.374   0.050  -1.007  0.00  0.00    -0.076 S 
ATOM      6  C   UNL     1       7.845  -1.470  -1.508  0.00  0.00    +0.153 C 
ATOM      7  N   UNL     1       8.217  -2.897  -1.456  0.00  0.00    -0.262 N 
ATOM      8  C   UNL     1       7.329  -3.855  -2.132  0.00  0.00    +0.116 C 
ATOM      9  C   UNL     1       5.963  -3.860  -1.445  0.00  0.00    +0.056 C 
ATOM     10  C   UNL     1       9.330  -3.307  -0.815  0.00  0.00    +0.403 C 
ATOM     11  O   UNL     1       9.615  -4.488  -0.787  0.00  0.00    -0.226 OA
ENDROOT
BRANCH   2  12
ATOM     12  C   UNL     1       3.050  -3.066  -0.961  0.00  0.00    +0.244 C 
ATOM     13  O   UNL     1       2.462  -3.387  -1.977  0.00  0.00    -0.270 OA
ATOM     14  N   UNL     1       2.729  -3.642   0.214  0.00  0.00    -0.325 N 
ATOM     15  H   UNL     1       3.198  -3.387   1.024  0.00  0.00    +0.145 HD
ATOM     16  H   UNL     1       2.029  -4.313   0.250  0.00  0.00    +0.145 HD
ENDBRANCH   2  12
BRANCH   1  19
ATOM     17  C   UNL     1       2.512   1.230  -0.472  0.00  0.00    +0.249 C 
ATOM     18  O   UNL     1       3.515   1.913  -0.552  0.00  0.00    -0.270 OA
ATOM     19  N   UNL     1       2.595  -0.108  -0.612  0.00  0.00    -0.275 N 
ATOM     20  H   UNL     1       1.795  -0.653  -0.547  0.00  0.00    +0.156 HD
BRANCH  17  25
ATOM     21  C   UNL     1      -2.588   3.710   0.504  0.00  0.00    +0.044 C 
ATOM     22  C   UNL     1      -1.252   3.060   0.249  0.00  0.00    -0.050 A 
ATOM     23  C   UNL     1      -1.186   1.706  -0.028  0.00  0.00    +0.004 A 
ATOM     24  C   UNL     1       0.033   1.104  -0.258  0.00  0.00    +0.013 A 
ATOM     25  C   UNL     1       1.202   1.867  -0.221  0.00  0.00    +0.040 A 
ATOM     26  C   UNL     1       1.129   3.233   0.053  0.00  0.00    -0.038 A 
ATOM     27  C   UNL     1      -0.098   3.821   0.287  0.00  0.00    +0.007 A 
ATOM     28  C   UNL     1       2.385   4.064   0.096  0.00  0.00    +0.044 C 
ENDBRANCH  17  25
ENDBRANCH   1  19
BRANCH  10  29
ATOM     29  O   UNL     1      10.125  -2.408  -0.206  0.00  0.00    -0.454 OA
ATOM     30  C   UNL     1      11.307  -2.920   0.465  0.00  0.00    +0.282 C 
ENDBRANCH  10  29
TORSDOF 4
