REMARK  Name = ZINC22056439
REMARK  13 active torsions:
REMARK  status: ('A' for Active; 'I' for Inactive)
REMARK    1  A    between atoms: C_1  and  N_2
REMARK    2  A    between atoms: N_2  and  C_3
REMARK    3  A    between atoms: N_2  and  C_4
REMARK    4  A    between atoms: C_4  and  C_5
REMARK    5  A    between atoms: C_5  and  C_7
REMARK    6  A    between atoms: C_5  and  C_31
REMARK    7  A    between atoms: C_10  and  O_13
REMARK    8  A    between atoms: O_13  and  C_14
REMARK    9  A    between atoms: C_16  and  O_30
REMARK   10  A    between atoms: C_18  and  O_29
REMARK   11  A    between atoms: C_20  and  O_28
REMARK   12  A    between atoms: C_22  and  C_25
REMARK   13  A    between atoms: C_31  and  O_37
REMARK                            x       y       z     vdW  Elec       q    Type
REMARK                         _______ _______ _______ _____ _____    ______ ____
ROOT
ATOM      1  C   UNL     1       1.805  -2.728  -0.045  0.00  0.00    -0.043 A 
ATOM      2  C   UNL     1       3.155  -2.446   0.064  0.00  0.00    +0.007 A 
ATOM      3  C   UNL     1       3.907  -3.039   1.059  0.00  0.00    +0.046 A 
ATOM      4  C   UNL     1       3.310  -3.927   1.942  0.00  0.00    +0.124 A 
ATOM      5  C   UNL     1       1.958  -4.212   1.827  0.00  0.00    +0.046 A 
ATOM      6  C   UNL     1       1.208  -3.612   0.834  0.00  0.00    +0.007 A 
ENDROOT
BRANCH   1   7
ATOM      7  C   UNL     1       0.985  -2.075  -1.128  0.00  0.00    +0.034 C 
BRANCH   7   8
ATOM      8  C   UNL     1       0.894  -0.571  -0.861  0.00  0.00    +0.071 C 
ATOM      9  C   UNL     1      -0.051   0.071  -1.880  0.00  0.00    +0.035 C 
ATOM     10  C   UNL     1      -0.142   1.575  -1.613  0.00  0.00    +0.003 C 
ATOM     11  C   UNL     1      -0.680   1.810  -0.200  0.00  0.00    +0.000 C 
ATOM     12  C   UNL     1       0.265   1.168   0.819  0.00  0.00    +0.003 C 
ATOM     13  C   UNL     1       0.356  -0.335   0.552  0.00  0.00    +0.035 C 
BRANCH   8  14
ATOM     14  O   UNL     1       2.192   0.014  -0.981  0.00  0.00    -0.388 OA
ATOM     15  H   UNL     1       2.325   1.095  -0.822  0.00  0.00    +0.210 HD
ENDBRANCH   8  14
ENDBRANCH   7   8
BRANCH   7  16
ATOM     16  C   UNL     1       1.651  -2.312  -2.485  0.00  0.00    -0.069 C 
BRANCH  16  18
ATOM     17  C   UNL     1       0.365  -4.246  -3.169  0.00  0.00    -0.097 C 
ATOM     18  N   UNL     1       1.689  -3.753  -2.766  0.00  0.00    +0.376 N 
ATOM     19  C   UNL     1       2.699  -4.064  -3.787  0.00  0.00    -0.097 C 
ATOM     20  H   UNL     1       1.975  -4.271  -1.839  0.00  0.00    -0.083 HD
ENDBRANCH  16  18
ENDBRANCH   7  16
ENDBRANCH   1   7
BRANCH   4  21
ATOM     21  O   UNL     1       4.050  -4.517   2.918  0.00  0.00    -0.461 OA
BRANCH  21  22
ATOM     22  C   UNL     1       5.436  -4.176   2.976  0.00  0.00    +0.340 C 
ATOM     23  C   UNL     1       6.072  -4.834   4.204  0.00  0.00    +0.214 C 
ATOM     24  C   UNL     1       7.570  -4.514   4.226  0.00  0.00    +0.180 C 
ATOM     25  C   UNL     1       8.203  -4.993   2.916  0.00  0.00    +0.186 C 
ATOM     26  C   UNL     1       7.485  -4.329   1.739  0.00  0.00    +0.266 C 
ATOM     27  O   UNL     1       6.092  -4.642   1.795  0.00  0.00    -0.322 OA
BRANCH  26  28
ATOM     28  C   UNL     1       8.063  -4.841   0.444  0.00  0.00    +0.387 C 
ATOM     29  O   UNL     1       7.378  -5.491  -0.308  0.00  0.00    -0.243 OA
ATOM     30  O   UNL     1       9.340  -4.573   0.128  0.00  0.00    -0.243 OA
ENDBRANCH  26  28
BRANCH  25  31
ATOM     31  O   UNL     1       9.586  -4.635   2.895  0.00  0.00    -0.386 OA
ATOM     32  H   UNL     1      10.210  -4.898   2.028  0.00  0.00    +0.210 HD
ENDBRANCH  25  31
BRANCH  24  33
ATOM     33  O   UNL     1       7.756  -3.104   4.361  0.00  0.00    -0.386 OA
ATOM     34  H   UNL     1       8.771  -2.684   4.396  0.00  0.00    +0.210 HD
ENDBRANCH  24  33
BRANCH  23  35
ATOM     35  O   UNL     1       5.886  -6.250   4.137  0.00  0.00    -0.383 OA
ATOM     36  H   UNL     1       6.278  -6.894   4.937  0.00  0.00    +0.210 HD
ENDBRANCH  23  35
ENDBRANCH  21  22
ENDBRANCH   4  21
TORSDOF 11
