REMARK  Name = ZINC62754050
REMARK  5 active torsions:
REMARK  status: ('A' for Active; 'I' for Inactive)
REMARK    1  A    between atoms: C_1  and  C_2
REMARK    2  A    between atoms: C_7  and  N_10
REMARK    3  A    between atoms: N_10  and  C_11
REMARK    4  A    between atoms: N_10  and  C_12
REMARK    5  A    between atoms: C_18  and  C_20
REMARK                            x       y       z     vdW  Elec       q    Type
REMARK                         _______ _______ _______ _____ _____    ______ ____
ROOT
ATOM      1  N   UNL     1      -0.475  -4.082   2.784  0.00  0.00    +0.382 N 
ATOM      2  C   UNL     1       0.003  -5.369   3.308  0.00  0.00    -0.095 C 
ATOM      3  H   UNL     1      -0.730  -4.188   1.814  0.00  0.00    -0.081 HD
ENDROOT
BRANCH   1   9
ATOM      4  C   UNL     1      -3.869  -0.514   3.260  0.00  0.00    +0.007 C 
ATOM      5  C   UNL     1      -3.369  -1.852   3.807  0.00  0.00    -0.016 C 
ATOM      6  C   UNL     1      -4.478  -2.900   3.685  0.00  0.00    +0.003 C 
ATOM      7  C   UNL     1      -3.979  -4.238   4.232  0.00  0.00    -0.001 C 
ATOM      8  C   UNL     1      -2.757  -4.692   3.431  0.00  0.00    -0.015 C 
ATOM      9  C   UNL     1      -1.648  -3.645   3.554  0.00  0.00    -0.068 C 
ATOM     10  C   UNL     1      -2.148  -2.307   3.006  0.00  0.00    -0.012 C 
ENDBRANCH   1   9
BRANCH   1  11
ATOM     11  C   UNL     1       0.591  -3.078   2.904  0.00  0.00    -0.055 C 
ATOM     12  C   UNL     1       1.920  -3.690   2.458  0.00  0.00    -0.014 C 
ATOM     13  C   UNL     1       3.030  -2.644   2.584  0.00  0.00    -0.002 C 
ATOM     14  C   UNL     1       3.141  -2.190   4.040  0.00  0.00    +0.001 C 
ATOM     15  C   UNL     1       1.811  -1.578   4.486  0.00  0.00    +0.013 C 
ATOM     16  C   UNL     1       0.701  -2.624   4.361  0.00  0.00    +0.089 C 
BRANCH  16  17
ATOM     17  C   UNL     1       1.027  -3.809   5.234  0.00  0.00    +0.357 C 
ATOM     18  O   UNL     1       0.558  -3.886   6.356  0.00  0.00    -0.246 OA
ATOM     19  O   UNL     1       1.759  -4.690   4.817  0.00  0.00    -0.246 OA
ENDBRANCH  16  17
ENDBRANCH   1  11
TORSDOF 3
