REMARK  Name = ZINC40389693
REMARK  9 active torsions:
REMARK  status: ('A' for Active; 'I' for Inactive)
REMARK    1  A    between atoms: C_1  and  C_2
REMARK    2  A    between atoms: C_2  and  N_3
REMARK    3  A    between atoms: C_9  and  C_11
REMARK    4  A    between atoms: C_11  and  N_12
REMARK    5  A    between atoms: C_18  and  C_27
REMARK    6  A    between atoms: N_23  and  C_24
REMARK    7  A    between atoms: C_24  and  C_25
REMARK    8  A    between atoms: C_30  and  C_34
REMARK    9  A    between atoms: C_32  and  C_33
REMARK                            x       y       z     vdW  Elec       q    Type
REMARK                         _______ _______ _______ _____ _____    ______ ____
ROOT
ATOM      1  N   UNL     1       5.061  -4.687  -4.643  0.00  0.00    -0.283 N 
ATOM      2  C   UNL     1       5.888  -4.839  -5.849  0.00  0.00    +0.160 C 
ATOM      3  C   UNL     1       7.073  -5.667  -5.407  0.00  0.00    +0.043 C 
ATOM      4  C   UNL     1       6.887  -5.926  -4.096  0.00  0.00    +0.058 C 
ATOM      5  C   UNL     1       5.689  -5.335  -3.645  0.00  0.00    +0.247 C 
ATOM      6  O   UNL     1       5.275  -5.404  -2.502  0.00  0.00    -0.270 OA
ATOM      7  C   UNL     1       7.940  -6.751  -3.385  0.00  0.00    +0.142 C 
ATOM      8  N   UNL     1       9.086  -7.206  -4.189  0.00  0.00    -0.288 N 
ATOM      9  C   UNL     1       9.132  -6.867  -5.492  0.00  0.00    +0.307 C 
ATOM     10  O   UNL     1      10.074  -7.238  -6.164  0.00  0.00    -0.252 OA
ATOM     11  N   UNL     1       8.172  -6.133  -6.071  0.00  0.00    -0.253 N 
ATOM     12  H   UNL     1       9.793  -7.738  -3.790  0.00  0.00    +0.151 HD
ENDROOT
BRANCH   7  13
ATOM     13  C   UNL     1       8.474  -5.934  -2.236  0.00  0.00    -0.020 A 
ATOM     14  C   UNL     1       8.275  -4.566  -2.211  0.00  0.00    +0.006 A 
ATOM     15  C   UNL     1       8.765  -3.816  -1.158  0.00  0.00    +0.004 A 
ATOM     16  C   UNL     1       9.453  -4.434  -0.130  0.00  0.00    -0.050 A 
ATOM     17  C   UNL     1       9.650  -5.802  -0.155  0.00  0.00    +0.007 A 
ATOM     18  C   UNL     1       9.157  -6.553  -1.206  0.00  0.00    -0.045 A 
ATOM     19  C   UNL     1       9.367  -8.044  -1.231  0.00  0.00    +0.044 C 
ATOM     20  C   UNL     1       9.987  -3.617   1.018  0.00  0.00    +0.044 C 
ENDBRANCH   7  13
BRANCH   1  21
ATOM     21  C   UNL     1       3.792  -3.961  -4.545  0.00  0.00    +0.204 C 
BRANCH  21  28
ATOM     22  N   UNL     1       1.001  -0.224  -2.794  0.00  0.00    -0.300 NA
ATOM     23  C   UNL     1       2.398   0.108  -2.487  0.00  0.00    +0.103 C 
ATOM     24  C   UNL     1       3.281  -0.253  -3.686  0.00  0.00    +0.123 C 
ATOM     25  N   UNL     1       3.039  -1.660  -4.038  0.00  0.00    -0.298 N 
ATOM     26  C   UNL     1       1.648  -2.101  -4.228  0.00  0.00    +0.123 C 
ATOM     27  C   UNL     1       0.830  -1.667  -3.007  0.00  0.00    +0.103 C 
ATOM     28  C   UNL     1       4.064  -2.523  -4.184  0.00  0.00    +0.233 C 
ATOM     29  O   UNL     1       5.204  -2.143  -4.024  0.00  0.00    -0.274 OA
BRANCH  22  31
ATOM     30  C   UNL     1       0.123   1.793  -1.718  0.00  0.00    +0.020 C 
ATOM     31  C   UNL     1       0.100   0.263  -1.741  0.00  0.00    +0.081 C 
ENDBRANCH  22  31
ENDBRANCH  21  28
ENDBRANCH   1  21
BRANCH  11  32
ATOM     32  C   UNL     1       8.307  -5.814  -7.494  0.00  0.00    +0.141 C 
BRANCH  32  33
ATOM     33  C   UNL     1       9.059  -4.517  -7.649  0.00  0.00    -0.015 C 
ATOM     34  C   UNL     1      10.137  -4.470  -8.392  0.00  0.00    +0.005 C 
ENDBRANCH  32  33
ENDBRANCH  11  32
TORSDOF 6
