REMARK  Name = ZINC14456276
REMARK  5 active torsions:
REMARK  status: ('A' for Active; 'I' for Inactive)
REMARK    1  A    between atoms: C_1  and  C_2
REMARK    2  A    between atoms: C_5  and  C_7
REMARK    3  A    between atoms: C_18  and  S_23
REMARK    4  A    between atoms: S_23  and  N_26
REMARK    5  A    between atoms: N_26  and  C_27
REMARK                            x       y       z     vdW  Elec       q    Type
REMARK                         _______ _______ _______ _____ _____    ______ ____
ROOT
ATOM      1  C   UNL     1       1.402   3.539   0.007  0.00  0.00    +0.111 C 
ATOM      2  C   UNL     1       1.741   3.991   1.415  0.00  0.00    +0.029 C 
ATOM      3  C   UNL     1       2.114   5.492   1.443  0.00  0.00    +0.033 C 
ATOM      4  C   UNL     1       3.049   5.587   2.635  0.00  0.00    -0.030 C 
ATOM      5  C   UNL     1       3.568   4.415   2.904  0.00  0.00    -0.023 C 
ATOM      6  C   UNL     1       3.054   3.368   1.925  0.00  0.00    +0.049 C 
ATOM      7  C   UNL     1       4.082   3.226   0.835  0.00  0.00    -0.018 A 
ATOM      8  C   UNL     1       5.364   2.834   1.195  0.00  0.00    +0.034 A 
ATOM      9  C   UNL     1       6.347   2.691   0.237  0.00  0.00    +0.106 A 
ATOM     10  C   UNL     1       6.065   2.936  -1.094  0.00  0.00    +0.030 A 
ATOM     11  C   UNL     1       4.793   3.325  -1.463  0.00  0.00    +0.025 A 
ATOM     12  C   UNL     1       3.803   3.468  -0.498  0.00  0.00    +0.031 A 
ATOM     13  N   UNL     1       2.517   3.856  -0.892  0.00  0.00    -0.336 N 
ATOM     14  H   UNL     1       2.368   4.318  -1.732  0.00  0.00    +0.147 HD
ENDROOT
BRANCH   1  19
ATOM     15  C   UNL     1       1.479  -2.126  -0.024  0.00  0.00    +0.051 C 
ATOM     16  C   UNL     1       1.196  -0.645  -0.013  0.00  0.00    -0.013 A 
ATOM     17  C   UNL     1       0.002  -0.004   0.002  0.00  0.00    +0.011 A 
ATOM     18  C   UNL     1      -0.017   1.378   0.010  0.00  0.00    +0.013 A 
ATOM     19  C   UNL     1       1.160   2.051   0.002  0.00  0.00    +0.010 A 
ATOM     20  S   UNL     1       2.348   0.719  -0.017  0.00  0.00    -0.097 S 
ENDBRANCH   1  19
BRANCH   9  21
ATOM     21  S   UNL     1       7.969   2.191   0.712  0.00  0.00    +0.059 S 
ATOM     22  O   UNL     1       7.835   1.496   1.944  0.00  0.00    -0.153 OA
ATOM     23  O   UNL     1       8.565   1.601  -0.435  0.00  0.00    -0.153 OA
BRANCH  21  24
ATOM     24  N   UNL     1       8.830   3.568   1.037  0.00  0.00    -0.187 NA
ATOM     25  H   UNL     1       9.590   3.807   0.484  0.00  0.00    +0.148 HD
BRANCH  24  26
ATOM     26  C   UNL     1       8.444   4.426   2.160  0.00  0.00    +0.077 C 
ATOM     27  C   UNL     1       7.536   5.550   1.655  0.00  0.00    +0.020 C 
ATOM     28  C   UNL     1       7.133   6.445   2.829  0.00  0.00    +0.002 C 
ATOM     29  C   UNL     1       8.387   7.049   3.464  0.00  0.00    +0.000 C 
ATOM     30  C   UNL     1       9.294   5.925   3.969  0.00  0.00    +0.002 C 
ATOM     31  C   UNL     1       9.698   5.029   2.796  0.00  0.00    +0.020 C 
ENDBRANCH  24  26
ENDBRANCH  21  24
ENDBRANCH   9  21
TORSDOF 4
