REMARK  Name = ZINC06294572
REMARK  9 active torsions:
REMARK  status: ('A' for Active; 'I' for Inactive)
REMARK    1  A    between atoms: C_1  and  C_2
REMARK    2  A    between atoms: C_2  and  O_3
REMARK    3  A    between atoms: O_3  and  C_4
REMARK    4  A    between atoms: C_8  and  C_10
REMARK    5  A    between atoms: C_13  and  C_24
REMARK    6  A    between atoms: C_19  and  N_23
REMARK    7  A    between atoms: C_20  and  C_21
REMARK    8  A    between atoms: C_24  and  C_25
REMARK    9  A    between atoms: C_24  and  C_26
REMARK                            x       y       z     vdW  Elec       q    Type
REMARK                         _______ _______ _______ _____ _____    ______ ____
ROOT
ATOM      1  C   UNL     1      -2.439   3.821   0.030  0.00  0.00    +0.101 C 
ATOM      2  C   UNL     1      -3.605   2.914   0.328  0.00  0.00    +0.050 A 
ATOM      3  C   UNL     1      -4.913   3.243   0.657  0.00  0.00    +0.073 A 
ATOM      4  N   UNL     1      -5.582   2.127   0.829  0.00  0.00    -0.175 NA
ATOM      5  N   UNL     1      -4.710   1.049   0.612  0.00  0.00    -0.246 N 
ATOM      6  H   UNL     1      -5.078   0.016   0.707  0.00  0.00    +0.192 HD
ATOM      7  C   UNL     1      -3.503   1.551   0.307  0.00  0.00    +0.222 A 
ATOM      8  O   UNL     1      -2.344   0.908   0.018  0.00  0.00    -0.423 OA
ATOM      9  C   UNL     1      -1.209   1.636   0.017  0.00  0.00    +0.200 C 
ATOM     10  C   UNL     1      -1.182   2.987   0.029  0.00  0.00    +0.098 C 
ENDROOT
BRANCH   1  15
ATOM     11  C   UNL     1      -2.871   6.435  -2.664  0.00  0.00    +0.121 A 
ATOM     12  C   UNL     1      -2.976   5.644  -3.800  0.00  0.00    +0.045 A 
ATOM     13  C   UNL     1      -2.906   4.269  -3.691  0.00  0.00    +0.004 A 
ATOM     14  C   UNL     1      -2.733   3.680  -2.451  0.00  0.00    +0.005 A 
ATOM     15  C   UNL     1      -2.628   4.466  -1.319  0.00  0.00    -0.031 A 
ATOM     16  C   UNL     1      -2.702   5.842  -1.422  0.00  0.00    +0.050 A 
BRANCH  11  17
ATOM     17  O   UNL     1      -2.940   7.788  -2.769  0.00  0.00    -0.492 OA
BRANCH  17  19
ATOM     18  C   UNL     1      -3.174   9.856  -3.997  0.00  0.00    +0.048 C 
ATOM     19  C   UNL     1      -3.121   8.330  -4.079  0.00  0.00    +0.225 C 
ENDBRANCH  17  19
ENDBRANCH  11  17
ENDBRANCH   1  15
BRANCH   9  20
ATOM     20  N   UNL     1      -0.011   0.966   0.007  0.00  0.00    -0.328 N 
ATOM     21  H   UNL     1       0.934   1.529   0.006  0.00  0.00    +0.145 HD
ATOM     22  H   UNL     1       0.004  -0.134   0.001  0.00  0.00    +0.145 HD
ENDBRANCH   9  20
BRANCH   3  23
ATOM     23  C   UNL     1      -5.468   4.637   0.792  0.00  0.00    +0.034 C 
ATOM     24  C   UNL     1      -6.608   4.832  -0.209  0.00  0.00    +0.014 C 
ATOM     25  C   UNL     1      -5.997   4.840   2.213  0.00  0.00    +0.014 C 
ENDBRANCH   3  23
BRANCH  10  26
ATOM     26  C   UNL     1       0.086   3.651   0.038  0.00  0.00    +0.101 C 
ATOM     27  N   UNL     1       1.093   4.178   0.044  0.00  0.00    -0.191 NA
ENDBRANCH  10  26
TORSDOF 6
