REMARK  Name = ZINC38994758
REMARK  7 active torsions:
REMARK  status: ('A' for Active; 'I' for Inactive)
REMARK    1  A    between atoms: C_1  and  C_2
REMARK    2  A    between atoms: C_2  and  C_4
REMARK    3  A    between atoms: C_4  and  S_5
REMARK    4  A    between atoms: S_5  and  C_6
REMARK    5  A    between atoms: C_10  and  C_14
REMARK    6  A    between atoms: N_12  and  N_13
REMARK    7  A    between atoms: C_17  and  C_20
REMARK                            x       y       z     vdW  Elec       q    Type
REMARK                         _______ _______ _______ _____ _____    ______ ____
ROOT
ATOM      1  C   UNL     1      -3.553  -1.675   1.512  0.00  0.00    +0.214 C 
ATOM      2  N   UNL     1      -3.265  -3.043   1.007  0.00  0.00    -0.228 NA
ATOM      3  N   UNL     1      -4.520  -3.475   0.385  0.00  0.00    -0.234 NA
ATOM      4  C   UNL     1      -5.263  -2.251   0.023  0.00  0.00    +0.185 C 
ATOM      5  N   UNL     1      -4.427  -1.104   0.453  0.00  0.00    -0.197 NA
ATOM      6  H   UNL     1      -3.004  -3.660   1.761  0.00  0.00    +0.143 HD
ATOM      7  H   UNL     1      -4.342  -4.044  -0.429  0.00  0.00    +0.143 HD
ENDROOT
BRANCH   4   8
ATOM      8  C   UNL     1      -5.488  -2.203  -1.489  0.00  0.00    +0.187 C 
ATOM      9  C   UNL     1      -6.373  -3.353  -1.937  0.00  0.00    +0.034 C 
ATOM     10  C   UNL     1      -5.590  -4.052  -2.781  0.00  0.00    +0.091 C 
ATOM     11  N   UNL     1      -4.367  -3.468  -2.888  0.00  0.00    -0.154 NA
ATOM     12  N   UNL     1      -4.228  -2.443  -2.211  0.00  0.00    -0.176 NA
BRANCH  10  13
ATOM     13  C   UNL     1      -6.003  -5.287  -3.492  0.00  0.00    +0.002 A 
ATOM     14  C   UNL     1      -7.287  -5.800  -3.314  0.00  0.00    +0.013 A 
ATOM     15  C   UNL     1      -7.667  -6.948  -3.978  0.00  0.00    +0.039 A 
ATOM     16  C   UNL     1      -6.775  -7.591  -4.821  0.00  0.00    +0.123 A 
ATOM     17  C   UNL     1      -5.497  -7.085  -5.001  0.00  0.00    +0.039 A 
ATOM     18  C   UNL     1      -5.111  -5.934  -4.345  0.00  0.00    +0.013 A 
ATOM     19  F   UNL     1      -7.151  -8.715  -5.469  0.00  0.00    -0.205 F 
ENDBRANCH  10  13
ENDBRANCH   4   8
BRANCH   5  20
ATOM     20  N   UNL     1      -5.247  -0.025   0.979  0.00  0.00    -0.264 NA
ATOM     21  H   UNL     1      -4.673   0.720   1.345  0.00  0.00    +0.137 HD
ATOM     22  H   UNL     1      -5.884   0.321   0.278  0.00  0.00    +0.137 HD
ENDBRANCH   5  20
BRANCH   1  23
ATOM     23  S   UNL     1      -2.023  -0.713   1.670  0.00  0.00    -0.120 S 
BRANCH  23  24
ATOM     24  C   UNL     1      -1.293  -0.775   0.010  0.00  0.00    +0.101 C 
BRANCH  24  26
ATOM     25  C   UNL     1      -0.018   1.503   0.010  0.00  0.00    +0.039 C 
ATOM     26  C   UNL     1       0.002  -0.004   0.002  0.00  0.00    -0.070 C 
ATOM     27  C   UNL     1       1.145  -0.644  -0.012  0.00  0.00    +0.008 C 
ENDBRANCH  24  26
ENDBRANCH  23  24
ENDBRANCH   1  23
TORSDOF 6
