REMARK  Name = ZINC39467191
REMARK  4 active torsions:
REMARK  status: ('A' for Active; 'I' for Inactive)
REMARK    1  A    between atoms: C_1  and  O_2
REMARK    2  A    between atoms: O_2  and  C_3
REMARK    3  A    between atoms: P_12  and  C_22
REMARK    4  A    between atoms: C_27  and  O_28
REMARK                            x       y       z     vdW  Elec       q    Type
REMARK                         _______ _______ _______ _____ _____    ______ ____
ROOT
ATOM      1  C   UNL     1      -1.200  -0.637   0.010  0.00  0.00    +0.134 C 
ATOM      2  C   UNL     1      -2.335   0.073   0.019  0.00  0.00    +0.024 C 
ATOM      3  C   UNL     1      -3.647  -0.662   0.014  0.00  0.00    +0.019 C 
ATOM      4  C   UNL     1      -4.776   0.209  -0.527  0.00  0.00    -0.002 C 
ATOM      5  C   UNL     1      -6.081  -0.600  -0.546  0.00  0.00    -0.020 C 
ATOM      6  C   UNL     1      -7.174   0.312  -1.117  0.00  0.00    +0.157 C 
ATOM      7  O   UNL     1      -8.439  -0.374  -1.074  0.00  0.00    -0.316 OA
ATOM      8  P   UNL     1      -8.505  -1.879  -1.688  0.00  0.00    +0.291 P 
ATOM      9  O   UNL     1      -8.628  -1.827  -3.162  0.00  0.00    -0.269 OA
ATOM     10  N   UNL     1      -7.077  -2.587  -1.258  0.00  0.00    -0.288 NA
ATOM     11  N   UNL     1      -5.940  -1.810  -1.356  0.00  0.00    +0.398 N 
ATOM     12  C   UNL     1      -4.838  -2.658  -0.870  0.00  0.00    -0.046 C 
ATOM     13  C   UNL     1      -3.522  -1.892  -0.894  0.00  0.00    +0.006 C 
ATOM     14  C   UNL     1      -2.363  -2.728  -0.427  0.00  0.00    -0.001 C 
ATOM     15  C   UNL     1      -1.262  -2.113   0.003  0.00  0.00    +0.079 C 
ATOM     16 CL   UNL     1       0.093  -3.046   0.558  0.00  0.00    -0.080 Cl
ATOM     17  H   UNL     1      -7.043  -3.510  -0.959  0.00  0.00    +0.111 HD
ATOM     18  H   UNL     1      -5.773  -1.554  -2.317  0.00  0.00    -0.055 HD
ENDROOT
BRANCH   8  19
ATOM     19  C   UNL     1      -9.902  -2.789  -0.973  0.00  0.00    +0.091 A 
ATOM     20  C   UNL     1      -9.730  -3.522   0.185  0.00  0.00    +0.018 A 
ATOM     21  C   UNL     1     -10.794  -4.216   0.730  0.00  0.00    +0.001 A 
ATOM     22  C   UNL     1     -12.034  -4.178   0.118  0.00  0.00    +0.004 A 
ATOM     23  C   UNL     1     -12.211  -3.446  -1.040  0.00  0.00    +0.046 A 
ATOM     24  C   UNL     1     -11.146  -2.744  -1.586  0.00  0.00    +0.131 A 
BRANCH  24  25
ATOM     25  O   UNL     1     -11.319  -2.019  -2.722  0.00  0.00    -0.506 OA
ATOM     26  H   UNL     1     -11.156  -2.517  -3.535  0.00  0.00    +0.292 HD
ENDBRANCH  24  25
ENDBRANCH   8  19
BRANCH   1  28
ATOM     27  C   UNL     1      -0.017   1.425   0.010  0.00  0.00    +0.277 C 
ATOM     28  O   UNL     1       0.002  -0.004   0.002  0.00  0.00    -0.494 OA
ENDBRANCH   1  28
TORSDOF 3
