REMARK  Name = ZINC16788381
REMARK  8 active torsions:
REMARK  status: ('A' for Active; 'I' for Inactive)
REMARK    1  A    between atoms: C_1  and  C_2
REMARK    2  A    between atoms: C_2  and  C_4
REMARK    3  A    between atoms: C_2  and  S_19
REMARK    4  A    between atoms: N_6  and  C_7
REMARK    5  A    between atoms: C_8  and  C_17
REMARK    6  A    between atoms: S_19  and  C_20
REMARK    7  A    between atoms: C_23  and  C_26
REMARK    8  A    between atoms: N_24  and  N_25
REMARK                            x       y       z     vdW  Elec       q    Type
REMARK                         _______ _______ _______ _____ _____    ______ ____
ROOT
ATOM      1  C   UNL     1      -3.313   3.985   1.345  0.00  0.00    +0.029 C 
ATOM      2  C   UNL     1      -3.627   3.260   0.034  0.00  0.00    +0.137 C 
ENDROOT
BRANCH   2   3
ATOM      3  C   UNL     1      -5.116   3.060  -0.085  0.00  0.00    +0.231 C 
ATOM      4  O   UNL     1      -5.618   2.017   0.276  0.00  0.00    -0.274 OA
ATOM      5  N   UNL     1      -5.889   4.041  -0.593  0.00  0.00    -0.278 N 
ATOM      6  H   UNL     1      -5.487   4.875  -0.881  0.00  0.00    +0.155 HD
BRANCH   5   7
ATOM      7  C   UNL     1      -7.260   3.856  -0.702  0.00  0.00    +0.090 A 
ATOM      8  C   UNL     1      -8.211   4.737  -1.193  0.00  0.00    +0.084 A 
ATOM      9  C   UNL     1      -9.599   4.298  -1.203  0.00  0.00    -0.018 A 
ATOM     10  C   UNL     1      -9.809   3.057  -0.713  0.00  0.00    -0.004 A 
ATOM     11  S   UNL     1      -8.198   2.467  -0.266  0.00  0.00    -0.077 S 
ATOM     12  C   UNL     1     -11.112   2.334  -0.576  0.00  0.00    +0.043 C 
ATOM     13  C   UNL     1     -11.881   2.425  -1.901  0.00  0.00    +0.005 C 
ATOM     14  C   UNL     1     -12.743   3.683  -1.874  0.00  0.00    +0.001 C 
ATOM     15  C   UNL     1     -12.044   4.782  -1.076  0.00  0.00    +0.005 C 
ATOM     16  C   UNL     1     -10.728   5.169  -1.741  0.00  0.00    +0.037 C 
BRANCH   8  17
ATOM     17  C   UNL     1      -7.840   6.033  -1.673  0.00  0.00    +0.102 C 
ATOM     18  N   UNL     1      -7.546   7.062  -2.055  0.00  0.00    -0.191 NA
ENDBRANCH   8  17
ENDBRANCH   5   7
ENDBRANCH   2   3
BRANCH   2  19
ATOM     19  S   UNL     1      -2.799   1.651   0.022  0.00  0.00    -0.072 S 
BRANCH  19  20
ATOM     20  C   UNL     1      -1.116   2.172   0.018  0.00  0.00    +0.209 A 
ATOM     21  N   UNL     1      -0.684   3.414   0.026  0.00  0.00    -0.121 NA
ATOM     22  N   UNL     1       0.600   3.434   0.014  0.00  0.00    -0.127 NA
ATOM     23  C   UNL     1       1.068   2.208   0.004  0.00  0.00    +0.182 A 
ATOM     24  N   UNL     1      -0.016   1.362   0.009  0.00  0.00    -0.224 N 
BRANCH  23  25
ATOM     25  C   UNL     1       2.492   1.811  -0.012  0.00  0.00    +0.021 A 
ATOM     26  C   UNL     1       2.857   0.499   0.296  0.00  0.00    +0.014 A 
ATOM     27  C   UNL     1       4.187   0.133   0.275  0.00  0.00    +0.039 A 
ATOM     28  C   UNL     1       5.160   1.067  -0.041  0.00  0.00    +0.123 A 
ATOM     29  C   UNL     1       4.804   2.372  -0.342  0.00  0.00    +0.039 A 
ATOM     30  C   UNL     1       3.477   2.748  -0.329  0.00  0.00    +0.014 A 
ATOM     31  F   UNL     1       6.462   0.705  -0.054  0.00  0.00    -0.205 F 
ENDBRANCH  23  25
BRANCH  24  32
ATOM     32  N   UNL     1       0.002  -0.004   0.002  0.00  0.00    -0.295 N 
ATOM     33  H   UNL     1       0.016  -0.371   0.942  0.00  0.00    +0.163 HD
ATOM     34  H   UNL     1      -0.779  -0.373  -0.519  0.00  0.00    +0.163 HD
ENDBRANCH  24  32
ENDBRANCH  19  20
ENDBRANCH   2  19
TORSDOF 7
