REMARK  Name = ZINC33535449
REMARK  8 active torsions:
REMARK  status: ('A' for Active; 'I' for Inactive)
REMARK    1  A    between atoms: C_1  and  S_2
REMARK    2  A    between atoms: S_2  and  C_3
REMARK    3  A    between atoms: C_3  and  C_4
REMARK    4  A    between atoms: C_4  and  C_5
REMARK    5  A    between atoms: C_5  and  C_7
REMARK    6  A    between atoms: C_5  and  N_22
REMARK    7  A    between atoms: C_9  and  C_12
REMARK    8  A    between atoms: N_14  and  C_15
REMARK                            x       y       z     vdW  Elec       q    Type
REMARK                         _______ _______ _______ _____ _____    ______ ____
ROOT
ATOM      1  C   UNL     1       0.002  -0.005   0.024  0.00  0.00    +0.182 A 
ATOM      2  N   UNL     1       1.235  -0.416   0.005  0.00  0.00    -0.210 NA
ATOM      3  C   UNL     1       2.052   0.671  -0.007  0.00  0.00    +0.164 A 
ATOM      4  C   UNL     1       1.253   1.773   0.005  0.00  0.00    +0.230 A 
ATOM      5  O   UNL     1      -0.016   1.336   0.025  0.00  0.00    -0.449 OA
ENDROOT
BRANCH   3   6
ATOM      6  C   UNL     1       3.526   0.659  -0.030  0.00  0.00    +0.270 C 
ATOM      7  O   UNL     1       4.143   1.707  -0.039  0.00  0.00    -0.268 OA
ATOM      8  N   UNL     1       4.190  -0.514  -0.041  0.00  0.00    -0.280 N 
ATOM      9  H   UNL     1       3.636  -1.460   0.044  0.00  0.00    +0.155 HD
BRANCH   8  10
ATOM     10  C   UNL     1       5.583  -0.528  -0.160  0.00  0.00    +0.034 A 
ATOM     11  C   UNL     1       6.212  -1.548  -0.863  0.00  0.00    +0.024 A 
ATOM     12  C   UNL     1       7.587  -1.555  -0.983  0.00  0.00    +0.016 A 
ATOM     13  C   UNL     1       8.340  -0.555  -0.395  0.00  0.00    +0.013 A 
ATOM     14  C   UNL     1       7.718   0.459   0.311  0.00  0.00    +0.016 A 
ATOM     15  C   UNL     1       6.342   0.475   0.430  0.00  0.00    +0.024 A 
ATOM     16  I   UNL     1      10.428  -0.576  -0.573  0.00  0.00    -0.044 I 
ENDBRANCH   8  10
ENDBRANCH   3   6
BRANCH   1  17
ATOM     17  C   UNL     1      -1.214  -0.894   0.042  0.00  0.00    +0.014 C 
BRANCH  17  18
ATOM     18  N   UNL     1      -2.172  -0.393   1.036  0.00  0.00    +0.386 N 
ATOM     19  H   UNL     1      -1.703  -0.394   2.031  0.00  0.00    -0.089 HD
ATOM     20  H   UNL     1      -3.060  -1.042   1.049  0.00  0.00    -0.089 HD
ATOM     21  H   UNL     1      -2.472   0.632   0.773  0.00  0.00    -0.089 HD
ENDBRANCH  17  18
BRANCH  17  22
ATOM     22  C   UNL     1      -1.867  -0.892  -1.342  0.00  0.00    +0.004 C 
BRANCH  22  23
ATOM     23  C   UNL     1      -3.027  -1.890  -1.359  0.00  0.00    +0.068 C 
BRANCH  23  25
ATOM     24  C   UNL     1      -5.139  -3.105  -2.855  0.00  0.00    +0.084 C 
ATOM     25  S   UNL     1      -3.802  -1.888  -2.999  0.00  0.00    -0.164 S 
ENDBRANCH  23  25
ENDBRANCH  22  23
ENDBRANCH  17  22
ENDBRANCH   1  17
TORSDOF 7
