REMARK  Name = ZINC40152817
REMARK  9 active torsions:
REMARK  status: ('A' for Active; 'I' for Inactive)
REMARK    1  A    between atoms: C_1  and  C_2
REMARK    2  A    between atoms: C_2  and  C_3
REMARK    3  A    between atoms: C_3  and  C_4
REMARK    4  A    between atoms: C_3  and  C_5
REMARK    5  A    between atoms: C_3  and  N_20
REMARK    6  A    between atoms: C_5  and  N_6
REMARK    7  A    between atoms: C_7  and  C_9
REMARK    8  A    between atoms: C_13  and  N_16
REMARK    9  A    between atoms: C_14  and  N_15
REMARK                            x       y       z     vdW  Elec       q    Type
REMARK                         _______ _______ _______ _____ _____    ______ ____
ROOT
ATOM      1  N   UNL     1       2.324   1.821  -1.651  0.00  0.00    -0.310 N 
ATOM      2  C   UNL     1       3.520   2.344  -1.313  0.00  0.00    +0.246 C 
ATOM      3  O   UNL     1       4.545   1.766  -1.622  0.00  0.00    -0.270 OA
ATOM      4  H   UNL     1       1.507   2.282  -1.404  0.00  0.00    +0.149 HD
ENDROOT
BRANCH   2   5
ATOM      5  C   UNL     1       3.586   3.614  -0.569  0.00  0.00    +0.062 A 
ATOM      6  C   UNL     1       2.413   4.307  -0.255  0.00  0.00    +0.053 A 
ATOM      7  C   UNL     1       2.482   5.495   0.442  0.00  0.00    +0.126 A 
ATOM      8  C   UNL     1       3.711   6.008   0.832  0.00  0.00    +0.073 A 
ATOM      9  C   UNL     1       4.877   5.335   0.528  0.00  0.00    +0.150 A 
ATOM     10  C   UNL     1       4.826   4.133  -0.167  0.00  0.00    +0.068 A 
ATOM     11  F   UNL     1       1.348   6.163   0.745  0.00  0.00    -0.205 F 
BRANCH  10  12
ATOM     12  N   UNL     1       5.999   3.451  -0.468  0.00  0.00    -0.356 N 
ATOM     13  H   UNL     1       6.808   3.945  -0.676  0.00  0.00    +0.142 HD
ATOM     14  H   UNL     1       6.009   2.481  -0.471  0.00  0.00    +0.142 HD
ENDBRANCH  10  12
BRANCH   9  15
ATOM     15  N   UNL     1       6.182   5.892   0.948  0.00  0.00    +0.058 N 
ATOM     16  O   UNL     1       6.236   6.982   1.467  0.00  0.00    -0.126 OA
ATOM     17  O   UNL     1       7.195   5.255   0.773  0.00  0.00    -0.126 OA
ENDBRANCH   9  15
ENDBRANCH   2   5
BRANCH   1  18
ATOM     18  C   UNL     1       2.259   0.559  -2.391  0.00  0.00    +0.126 C 
BRANCH  18  19
ATOM     19  C   UNL     1       0.798   0.128  -2.536  0.00  0.00    +0.034 C 
ATOM     20  C   UNL     1       0.719  -1.114  -3.426  0.00  0.00    +0.029 C 
BRANCH  19  21
ATOM     21  N   UNL     1       0.025   1.218  -3.146  0.00  0.00    -0.291 NA
ATOM     22  C   UNL     1      -1.402   0.873  -3.223  0.00  0.00    +0.113 C 
ATOM     23  C   UNL     1      -2.178   2.056  -3.808  0.00  0.00    +0.175 C 
ATOM     24  O   UNL     1      -1.632   2.392  -5.086  0.00  0.00    -0.377 OA
ATOM     25  C   UNL     1      -0.244   2.734  -5.048  0.00  0.00    +0.175 C 
ATOM     26  C   UNL     1       0.551   1.557  -4.476  0.00  0.00    +0.113 C 
ENDBRANCH  19  21
BRANCH  19  28
ATOM     27  C   UNL     1       1.085  -1.265  -0.482  0.00  0.00    +0.006 C 
ATOM     28  C   UNL     1       0.222  -0.196  -1.156  0.00  0.00    +0.020 C 
ENDBRANCH  19  28
ENDBRANCH  18  19
ENDBRANCH   1  18
TORSDOF 7
