REMARK  Name = ZINC07246453
REMARK  7 active torsions:
REMARK  status: ('A' for Active; 'I' for Inactive)
REMARK    1  A    between atoms: C_1  and  C_2
REMARK    2  A    between atoms: C_3  and  C_20
REMARK    3  A    between atoms: C_5  and  S_8
REMARK    4  A    between atoms: S_8  and  C_9
REMARK    5  A    between atoms: C_9  and  C_10
REMARK    6  A    between atoms: C_12  and  C_15
REMARK    7  A    between atoms: C_20  and  C_21
REMARK                            x       y       z     vdW  Elec       q    Type
REMARK                         _______ _______ _______ _____ _____    ______ ____
ROOT
ATOM      1  C   UNL     1      -4.324   2.827   1.770  0.00  0.00    +0.065 C 
ATOM      2  C   UNL     1      -3.718   1.513   2.190  0.00  0.00    +0.037 A 
ATOM      3  C   UNL     1      -2.939   0.715   1.441  0.00  0.00    +0.067 A 
ATOM      4  N   UNL     1      -2.608  -0.362   2.173  0.00  0.00    -0.226 NA
ATOM      5  C   UNL     1      -3.149  -0.260   3.364  0.00  0.00    +0.167 A 
ATOM      6  N   UNL     1      -3.858   0.901   3.416  0.00  0.00    -0.337 N 
ATOM      7  H   UNL     1      -4.380   1.245   4.196  0.00  0.00    +0.168 HD
ENDROOT
BRANCH   5   8
ATOM      8  S   UNL     1      -2.993  -1.431   4.671  0.00  0.00    -0.082 S 
BRANCH   8   9
ATOM      9  C   UNL     1      -1.935  -2.660   3.867  0.00  0.00    +0.136 C 
BRANCH   9  10
ATOM     10  C   UNL     1      -1.660  -3.790   4.826  0.00  0.00    +0.094 A 
ATOM     11  C   UNL     1      -0.587  -3.881   5.733  0.00  0.00    +0.080 A 
ATOM     12  C   UNL     1      -0.790  -5.083   6.364  0.00  0.00    +0.202 A 
ATOM     13  O   UNL     1      -1.903  -5.606   5.818  0.00  0.00    -0.351 OA
ATOM     14  N   UNL     1      -2.366  -4.876   4.973  0.00  0.00    -0.082 NA
BRANCH  12  15
ATOM     15  C   UNL     1       0.043  -5.680   7.417  0.00  0.00    +0.172 A 
ATOM     16  C   UNL     1      -0.178  -6.877   8.031  0.00  0.00    +0.053 A 
ATOM     17  C   UNL     1       0.860  -7.052   8.964  0.00  0.00    +0.042 A 
ATOM     18  C   UNL     1       1.652  -5.963   8.884  0.00  0.00    +0.196 A 
ATOM     19  O   UNL     1       1.156  -5.137   7.950  0.00  0.00    -0.460 OA
ENDBRANCH  12  15
ENDBRANCH   9  10
ENDBRANCH   8   9
ENDBRANCH   5   8
BRANCH   3  20
ATOM     20  C   UNL     1      -2.514   0.980   0.019  0.00  0.00    +0.092 C 
BRANCH  20  21
ATOM     21  C   UNL     1      -1.219   1.751   0.017  0.00  0.00    -0.042 A 
ATOM     22  C   UNL     1      -0.013   1.076   0.008  0.00  0.00    +0.004 A 
ATOM     23  C   UNL     1       1.175   1.783   0.000  0.00  0.00    +0.000 A 
ATOM     24  C   UNL     1       1.156   3.165   0.008  0.00  0.00    +0.000 A 
ATOM     25  C   UNL     1      -0.050   3.840   0.022  0.00  0.00    +0.000 A 
ATOM     26  C   UNL     1      -1.238   3.133   0.030  0.00  0.00    +0.004 A 
ENDBRANCH  20  21
ENDBRANCH   3  20
TORSDOF 6
