REMARK  Name = ZINC04840491
REMARK  3 active torsions:
REMARK  status: ('A' for Active; 'I' for Inactive)
REMARK    1  A    between atoms: C_3  and  N_12
REMARK    2  A    between atoms: C_4  and  C_8
REMARK    3  A    between atoms: C_16  and  C_18
REMARK                            x       y       z     vdW  Elec       q    Type
REMARK                         _______ _______ _______ _____ _____    ______ ____
ROOT
ATOM      1  N   UNL     1      -1.191   1.869   0.018  0.00  0.00    -0.269 N 
ATOM      2  C   UNL     1      -0.090   1.341   0.590  0.00  0.00    +0.310 C 
ATOM      3  O   UNL     1      -0.145   0.247   1.117  0.00  0.00    -0.252 OA
ATOM      4  N   UNL     1       1.072   2.023   0.572  0.00  0.00    -0.233 N 
ATOM      5  C   UNL     1       2.173   1.492   1.139  0.00  0.00    +0.325 C 
ATOM      6  O   UNL     1       2.119   0.402   1.665  0.00  0.00    -0.266 OA
ATOM      7  H   UNL     1      -1.169   2.774  -0.331  0.00  0.00    +0.156 HD
ATOM      8  H   UNL     1       1.116   2.896   0.151  0.00  0.00    +0.159 HD
ENDROOT
BRANCH   1  11
ATOM      9  C   UNL     1      -3.458  -1.020  -0.163  0.00  0.00    +0.022 A 
ATOM     10  C   UNL     1      -2.299  -0.275  -0.073  0.00  0.00    +0.025 A 
ATOM     11  C   UNL     1      -2.364   1.112  -0.073  0.00  0.00    +0.046 A 
ATOM     12  C   UNL     1      -3.597   1.746  -0.158  0.00  0.00    +0.077 A 
ATOM     13  C   UNL     1      -4.753   0.997  -0.253  0.00  0.00    +0.034 A 
ATOM     14  C   UNL     1      -4.685  -0.386  -0.253  0.00  0.00    +0.042 A 
ATOM     15 CL   UNL     1      -6.140  -1.325  -0.366  0.00  0.00    -0.084 Cl
BRANCH  12  16
ATOM     16  C   UNL     1      -3.672   3.251  -0.152  0.00  0.00    +0.419 C 
ATOM     17  F   UNL     1      -5.009   3.652  -0.246  0.00  0.00    -0.166 F 
ATOM     18  F   UNL     1      -3.121   3.741   1.037  0.00  0.00    -0.166 F 
ATOM     19  F   UNL     1      -2.956   3.758  -1.242  0.00  0.00    -0.166 F 
ENDBRANCH  12  16
ENDBRANCH   1  11
BRANCH   5  20
ATOM     20  C   UNL     1       3.473   2.255   1.119  0.00  0.00    +0.470 C 
ATOM     21  F   UNL     1       4.463   1.506   1.764  0.00  0.00    -0.162 F 
ATOM     22  F   UNL     1       3.855   2.491  -0.206  0.00  0.00    -0.162 F 
ATOM     23  F   UNL     1       3.307   3.477   1.781  0.00  0.00    -0.162 F 
ENDBRANCH   5  20
TORSDOF 3
