REMARK  Name = ZINC63062191
REMARK  5 active torsions:
REMARK  status: ('A' for Active; 'I' for Inactive)
REMARK    1  A    between atoms: C_1  and  C_2
REMARK    2  A    between atoms: C_7  and  O_8
REMARK    3  A    between atoms: O_8  and  C_9
REMARK    4  A    between atoms: C_12  and  C_15
REMARK    5  A    between atoms: C_15  and  O_16
REMARK                            x       y       z     vdW  Elec       q    Type
REMARK                         _______ _______ _______ _____ _____    ______ ____
ROOT
ATOM      1  O   UNL     1       0.025  -0.033   2.381  0.00  0.00    -0.436 OA
ENDROOT
BRANCH   1   8
ATOM      2  C   UNL     1       2.528  -0.941   1.437  0.00  0.00    +0.047 C 
ATOM      3  C   UNL     1       1.242  -1.176   0.686  0.00  0.00    -0.007 A 
ATOM      4  C   UNL     1       1.257  -1.864  -0.511  0.00  0.00    +0.022 A 
ATOM      5  C   UNL     1       0.078  -2.080  -1.201  0.00  0.00    +0.018 A 
ATOM      6  C   UNL     1      -1.119  -1.607  -0.693  0.00  0.00    +0.019 A 
ATOM      7  C   UNL     1      -1.139  -0.918   0.504  0.00  0.00    +0.048 A 
ATOM      8  C   UNL     1       0.043  -0.706   1.200  0.00  0.00    +0.133 A 
ATOM      9 BR   UNL     1       0.101  -3.023  -2.840  0.00  0.00    -0.050 Br
ENDBRANCH   1   8
BRANCH   1  10
ATOM     10  C   UNL     1      -0.059  -0.757   3.525  0.00  0.00    +0.240 A 
ATOM     11  C   UNL     1      -0.171  -0.112   4.754  0.00  0.00    +0.071 A 
ATOM     12  C   UNL     1      -0.253  -0.896   5.894  0.00  0.00    +0.033 A 
ATOM     13  C   UNL     1      -0.219  -2.275   5.741  0.00  0.00    +0.089 A 
ATOM     14  N   UNL     1      -0.111  -2.801   4.537  0.00  0.00    -0.148 NA
ATOM     15  N   UNL     1      -0.040  -2.079   3.478  0.00  0.00    -0.111 NA
BRANCH  13  16
ATOM     16  C   UNL     1      -0.305  -3.170   6.950  0.00  0.00    +0.213 C 
BRANCH  16  17
ATOM     17  O   UNL     1      -0.415  -2.370   8.129  0.00  0.00    -0.389 OA
ATOM     18  H   UNL     1      -0.474  -2.881   8.947  0.00  0.00    +0.210 HD
ENDBRANCH  16  17
ENDBRANCH  13  16
ENDBRANCH   1  10
TORSDOF 4
