REMARK  Name = ZINC52841892
REMARK  4 active torsions:
REMARK  status: ('A' for Active; 'I' for Inactive)
REMARK    1  A    between atoms: C_3  and  S_11
REMARK    2  A    between atoms: C_4  and  N_10
REMARK    3  A    between atoms: C_6  and  N_7
REMARK    4  A    between atoms: S_11  and  C_12
REMARK                            x       y       z     vdW  Elec       q    Type
REMARK                         _______ _______ _______ _____ _____    ______ ____
ROOT
ATOM      1  C   UNL     1      -0.008   1.361  -0.210  0.00  0.00    +0.034 A 
ATOM      2  C   UNL     1       1.178   2.072  -0.222  0.00  0.00    +0.019 A 
ATOM      3  C   UNL     1       2.381   1.417  -0.009  0.00  0.00    +0.029 A 
ATOM      4  C   UNL     1       2.391   0.040   0.218  0.00  0.00    +0.040 A 
ATOM      5  C   UNL     1       1.198  -0.665   0.227  0.00  0.00    +0.056 A 
ATOM      6  C   UNL     1       0.002  -0.003   0.013  0.00  0.00    +0.128 A 
ENDROOT
BRANCH   6   7
ATOM      7  N   UNL     1      -1.271  -0.758   0.025  0.00  0.00    +0.056 N 
ATOM      8  O   UNL     1      -2.317  -0.182  -0.162  0.00  0.00    -0.126 OA
ATOM      9  O   UNL     1      -1.265  -1.951   0.221  0.00  0.00    -0.126 OA
ENDBRANCH   6   7
BRANCH   4  10
ATOM     10  N   UNL     1       3.603  -0.628   0.433  0.00  0.00    -0.357 N 
ATOM     11  H   UNL     1       4.437  -0.133   0.426  0.00  0.00    +0.142 HD
ATOM     12  H   UNL     1       3.608  -1.585   0.591  0.00  0.00    +0.142 HD
ENDBRANCH   4  10
BRANCH   3  13
ATOM     13  S   UNL     1       3.894   2.321  -0.023  0.00  0.00    -0.120 S 
BRANCH  13  14
ATOM     14  C   UNL     1       3.369   4.052  -0.163  0.00  0.00    +0.051 C 
ATOM     15  C   UNL     1       2.703   4.490   1.143  0.00  0.00    +0.014 C 
ATOM     16  C   UNL     1       2.260   5.950   1.025  0.00  0.00    +0.001 C 
ATOM     17  C   UNL     1       3.481   6.832   0.755  0.00  0.00    +0.000 C 
ATOM     18  C   UNL     1       4.148   6.394  -0.551  0.00  0.00    +0.001 C 
ATOM     19  C   UNL     1       4.590   4.934  -0.433  0.00  0.00    +0.014 C 
ENDBRANCH  13  14
ENDBRANCH   3  13
TORSDOF 4
