REMARK  Name = ZINC66179986
REMARK  7 active torsions:
REMARK  status: ('A' for Active; 'I' for Inactive)
REMARK    1  A    between atoms: C_1  and  C_2
REMARK    2  A    between atoms: C_4  and  C_7
REMARK    3  A    between atoms: C_7  and  N_8
REMARK    4  A    between atoms: N_11  and  C_12
REMARK    5  A    between atoms: C_19  and  C_23
REMARK    6  A    between atoms: C_20  and  C_21
REMARK    7  A    between atoms: C_20  and  C_22
REMARK                            x       y       z     vdW  Elec       q    Type
REMARK                         _______ _______ _______ _____ _____    ______ ____
ROOT
ATOM      1  N   UNL     1       1.505  -3.551  -1.931  0.00  0.00    -0.291 N 
ATOM      2  C   UNL     1       1.742  -4.586  -2.760  0.00  0.00    +0.300 C 
ATOM      3  O   UNL     1       0.826  -5.299  -3.121  0.00  0.00    -0.253 OA
ATOM      4  N   UNL     1       2.996  -4.832  -3.190  0.00  0.00    -0.296 N 
ATOM      5  H   UNL     1       2.236  -2.982  -1.643  0.00  0.00    +0.151 HD
ATOM      6  H   UNL     1       3.728  -4.263  -2.902  0.00  0.00    +0.151 HD
ENDROOT
BRANCH   4   7
ATOM      7  C   UNL     1       3.254  -5.957  -4.092  0.00  0.00    +0.081 C 
ATOM      8  C   UNL     1       3.384  -7.272  -3.289  0.00  0.00    +0.027 C 
ATOM      9  C   UNL     1       4.832  -7.771  -3.582  0.00  0.00    -0.003 C 
ATOM     10  C   UNL     1       4.790  -8.241  -5.068  0.00  0.00    +0.005 C 
ATOM     11  C   UNL     1       4.653  -6.937  -5.887  0.00  0.00    +0.009 C 
ATOM     12  C   UNL     1       4.635  -5.784  -4.796  0.00  0.00    -0.008 C 
ATOM     13  C   UNL     1       5.590  -6.402  -3.711  0.00  0.00    -0.025 C 
ATOM     14  C   UNL     1       7.015  -6.583  -4.238  0.00  0.00    +0.012 C 
ATOM     15  C   UNL     1       5.565  -5.607  -2.404  0.00  0.00    +0.012 C 
ATOM     16  C   UNL     1       4.963  -4.372  -5.287  0.00  0.00    +0.013 C 
ENDBRANCH   4   7
BRANCH   1  17
ATOM     17  C   UNL     1       0.142  -3.284  -1.463  0.00  0.00    +0.204 C 
BRANCH  17  21
ATOM     18  C   UNL     1      -0.087   1.468   0.104  0.00  0.00    +0.091 C 
ATOM     19  C   UNL     1       0.052  -0.032   0.136  0.00  0.00    +0.169 A 
ATOM     20  N   UNL     1      -0.009  -0.842  -0.927  0.00  0.00    -0.195 NA
ATOM     21  C   UNL     1       0.149  -2.082  -0.555  0.00  0.00    +0.245 A 
ATOM     22  O   UNL     1       0.319  -2.103   0.773  0.00  0.00    -0.336 OA
ATOM     23  N   UNL     1       0.258  -0.751   1.202  0.00  0.00    -0.062 NA
ENDBRANCH  17  21
ENDBRANCH   1  17
TORSDOF 3
