REMARK  Name = ZINC33374390
REMARK  4 active torsions:
REMARK  status: ('A' for Active; 'I' for Inactive)
REMARK    1  A    between atoms: C_3  and  C_6
REMARK    2  A    between atoms: C_15  and  C_19
REMARK    3  A    between atoms: N_21  and  C_22
REMARK    4  A    between atoms: C_22  and  C_23
REMARK                            x       y       z     vdW  Elec       q    Type
REMARK                         _______ _______ _______ _____ _____    ______ ____
ROOT
ATOM      1  C   UNL     1      -3.800  -1.455  -0.360  0.00  0.00    +0.253 C 
ATOM      2  O   UNL     1      -4.536  -1.442   0.610  0.00  0.00    -0.269 OA
ATOM      3  N   UNL     1      -2.494  -1.154  -0.217  0.00  0.00    -0.297 N 
ATOM      4  C   UNL     1      -1.974  -0.673   1.070  0.00  0.00    +0.107 C 
ATOM      5  C   UNL     1      -0.804  -1.570   1.493  0.00  0.00    +0.017 C 
ATOM      6  C   UNL     1       0.216  -1.638   0.365  0.00  0.00    -0.016 C 
ATOM      7  C   UNL     1      -0.399  -2.195  -0.910  0.00  0.00    +0.017 C 
ATOM      8  C   UNL     1      -1.566  -1.302  -1.347  0.00  0.00    +0.107 C 
ATOM      9  N   UNL     1       0.833  -0.323   0.128  0.00  0.00    +0.397 N 
ATOM     10  C   UNL     1       2.296  -0.279   0.222  0.00  0.00    +0.028 C 
ATOM     11  C   UNL     1       2.815  -1.321   1.256  0.00  0.00    +0.061 C 
ATOM     12  S   UNL     1       1.632  -2.693   0.879  0.00  0.00    -0.174 S 
ATOM     13  H   UNL     1       0.579   0.023  -0.885  0.00  0.00    -0.083 HD
ATOM     14  H   UNL     1       0.454   0.399   0.867  0.00  0.00    -0.083 HD
ENDROOT
BRANCH   1  17
ATOM     15  C   UNL     1      -5.742  -2.697  -3.338  0.00  0.00    +0.008 A 
ATOM     16  C   UNL     1      -5.467  -2.526  -2.004  0.00  0.00    +0.021 A 
ATOM     17  C   UNL     1      -4.334  -1.796  -1.681  0.00  0.00    +0.074 A 
ATOM     18  S   UNL     1      -3.691  -1.387  -3.294  0.00  0.00    -0.092 S 
ATOM     19  C   UNL     1      -4.902  -2.162  -4.262  0.00  0.00    +0.046 A 
ENDBRANCH   1  17
BRANCH  10  20
ATOM     20  C   UNL     1       2.724   1.101   0.651  0.00  0.00    +0.200 C 
ATOM     21  O   UNL     1       1.891   1.958   0.857  0.00  0.00    -0.278 OA
ATOM     22  N   UNL     1       4.033   1.382   0.807  0.00  0.00    -0.313 N 
ATOM     23  H   UNL     1       4.788   0.605   0.621  0.00  0.00    +0.149 HD
BRANCH  22  24
ATOM     24  C   UNL     1       4.449   2.724   1.225  0.00  0.00    +0.139 C 
BRANCH  24  25
ATOM     25  C   UNL     1       5.952   2.775   1.324  0.00  0.00    -0.027 A 
ATOM     26  C   UNL     1       6.704   3.136   0.221  0.00  0.00    +0.009 A 
ATOM     27  C   UNL     1       8.083   3.185   0.307  0.00  0.00    +0.050 A 
ATOM     28  C   UNL     1       8.714   2.872   1.500  0.00  0.00    +0.166 A 
ATOM     29  C   UNL     1       7.957   2.508   2.611  0.00  0.00    +0.167 A 
ATOM     30  C   UNL     1       6.575   2.467   2.519  0.00  0.00    +0.054 A 
ATOM     31  O   UNL     1       8.803   2.251   3.651  0.00  0.00    -0.453 OA
ATOM     32  C   UNL     1      10.100   2.064   3.054  0.00  0.00    +0.466 C 
ATOM     33  O   UNL     1      10.035   2.842   1.844  0.00  0.00    -0.453 OA
ENDBRANCH  24  25
ENDBRANCH  22  24
ENDBRANCH  10  20
TORSDOF 4
