REMARK  Name = ZINC64390800
REMARK  6 active torsions:
REMARK  status: ('A' for Active; 'I' for Inactive)
REMARK    1  A    between atoms: C_1  and  C_2
REMARK    2  A    between atoms: C_3  and  C_14
REMARK    3  A    between atoms: C_5  and  C_7
REMARK    4  A    between atoms: C_14  and  S_15
REMARK    5  A    between atoms: S_15  and  C_16
REMARK    6  A    between atoms: C_26  and  C_29
REMARK                            x       y       z     vdW  Elec       q    Type
REMARK                         _______ _______ _______ _____ _____    ______ ____
ROOT
ATOM      1  C   UNL     1      -4.800   0.432  -1.614  0.00  0.00    +0.269 C 
ATOM      2  N   UNL     1      -5.632  -0.471  -0.801  0.00  0.00    -0.163 NA
ATOM      3  N   UNL     1      -5.831  -0.311   0.405  0.00  0.00    -0.081 NA
ATOM      4  C   UNL     1      -5.283   0.695   1.131  0.00  0.00    +0.272 C 
ATOM      5  O   UNL     1      -5.578   0.878   2.288  0.00  0.00    -0.270 OA
ATOM      6  C   UNL     1      -4.290   1.568   0.423  0.00  0.00    +0.167 C 
ATOM      7  N   UNL     1      -4.817   1.732  -0.968  0.00  0.00    -0.196 NA
ATOM      8  N   UNL     1      -4.024   2.815  -1.505  0.00  0.00    -0.240 NA
ATOM      9  C   UNL     1      -3.999   3.825  -0.406  0.00  0.00    +0.137 C 
ATOM     10  C   UNL     1      -4.213   3.014   0.917  0.00  0.00    +0.058 C 
ATOM     11  H   UNL     1      -4.450   3.196  -2.337  0.00  0.00    +0.142 HD
ENDROOT
BRANCH   9  12
ATOM     12  C   UNL     1      -2.663   4.522  -0.370  0.00  0.00    +0.123 A 
ATOM     13  C   UNL     1      -2.463   5.827  -0.113  0.00  0.00    +0.046 A 
ATOM     14  C   UNL     1      -1.069   6.050  -0.180  0.00  0.00    +0.041 A 
ATOM     15  C   UNL     1      -0.500   4.867  -0.475  0.00  0.00    +0.195 A 
ATOM     16  O   UNL     1      -1.470   3.944  -0.583  0.00  0.00    -0.466 OA
ENDBRANCH   9  12
BRANCH   1  17
ATOM     17  S   UNL     1      -3.101  -0.196  -1.694  0.00  0.00    -0.110 S 
BRANCH  17  18
ATOM     18  C   UNL     1      -3.189  -1.547  -2.902  0.00  0.00    +0.131 C 
BRANCH  18  21
ATOM     19  C   UNL     1      -1.959  -3.912  -1.269  0.00  0.00    +0.088 C 
ATOM     20  C   UNL     1      -1.289  -3.159  -2.389  0.00  0.00    +0.127 A 
ATOM     21  C   UNL     1      -1.817  -2.141  -3.092  0.00  0.00    +0.093 A 
ATOM     22  N   UNL     1      -0.904  -1.748  -3.994  0.00  0.00    -0.213 NA
ATOM     23  C   UNL     1       0.166  -2.497  -3.862  0.00  0.00    +0.228 A 
ATOM     24  O   UNL     1      -0.048  -3.376  -2.868  0.00  0.00    -0.440 OA
BRANCH  23  25
ATOM     25  C   UNL     1       1.400  -2.388  -4.668  0.00  0.00    +0.037 A 
ATOM     26  C   UNL     1       1.501  -1.420  -5.669  0.00  0.00    +0.014 A 
ATOM     27  C   UNL     1       2.655  -1.324  -6.417  0.00  0.00    +0.021 A 
ATOM     28  C   UNL     1       3.713  -2.185  -6.177  0.00  0.00    +0.041 A 
ATOM     29  C   UNL     1       3.619  -3.147  -5.186  0.00  0.00    +0.021 A 
ATOM     30  C   UNL     1       2.472  -3.249  -4.426  0.00  0.00    +0.014 A 
ATOM     31 CL   UNL     1       5.162  -2.058  -7.124  0.00  0.00    -0.084 Cl
ENDBRANCH  23  25
ENDBRANCH  18  21
ENDBRANCH  17  18
ENDBRANCH   1  17
TORSDOF 5
