REMARK  Name = ZINC08123714
REMARK  10 active torsions:
REMARK  status: ('A' for Active; 'I' for Inactive)
REMARK    1  A    between atoms: C_1  and  C_2
REMARK    2  A    between atoms: C_5  and  N_12
REMARK    3  A    between atoms: C_7  and  S_8
REMARK    4  A    between atoms: S_8  and  N_11
REMARK    5  A    between atoms: C_13  and  C_15
REMARK    6  A    between atoms: C_15  and  C_17
REMARK    7  A    between atoms: C_15  and  N_20
REMARK    8  A    between atoms: C_17  and  C_18
REMARK    9  A    between atoms: C_17  and  C_19
REMARK   10  A    between atoms: C_21  and  C_23
REMARK                            x       y       z     vdW  Elec       q    Type
REMARK                         _______ _______ _______ _____ _____    ______ ____
ROOT
ATOM      1  N   UNL     1       5.204   6.508  -0.828  0.00  0.00    -0.284 N 
ATOM      2  C   UNL     1       4.786   5.234  -0.691  0.00  0.00    +0.238 C 
ATOM      3  O   UNL     1       5.467   4.324  -1.114  0.00  0.00    -0.273 OA
ATOM      4  H   UNL     1       4.697   7.231  -0.426  0.00  0.00    +0.155 HD
ENDROOT
BRANCH   1   9
ATOM      5  C   UNL     1       9.926   7.644  -3.761  0.00  0.00    +0.046 C 
ATOM      6  C   UNL     1       8.671   7.342  -2.982  0.00  0.00    -0.024 A 
ATOM      7  C   UNL     1       8.590   6.187  -2.225  0.00  0.00    +0.007 A 
ATOM      8  C   UNL     1       7.444   5.910  -1.506  0.00  0.00    +0.023 A 
ATOM      9  C   UNL     1       6.369   6.788  -1.551  0.00  0.00    +0.035 A 
ATOM     10  C   UNL     1       6.454   7.947  -2.312  0.00  0.00    +0.052 A 
ATOM     11  C   UNL     1       7.605   8.220  -3.025  0.00  0.00    +0.110 A 
BRANCH  11  12
ATOM     12  S   UNL     1       7.713   9.691  -3.990  0.00  0.00    +0.056 S 
ATOM     13  O   UNL     1       8.187   9.301  -5.271  0.00  0.00    -0.153 OA
ATOM     14  O   UNL     1       6.488  10.386  -3.810  0.00  0.00    -0.153 OA
BRANCH  12  15
ATOM     15  N   UNL     1       8.896  10.633  -3.314  0.00  0.00    -0.204 NA
ATOM     16  H   UNL     1       9.374  10.323  -2.529  0.00  0.00    +0.144 HD
ATOM     17  H   UNL     1       9.111  11.495  -3.704  0.00  0.00    +0.144 HD
ENDBRANCH  12  15
ENDBRANCH  11  12
ENDBRANCH   1   9
BRANCH   2  18
ATOM     18  C   UNL     1       3.474   4.941  -0.011  0.00  0.00    +0.162 C 
BRANCH  18  19
ATOM     19  N   UNL     1       3.048   3.577  -0.337  0.00  0.00    -0.297 N 
ATOM     20  C   UNL     1       1.742   3.250  -0.293  0.00  0.00    +0.280 C 
ATOM     21  O   UNL     1       0.915   4.087   0.019  0.00  0.00    -0.267 OA
ATOM     22  H   UNL     1       3.707   2.910  -0.586  0.00  0.00    +0.150 HD
BRANCH  20  23
ATOM     23  C   UNL     1       1.316   1.885  -0.620  0.00  0.00    +0.189 A 
ATOM     24  C   UNL     1       0.031   1.422  -0.614  0.00  0.00    +0.054 A 
ATOM     25  C   UNL     1       0.088   0.070  -0.987  0.00  0.00    +0.042 A 
ATOM     26  C   UNL     1       1.388  -0.229  -1.201  0.00  0.00    +0.196 A 
ATOM     27  O   UNL     1       2.125   0.867  -0.979  0.00  0.00    -0.458 OA
ENDBRANCH  20  23
ENDBRANCH  18  19
BRANCH  18  28
ATOM     28  C   UNL     1       3.643   5.073   1.504  0.00  0.00    +0.012 C 
ATOM     29  C   UNL     1       4.800   4.185   1.967  0.00  0.00    +0.009 C 
ATOM     30  C   UNL     1       3.945   6.530   1.858  0.00  0.00    +0.009 C 
ENDBRANCH  18  28
ENDBRANCH   2  18
TORSDOF 7
