REMARK  Name = ZINC66582032
REMARK  7 active torsions:
REMARK  status: ('A' for Active; 'I' for Inactive)
REMARK    1  A    between atoms: C_1  and  C_2
REMARK    2  A    between atoms: C_5  and  C_9
REMARK    3  A    between atoms: C_6  and  O_8
REMARK    4  A    between atoms: N_11  and  N_12
REMARK    5  A    between atoms: N_12  and  S_13
REMARK    6  A    between atoms: S_13  and  C_16
REMARK    7  A    between atoms: C_17  and  C_18
REMARK                            x       y       z     vdW  Elec       q    Type
REMARK                         _______ _______ _______ _____ _____    ______ ____
ROOT
ATOM      1  N   UNL     1       0.081  -6.316  -1.222  0.00  0.00    -0.108 NA
ATOM      2  H   UNL     1       0.778  -6.797  -0.748  0.00  0.00    +0.172 HD
ENDROOT
BRANCH   1   5
ATOM      3  C   UNL     1       0.059  -4.252  -0.036  0.00  0.00    +0.262 C 
ATOM      4  O   UNL     1       0.072  -4.870   1.011  0.00  0.00    -0.269 OA
ATOM      5  N   UNL     1       0.062  -4.915  -1.209  0.00  0.00    -0.228 N 
ATOM      6  H   UNL     1       0.051  -4.423  -2.045  0.00  0.00    +0.171 HD
BRANCH   3  11
ATOM      7  C   UNL     1      -0.018   1.503   0.010  0.00  0.00    +0.044 C 
ATOM      8  C   UNL     1       0.002  -0.004   0.002  0.00  0.00    -0.047 A 
ATOM      9  C   UNL     1       0.006  -0.686  -1.204  0.00  0.00    +0.004 A 
ATOM     10  C   UNL     1       0.024  -2.064  -1.224  0.00  0.00    +0.017 A 
ATOM     11  C   UNL     1       0.040  -2.777  -0.022  0.00  0.00    +0.079 A 
ATOM     12  C   UNL     1       0.036  -2.084   1.195  0.00  0.00    +0.129 A 
ATOM     13  C   UNL     1       0.023  -0.697   1.196  0.00  0.00    +0.049 A 
BRANCH  12  14
ATOM     14  O   UNL     1       0.050  -2.766   2.368  0.00  0.00    -0.506 OA
ATOM     15  H   UNL     1       0.938  -2.952   2.704  0.00  0.00    +0.292 HD
ENDBRANCH  12  14
ENDBRANCH   3  11
ENDBRANCH   1   5
BRANCH   1  16
ATOM     16  S   UNL     1      -1.087  -7.152  -2.047  0.00  0.00    +0.067 S 
ATOM     17  O   UNL     1      -0.719  -8.524  -1.994  0.00  0.00    -0.152 OA
ATOM     18  O   UNL     1      -2.339  -6.681  -1.567  0.00  0.00    -0.152 OA
BRANCH  16  19
ATOM     19  C   UNL     1      -0.980  -6.667  -3.737  0.00  0.00    +0.155 C 
ATOM     20  C   UNL     1      -0.630  -7.552  -4.660  0.00  0.00    +0.030 C 
BRANCH  20  21
ATOM     21  C   UNL     1      -0.540  -7.145  -6.078  0.00  0.00    -0.005 A 
ATOM     22  C   UNL     1      -0.818  -5.828  -6.448  0.00  0.00    +0.009 A 
ATOM     23  C   UNL     1      -0.732  -5.454  -7.773  0.00  0.00    +0.001 A 
ATOM     24  C   UNL     1      -0.373  -6.382  -8.735  0.00  0.00    +0.001 A 
ATOM     25  C   UNL     1      -0.097  -7.688  -8.377  0.00  0.00    +0.020 A 
ATOM     26  C   UNL     1      -0.172  -8.075  -7.053  0.00  0.00    +0.048 A 
ATOM     27 CL   UNL     1       0.182  -9.713  -6.602  0.00  0.00    -0.083 Cl
ENDBRANCH  20  21
ENDBRANCH  16  19
ENDBRANCH   1  16
TORSDOF 6
