REMARK  Name = ZINC54525883
REMARK  6 active torsions:
REMARK  status: ('A' for Active; 'I' for Inactive)
REMARK    1  A    between atoms: C_1  and  N_2
REMARK    2  A    between atoms: C_6  and  N_9
REMARK    3  A    between atoms: N_9  and  C_10
REMARK    4  A    between atoms: N_13  and  CA_14
REMARK    5  A    between atoms: CA_14  and  C_16
REMARK    6  A    between atoms: CA_14  and  C_19
REMARK                            x       y       z     vdW  Elec       q    Type
REMARK                         _______ _______ _______ _____ _____    ______ ____
ROOT
ATOM      1  N   UNL     1       1.514  -2.498   2.336  0.00  0.00    -0.287 N 
ATOM      2  C   UNL     1       0.982  -2.212   3.671  0.00  0.00    +0.134 C 
ATOM      3  C   UNL     1       2.654  -3.204   2.202  0.00  0.00    +0.303 C 
ATOM      4  O   UNL     1       3.096  -3.441   1.094  0.00  0.00    -0.253 OA
ATOM      5  N   UNL     1       3.305  -3.647   3.296  0.00  0.00    -0.286 N 
ATOM      6  H   UNL     1       2.953  -3.458   4.179  0.00  0.00    +0.151 HD
ENDROOT
BRANCH   1  12
ATOM      7  C   UNL     1      -0.018   1.465   0.010  0.00  0.00    -0.096 C 
ATOM      8  N   UNL     1       0.002  -0.004   0.002  0.00  0.00    +0.379 N 
ATOM      9  C   UNL     1      -1.376  -0.511   0.004  0.00  0.00    -0.079 C 
ATOM     10  C   UNL     1      -1.361  -2.038  -0.087  0.00  0.00    -0.017 C 
ATOM     11  C   UNL     1      -0.605  -2.608   1.117  0.00  0.00    +0.019 C 
ATOM     12  C   UNL     1       0.807  -2.015   1.147  0.00  0.00    +0.061 C 
ATOM     13  C   UNL     1       0.712  -0.489   1.192  0.00  0.00    -0.056 C 
ATOM     14  H   UNL     1       0.477  -0.328  -0.827  0.00  0.00    -0.082 HD
ENDBRANCH   1  12
BRANCH   5  15
ATOM     15  CA  UNL     1       4.544  -4.415   3.150  0.00  0.00    +0.191 C 
BRANCH  15  16
ATOM     16  C   UNL     1       5.388  -4.266   4.417  0.00  0.00    +0.020 C 
ATOM     17  C   UNL     1       6.694  -3.476   4.307  0.00  0.00    +0.006 C 
ATOM     18  C   UNL     1       6.731  -4.998   4.461  0.00  0.00    +0.006 C 
ENDBRANCH  15  16
BRANCH  15  19
ATOM     19  C   UNL     1       4.212  -5.869   2.935  0.00  0.00    +0.376 C 
ATOM     20  O   UNL     1       3.048  -6.231   2.906  0.00  0.00    -0.244 OA
ATOM     21  OXT UNL     1       5.107  -6.684   2.790  0.00  0.00    -0.244 OA
ENDBRANCH  15  19
ENDBRANCH   5  15
TORSDOF 4
