REMARK  Name = ZINC38814397
REMARK  6 active torsions:
REMARK  status: ('A' for Active; 'I' for Inactive)
REMARK    1  A    between atoms: C_1  and  O_2
REMARK    2  A    between atoms: O_2  and  C_3
REMARK    3  A    between atoms: C_12  and  C_13
REMARK    4  A    between atoms: C_16  and  C_19
REMARK    5  A    between atoms: N_21  and  N_22
REMARK    6  A    between atoms: C_23  and  C_24
REMARK                            x       y       z     vdW  Elec       q    Type
REMARK                         _______ _______ _______ _____ _____    ______ ____
ROOT
ATOM      1  C   UNL     1       0.042  -2.800  -0.017  0.00  0.00    +0.129 C 
ATOM      2  C   UNL     1      -1.496  -2.757  -0.099  0.00  0.00    +0.091 C 
ATOM      3  C   UNL     1      -1.914  -2.135   1.214  0.00  0.00    +0.124 C 
ATOM      4  N   UNL     1      -0.862  -1.868   1.919  0.00  0.00    -0.186 NA
ATOM      5  N   UNL     1       0.341  -2.216   1.300  0.00  0.00    -0.261 N 
ATOM      6  H   UNL     1       1.227  -2.093   1.674  0.00  0.00    +0.169 HD
ENDROOT
BRANCH   1  16
ATOM      7  C   UNL     1       0.606  -0.607  -1.056  0.00  0.00    +0.126 A 
ATOM      8  C   UNL     1       1.174   0.177  -2.065  0.00  0.00    +0.046 A 
ATOM      9  C   UNL     1       1.785  -0.397  -3.135  0.00  0.00    +0.012 A 
ATOM     10  C   UNL     1       1.849  -1.798  -3.233  0.00  0.00    -0.017 A 
ATOM     11  C   UNL     1       2.473  -2.425  -4.325  0.00  0.00    +0.008 A 
ATOM     12  C   UNL     1       2.517  -3.784  -4.388  0.00  0.00    +0.001 A 
ATOM     13  C   UNL     1       1.952  -4.567  -3.383  0.00  0.00    +0.001 A 
ATOM     14  C   UNL     1       1.339  -3.996  -2.311  0.00  0.00    +0.009 A 
ATOM     15  C   UNL     1       1.274  -2.595  -2.211  0.00  0.00    -0.009 A 
ATOM     16  C   UNL     1       0.654  -1.970  -1.116  0.00  0.00    +0.024 A 
BRANCH   7  18
ATOM     17  C   UNL     1      -0.017   1.425   0.010  0.00  0.00    +0.277 C 
ATOM     18  O   UNL     1       0.002  -0.004   0.002  0.00  0.00    -0.495 OA
ENDBRANCH   7  18
ENDBRANCH   1  16
BRANCH   3  19
ATOM     19  C   UNL     1      -3.293  -1.875   1.625  0.00  0.00    +0.279 C 
ATOM     20  O   UNL     1      -4.213  -2.166   0.883  0.00  0.00    -0.267 OA
ATOM     21  N   UNL     1      -3.545  -1.314   2.824  0.00  0.00    -0.202 N 
ATOM     22  H   UNL     1      -2.811  -1.083   3.415  0.00  0.00    +0.178 HD
BRANCH  21  23
ATOM     23  N   UNL     1      -4.866  -1.065   3.217  0.00  0.00    -0.188 NA
ATOM     24  C   UNL     1      -5.111  -0.519   4.383  0.00  0.00    +0.136 C 
BRANCH  24  25
ATOM     25  C   UNL     1      -6.432  -0.270   4.776  0.00  0.00    +0.000 C 
ATOM     26  C   UNL     1      -6.862   0.305   5.971  0.00  0.00    +0.004 A 
ATOM     27  C   UNL     1      -6.167   0.791   7.100  0.00  0.00    +0.010 A 
ATOM     28  C   UNL     1      -6.860   1.310   8.145  0.00  0.00    +0.001 A 
ATOM     29  C   UNL     1      -8.256   1.377   8.136  0.00  0.00    +0.002 A 
ATOM     30  C   UNL     1      -8.988   0.930   7.088  0.00  0.00    +0.026 A 
ATOM     31  C   UNL     1      -8.333   0.374   5.956  0.00  0.00    +0.043 A 
ATOM     32  N   UNL     1      -8.807  -0.122   4.832  0.00  0.00    -0.380 N 
ATOM     33  C   UNL     1      -7.691  -0.563   3.990  0.00  0.00    +0.150 C 
ATOM     34  H   UNL     1      -9.746  -0.183   4.597  0.00  0.00    +0.160 HD
ENDBRANCH  24  25
ENDBRANCH  21  23
ENDBRANCH   3  19
TORSDOF 5
