REMARK  Name = ZINC05387560
REMARK  8 active torsions:
REMARK  status: ('A' for Active; 'I' for Inactive)
REMARK    1  A    between atoms: C_4  and  C_7
REMARK    2  A    between atoms: C_8  and  C_9
REMARK    3  A    between atoms: N_10  and  N_11
REMARK    4  A    between atoms: C_12  and  C_14
REMARK    5  A    between atoms: C_15  and  C_20
REMARK    6  A    between atoms: N_22  and  N_23
REMARK    7  A    between atoms: C_24  and  C_25
REMARK    8  A    between atoms: C_26  and  C_27
REMARK                            x       y       z     vdW  Elec       q    Type
REMARK                         _______ _______ _______ _____ _____    ______ ____
ROOT
ATOM      1  C   UNL     1      -1.136  -2.165   0.001  0.00  0.00    +0.135 A 
ATOM      2  C   UNL     1      -2.235  -3.015   0.007  0.00  0.00    +0.157 A 
ATOM      3  N   UNL     1      -1.764  -4.274  -0.004  0.00  0.00    -0.230 NA
ATOM      4  C   UNL     1      -0.460  -4.251  -0.016  0.00  0.00    +0.197 A 
ATOM      5  N   UNL     1      -0.028  -2.975  -0.020  0.00  0.00    -0.340 N 
ATOM      6  H   UNL     1       0.925  -2.673  -0.035  0.00  0.00    +0.167 HD
ENDROOT
BRANCH   1   8
ATOM      7  N   UNL     1       0.002  -0.004   0.002  0.00  0.00    -0.202 N 
ATOM      8  C   UNL     1      -1.156  -0.694   0.009  0.00  0.00    +0.282 C 
ATOM      9  O   UNL     1      -2.218  -0.100   0.023  0.00  0.00    -0.267 OA
ATOM     10  H   UNL     1       0.849  -0.478  -0.009  0.00  0.00    +0.178 HD
BRANCH   7  12
ATOM     11  C   UNL     1       1.103   2.064   0.003  0.00  0.00    +0.130 C 
ATOM     12  N   UNL     1      -0.017   1.397   0.010  0.00  0.00    -0.188 NA
BRANCH  11  14
ATOM     13  C   UNL     1       2.242   4.171   0.003  0.00  0.00    +0.009 C 
ATOM     14  C   UNL     1       1.083   3.481   0.010  0.00  0.00    +0.022 C 
BRANCH  13  18
ATOM     15  C   UNL     1       2.185   8.413   0.026  0.00  0.00    +0.000 A 
ATOM     16  C   UNL     1       3.395   7.741   0.011  0.00  0.00    +0.001 A 
ATOM     17  C   UNL     1       3.422   6.362   0.004  0.00  0.00    +0.008 A 
ATOM     18  C   UNL     1       2.222   5.643   0.011  0.00  0.00    -0.025 A 
ATOM     19  C   UNL     1       1.004   6.329   0.021  0.00  0.00    +0.008 A 
ATOM     20  C   UNL     1       0.994   7.708   0.034  0.00  0.00    +0.001 A 
ENDBRANCH  13  18
ENDBRANCH  11  14
ENDBRANCH   7  12
ENDBRANCH   1   8
BRANCH   2  21
ATOM     21  C   UNL     1      -3.656  -2.611   0.022  0.00  0.00    +0.284 C 
ATOM     22  O   UNL     1      -3.953  -1.432   0.031  0.00  0.00    -0.267 OA
ATOM     23  N   UNL     1      -4.623  -3.550   0.026  0.00  0.00    -0.202 N 
ATOM     24  H   UNL     1      -4.386  -4.490   0.020  0.00  0.00    +0.178 HD
BRANCH  23  25
ATOM     25  N   UNL     1      -5.971  -3.166   0.041  0.00  0.00    -0.188 NA
ATOM     26  C   UNL     1      -6.906  -4.074   0.045  0.00  0.00    +0.130 C 
BRANCH  26  27
ATOM     27  C   UNL     1      -8.269  -3.686   0.059  0.00  0.00    +0.022 C 
ATOM     28  C   UNL     1      -9.238  -4.625   0.064  0.00  0.00    +0.009 C 
BRANCH  28  29
ATOM     29  C   UNL     1     -10.653  -4.223   0.079  0.00  0.00    -0.025 A 
ATOM     30  C   UNL     1     -10.998  -2.868   0.094  0.00  0.00    +0.008 A 
ATOM     31  C   UNL     1     -12.327  -2.498   0.103  0.00  0.00    +0.001 A 
ATOM     32  C   UNL     1     -13.318  -3.465   0.108  0.00  0.00    +0.000 A 
ATOM     33  C   UNL     1     -12.984  -4.808   0.097  0.00  0.00    +0.001 A 
ATOM     34  C   UNL     1     -11.660  -5.193   0.083  0.00  0.00    +0.008 A 
ENDBRANCH  28  29
ENDBRANCH  26  27
ENDBRANCH  23  25
ENDBRANCH   2  21
TORSDOF 8
