REMARK  Name = ZINC02138895
REMARK  7 active torsions:
REMARK  status: ('A' for Active; 'I' for Inactive)
REMARK    1  A    between atoms: C_1  and  C_2
REMARK    2  A    between atoms: C_16  and  C_18
REMARK    3  A    between atoms: C_18  and  C_19
REMARK    4  A    between atoms: N_24  and  C_27
REMARK    5  A    between atoms: C_27  and  C_28
REMARK    6  A    between atoms: C_31  and  O_34
REMARK    7  A    between atoms: O_34  and  C_35
REMARK                            x       y       z     vdW  Elec       q    Type
REMARK                         _______ _______ _______ _____ _____    ______ ____
ROOT
ATOM      1  C   UNL     1      -2.247   6.965   3.840  0.00  0.00    +0.047 C 
ATOM      2  C   UNL     1      -2.718   5.709   3.154  0.00  0.00    -0.011 A 
ATOM      3  C   UNL     1      -3.995   5.236   3.386  0.00  0.00    +0.046 A 
ATOM      4  C   UNL     1      -4.437   4.083   2.760  0.00  0.00    +0.020 A 
ATOM      5  C   UNL     1      -3.595   3.402   1.898  0.00  0.00    +0.006 A 
ATOM      6  C   UNL     1      -2.321   3.869   1.665  0.00  0.00    -0.027 A 
ATOM      7  C   UNL     1      -1.866   5.028   2.289  0.00  0.00    +0.040 A 
ATOM      8  N   UNL     1      -0.553   5.303   1.898  0.00  0.00    -0.286 N 
ATOM      9  C   UNL     1      -0.079   4.386   1.032  0.00  0.00    +0.211 C 
ATOM     10  O   UNL     1       1.023   4.370   0.527  0.00  0.00    -0.277 OA
ATOM     11  C   UNL     1      -1.181   3.386   0.815  0.00  0.00    +0.050 C 
ATOM     12  C   UNL     1      -1.577   3.300  -0.664  0.00  0.00    +0.088 C 
ATOM     13  C   UNL     1      -0.809   2.059  -1.203  0.00  0.00    +0.073 C 
ATOM     14  C   UNL     1      -0.019   1.526   0.010  0.00  0.00    -0.049 C 
ATOM     15  C   UNL     1      -1.917   1.087  -1.543  0.00  0.00    +0.224 C 
ATOM     16  O   UNL     1      -1.757  -0.028  -1.992  0.00  0.00    -0.275 OA
ATOM     17  N   UNL     1      -3.102   1.648  -1.273  0.00  0.00    -0.237 N 
ATOM     18  C   UNL     1      -3.028   2.889  -0.779  0.00  0.00    +0.225 C 
ATOM     19  O   UNL     1      -3.977   3.578  -0.470  0.00  0.00    -0.275 OA
ATOM     20 CL   UNL     1      -5.050   6.090   4.468  0.00  0.00    -0.083 Cl
ATOM     21  H   UNL     1      -0.043   6.065   2.212  0.00  0.00    +0.155 HD
ATOM     22  N   UNL     1      -0.751   2.044   1.168  0.00  0.00    +0.394 N 
ATOM     23  H   UNL     1      -1.565   1.451   1.367  0.00  0.00    -0.083 HD
ATOM     24  H   UNL     1      -0.139   2.073   1.992  0.00  0.00    -0.083 HD
ENDROOT
BRANCH  14  25
ATOM     25  C   UNL     1       0.002  -0.004   0.002  0.00  0.00    +0.080 C 
BRANCH  25  26
ATOM     26  C   UNL     1       0.849  -0.501   1.145  0.00  0.00    +0.209 C 
ATOM     27  O   UNL     1       1.383   0.290   1.893  0.00  0.00    -0.276 OA
ATOM     28  N   UNL     1       1.012  -1.825   1.337  0.00  0.00    -0.329 N 
ATOM     29  H   UNL     1       0.585  -2.458   0.738  0.00  0.00    +0.145 HD
ATOM     30  H   UNL     1       1.558  -2.145   2.072  0.00  0.00    +0.145 HD
ENDBRANCH  25  26
ENDBRANCH  14  25
BRANCH  17  31
ATOM     31  C   UNL     1      -4.375   0.960  -1.500  0.00  0.00    +0.151 C 
BRANCH  31  32
ATOM     32  C   UNL     1      -4.861   1.252  -2.896  0.00  0.00    -0.029 A 
ATOM     33  C   UNL     1      -5.680   2.342  -3.128  0.00  0.00    +0.009 A 
ATOM     34  C   UNL     1      -6.122   2.615  -4.408  0.00  0.00    +0.046 A 
ATOM     35  C   UNL     1      -5.754   1.787  -5.459  0.00  0.00    +0.120 A 
ATOM     36  C   UNL     1      -4.937   0.691  -5.223  0.00  0.00    +0.046 A 
ATOM     37  C   UNL     1      -4.493   0.426  -3.942  0.00  0.00    +0.009 A 
BRANCH  35  38
ATOM     38  O   UNL     1      -6.192   2.051  -6.718  0.00  0.00    -0.495 OA
ATOM     39  C   UNL     1      -7.030   3.196  -6.887  0.00  0.00    +0.277 C 
ENDBRANCH  35  38
ENDBRANCH  31  32
ENDBRANCH  17  31
TORSDOF 5
