REMARK  Name = ZINC25985224
REMARK  7 active torsions:
REMARK  status: ('A' for Active; 'I' for Inactive)
REMARK    1  A    between atoms: C_4  and  O_7
REMARK    2  A    between atoms: O_7  and  C_8
REMARK    3  A    between atoms: C_13  and  N_14
REMARK    4  A    between atoms: C_15  and  C_17
REMARK    5  A    between atoms: C_17  and  C_18
REMARK    6  A    between atoms: C_18  and  C_20
REMARK    7  A    between atoms: C_18  and  N_27
REMARK                            x       y       z     vdW  Elec       q    Type
REMARK                         _______ _______ _______ _____ _____    ______ ____
ROOT
ATOM      1  N   UNL     1      -2.312   0.028  -3.802  0.00  0.00    -0.283 N 
ATOM      2  C   UNL     1      -2.746   0.456  -2.600  0.00  0.00    +0.219 C 
ATOM      3  O   UNL     1      -3.328   1.516  -2.507  0.00  0.00    -0.275 OA
ATOM      4  H   UNL     1      -1.685  -0.873  -3.872  0.00  0.00    +0.155 HD
ENDROOT
BRANCH   1  10
ATOM      5  C   UNL     1      -2.761   0.062  -6.181  0.00  0.00    +0.150 A 
ATOM      6  C   UNL     1      -3.111   0.761  -7.325  0.00  0.00    +0.048 A 
ATOM      7  C   UNL     1      -3.349   2.121  -7.258  0.00  0.00    +0.004 A 
ATOM      8  C   UNL     1      -3.245   2.787  -6.051  0.00  0.00    +0.002 A 
ATOM      9  C   UNL     1      -2.901   2.096  -4.904  0.00  0.00    +0.027 A 
ATOM     10  C   UNL     1      -2.661   0.731  -4.963  0.00  0.00    +0.076 A 
BRANCH   5  11
ATOM     11  O   UNL     1      -2.522  -1.275  -6.246  0.00  0.00    -0.454 OA
BRANCH  11  15
ATOM     12  C   UNL     1      -2.478  -3.057  -9.966  0.00  0.00    +0.000 A 
ATOM     13  C   UNL     1      -1.383  -2.331  -9.536  0.00  0.00    +0.004 A 
ATOM     14  C   UNL     1      -1.395  -1.733  -8.291  0.00  0.00    +0.046 A 
ATOM     15  C   UNL     1      -2.508  -1.862  -7.472  0.00  0.00    +0.129 A 
ATOM     16  C   UNL     1      -3.603  -2.595  -7.904  0.00  0.00    +0.046 A 
ATOM     17  C   UNL     1      -3.588  -3.187  -9.152  0.00  0.00    +0.004 A 
ENDBRANCH  11  15
ENDBRANCH   5  11
ENDBRANCH   1  10
BRANCH   2  18
ATOM     18  C   UNL     1      -2.507  -0.383  -1.371  0.00  0.00    +0.123 C 
BRANCH  18  19
ATOM     19  C   UNL     1      -3.094   0.326  -0.148  0.00  0.00    +0.113 C 
BRANCH  19  20
ATOM     20  C   UNL     1      -2.965  -0.567   1.059  0.00  0.00    -0.027 A 
ATOM     21  C   UNL     1      -1.755  -0.664   1.721  0.00  0.00    +0.007 A 
ATOM     22  C   UNL     1      -1.638  -1.478   2.832  0.00  0.00    +0.020 A 
ATOM     23  C   UNL     1      -2.729  -2.204   3.275  0.00  0.00    +0.041 A 
ATOM     24  C   UNL     1      -3.938  -2.111   2.609  0.00  0.00    +0.020 A 
ATOM     25  C   UNL     1      -4.056  -1.292   1.502  0.00  0.00    +0.007 A 
ATOM     26 CL   UNL     1      -2.580  -3.232   4.666  0.00  0.00    -0.084 Cl
ENDBRANCH  19  20
BRANCH  19  27
ATOM     27  N   UNL     1      -2.366   1.575   0.088  0.00  0.00    -0.292 N 
ATOM     28  C   UNL     1      -2.956   2.582   0.763  0.00  0.00    +0.298 C 
ATOM     29  O   UNL     1      -4.123   2.491   1.091  0.00  0.00    -0.253 OA
ATOM     30  N   UNL     1      -2.252   3.686   1.077  0.00  0.00    -0.313 N 
ATOM     31  H   UNL     1      -1.338   1.692  -0.285  0.00  0.00    +0.151 HD
ATOM     32  H   UNL     1      -2.733   4.508   1.628  0.00  0.00    +0.146 HD
ATOM     33  H   UNL     1      -1.194   3.767   0.784  0.00  0.00    +0.146 HD
ENDBRANCH  19  27
ENDBRANCH  18  19
ENDBRANCH   2  18
TORSDOF 7
