REMARK  Name = ZINC39796137
REMARK  8 active torsions:
REMARK  status: ('A' for Active; 'I' for Inactive)
REMARK    1  A    between atoms: C_1  and  C_2
REMARK    2  A    between atoms: C_2  and  C_3
REMARK    3  A    between atoms: C_6  and  C_9
REMARK    4  A    between atoms: C_9  and  C_11
REMARK    5  A    between atoms: C_9  and  N_14
REMARK    6  A    between atoms: C_11  and  C_12
REMARK    7  A    between atoms: C_11  and  C_13
REMARK    8  A    between atoms: C_15  and  C_17
REMARK                            x       y       z     vdW  Elec       q    Type
REMARK                         _______ _______ _______ _____ _____    ______ ____
ROOT
ATOM      1  N   UNL     1       3.718  -2.861  -4.381  0.00  0.00    -0.307 N 
ATOM      2  C   UNL     1       4.116  -3.785  -5.277  0.00  0.00    +0.229 C 
ATOM      3  O   UNL     1       3.636  -3.796  -6.391  0.00  0.00    -0.275 OA
ATOM      4  H   UNL     1       4.102  -2.852  -3.490  0.00  0.00    +0.149 HD
ENDROOT
BRANCH   2   5
ATOM      5  C   UNL     1       5.157  -4.806  -4.894  0.00  0.00    +0.184 C 
ATOM      6  C   UNL     1       5.464  -5.640  -6.123  0.00  0.00    +0.004 C 
ATOM      7  C   UNL     1       5.271  -6.986  -6.029  0.00  0.00    -0.007 A 
ATOM      8  C   UNL     1       5.543  -7.865  -7.167  0.00  0.00    +0.009 A 
ATOM      9  C   UNL     1       5.336  -9.200  -7.028  0.00  0.00    +0.001 A 
ATOM     10  C   UNL     1       4.872  -9.742  -5.829  0.00  0.00    +0.002 A 
ATOM     11  C   UNL     1       4.602  -8.981  -4.736  0.00  0.00    +0.024 A 
ATOM     12  C   UNL     1       4.783  -7.586  -4.775  0.00  0.00    +0.040 A 
ATOM     13  N   UNL     1       4.515  -6.849  -3.697  0.00  0.00    -0.284 N 
ATOM     14  C   UNL     1       4.661  -5.536  -3.666  0.00  0.00    +0.233 C 
ATOM     15  O   UNL     1       4.400  -4.917  -2.652  0.00  0.00    -0.274 OA
ATOM     16  H   UNL     1       4.197  -7.298  -2.898  0.00  0.00    +0.155 HD
ENDBRANCH   2   5
BRANCH   1  17
ATOM     17  C   UNL     1       2.707  -1.868  -4.752  0.00  0.00    +0.106 C 
BRANCH  17  21
ATOM     18  C   UNL     1       0.707  -0.490  -1.238  0.00  0.00    -0.048 A 
ATOM     19  C   UNL     1      -0.011  -0.719  -2.397  0.00  0.00    +0.004 A 
ATOM     20  C   UNL     1       0.636  -1.164  -3.534  0.00  0.00    +0.006 A 
ATOM     21  C   UNL     1       2.002  -1.381  -3.513  0.00  0.00    -0.027 A 
ATOM     22  C   UNL     1       2.720  -1.152  -2.354  0.00  0.00    +0.006 A 
ATOM     23  C   UNL     1       2.073  -0.702  -1.218  0.00  0.00    +0.004 A 
BRANCH  18  25
ATOM     24  C   UNL     1      -0.019   1.526   0.010  0.00  0.00    +0.009 C 
ATOM     25  C   UNL     1       0.002  -0.004   0.002  0.00  0.00    +0.032 C 
ENDBRANCH  18  25
ENDBRANCH  17  21
BRANCH  17  26
ATOM     26  C   UNL     1       3.383  -0.687  -5.451  0.00  0.00    +0.008 C 
ATOM     27  C   UNL     1       4.487  -0.126  -4.552  0.00  0.00    +0.009 C 
ATOM     28  C   UNL     1       3.993  -1.158  -6.773  0.00  0.00    +0.009 C 
ENDBRANCH  17  26
ENDBRANCH   1  17
TORSDOF 5
