REMARK  Name = ZINC41154157
REMARK  4 active torsions:
REMARK  status: ('A' for Active; 'I' for Inactive)
REMARK    1  A    between atoms: C_1  and  C_2
REMARK    2  A    between atoms: C_7  and  C_9
REMARK    3  A    between atoms: C_7  and  N_22
REMARK    4  A    between atoms: C_11  and  C_14
REMARK                            x       y       z     vdW  Elec       q    Type
REMARK                         _______ _______ _______ _____ _____    ______ ____
ROOT
ATOM      1  C   UNL     1       1.492  -2.540   2.454  0.00  0.00    +0.161 A 
ATOM      2  N   UNL     1       1.783  -3.816   2.714  0.00  0.00    -0.193 NA
ATOM      3  C   UNL     1       2.422  -3.907   3.858  0.00  0.00    +0.260 A 
ATOM      4  O   UNL     1       2.554  -2.667   4.360  0.00  0.00    -0.333 OA
ATOM      5  N   UNL     1       1.944  -1.794   3.422  0.00  0.00    -0.062 NA
ENDROOT
BRANCH   3   6
ATOM      6  C   UNL     1       2.911  -5.154   4.484  0.00  0.00    +0.056 A 
ATOM      7  C   UNL     1       2.711  -6.381   3.849  0.00  0.00    +0.052 A 
ATOM      8  C   UNL     1       3.171  -7.543   4.439  0.00  0.00    +0.124 A 
ATOM      9  C   UNL     1       3.828  -7.490   5.659  0.00  0.00    +0.039 A 
ATOM     10  C   UNL     1       4.028  -6.278   6.291  0.00  0.00    +0.019 A 
ATOM     11  C   UNL     1       3.579  -5.109   5.709  0.00  0.00    +0.030 A 
ATOM     12 BR   UNL     1       3.861  -3.451   6.573  0.00  0.00    -0.050 Br
ATOM     13  F   UNL     1       2.979  -8.732   3.827  0.00  0.00    -0.205 F 
ENDBRANCH   3   6
BRANCH   1  19
ATOM     14  C   UNL     1      -0.019   1.526   0.010  0.00  0.00    +0.007 C 
ATOM     15  C   UNL     1       0.002  -0.004   0.002  0.00  0.00    -0.015 C 
ATOM     16  C   UNL     1      -1.433  -0.534   0.013  0.00  0.00    +0.003 C 
ATOM     17  C   UNL     1      -1.413  -2.063   0.004  0.00  0.00    -0.001 C 
ATOM     18  C   UNL     1      -0.673  -2.570   1.244  0.00  0.00    -0.005 C 
ATOM     19  C   UNL     1       0.763  -2.041   1.233  0.00  0.00    -0.006 C 
ATOM     20  C   UNL     1       0.742  -0.511   1.242  0.00  0.00    -0.002 C 
BRANCH  19  21
ATOM     21  N   UNL     1       1.450  -2.514   0.025  0.00  0.00    +0.387 N 
ATOM     22  H   UNL     1       0.962  -2.180  -0.793  0.00  0.00    -0.089 HD
ATOM     23  H   UNL     1       2.397  -2.165   0.017  0.00  0.00    -0.089 HD
ATOM     24  H   UNL     1       1.464  -3.523   0.019  0.00  0.00    -0.089 HD
ENDBRANCH  19  21
ENDBRANCH   1  19
TORSDOF 3
