REMARK  Name = ZINC12534540
REMARK  8 active torsions:
REMARK  status: ('A' for Active; 'I' for Inactive)
REMARK    1  A    between atoms: C_1  and  C_2
REMARK    2  A    between atoms: C_2  and  C_3
REMARK    3  A    between atoms: C_7  and  C_23
REMARK    4  A    between atoms: C_8  and  N_9
REMARK    5  A    between atoms: C_13  and  S_15
REMARK    6  A    between atoms: S_15  and  C_16
REMARK    7  A    between atoms: C_16  and  C_17
REMARK    8  A    between atoms: C_19  and  C_22
REMARK                            x       y       z     vdW  Elec       q    Type
REMARK                         _______ _______ _______ _____ _____    ______ ____
ROOT
ATOM      1  N   UNL     1       1.345   2.975   2.276  0.00  0.00    -0.292 N 
ATOM      2  C   UNL     1       2.107   3.945   2.918  0.00  0.00    +0.187 A 
ATOM      3  N   UNL     1       2.668   3.912   4.111  0.00  0.00    -0.125 NA
ATOM      4  N   UNL     1       3.392   4.993   4.557  0.00  0.00    -0.133 NA
ATOM      5  C   UNL     1       3.512   6.062   3.794  0.00  0.00    +0.160 A 
ATOM      6  S   UNL     1       2.580   5.571   2.352  0.00  0.00    -0.024 S 
ATOM      7  H   UNL     1       1.042   3.120   1.366  0.00  0.00    +0.154 HD
ENDROOT
BRANCH   1  13
ATOM      8  C   UNL     1      -0.302   1.529   3.287  0.00  0.00    -0.026 A 
ATOM      9  C   UNL     1      -0.622   0.360   3.948  0.00  0.00    +0.005 A 
ATOM     10  C   UNL     1       0.368  -0.555   4.256  0.00  0.00    +0.001 A 
ATOM     11  C   UNL     1       1.683  -0.298   3.913  0.00  0.00    +0.005 A 
ATOM     12  C   UNL     1       2.010   0.871   3.256  0.00  0.00    -0.029 A 
ATOM     13  C   UNL     1       1.017   1.790   2.940  0.00  0.00    +0.039 A 
ATOM     14  C   UNL     1       3.443   1.150   2.882  0.00  0.00    +0.045 C 
BRANCH   8  16
ATOM     15  C   UNL     1      -1.865   2.282   1.514  0.00  0.00    +0.009 C 
ATOM     16  C   UNL     1      -1.383   2.523   2.946  0.00  0.00    +0.033 C 
ENDBRANCH   8  16
ENDBRANCH   1  13
BRANCH   5  17
ATOM     17  S   UNL     1       4.364   7.572   4.112  0.00  0.00    -0.091 S 
BRANCH  17  18
ATOM     18  C   UNL     1       5.067   7.338   5.768  0.00  0.00    +0.135 C 
BRANCH  18  19
ATOM     19  C   UNL     1       5.832   8.573   6.168  0.00  0.00    +0.094 A 
ATOM     20  C   UNL     1       5.324   9.701   6.852  0.00  0.00    +0.071 A 
ATOM     21  C   UNL     1       6.394  10.523   6.970  0.00  0.00    +0.134 A 
ATOM     22  O   UNL     1       7.423   9.890   6.389  0.00  0.00    -0.360 OA
ATOM     23  N   UNL     1       7.095   8.810   5.957  0.00  0.00    -0.082 NA
ATOM     24  C   UNL     1       6.421  11.880   7.624  0.00  0.00    +0.089 C 
ENDBRANCH  18  19
ENDBRANCH  17  18
ENDBRANCH   5  17
TORSDOF 5
