REMARK  Name = ZINC14586363
REMARK  9 active torsions:
REMARK  status: ('A' for Active; 'I' for Inactive)
REMARK    1  A    between atoms: C_1  and  C_2
REMARK    2  A    between atoms: C_2  and  C_22
REMARK    3  A    between atoms: C_5  and  C_8
REMARK    4  A    between atoms: C_8  and  C_10
REMARK    5  A    between atoms: C_8  and  O_21
REMARK    6  A    between atoms: C_12  and  C_19
REMARK    7  A    between atoms: C_15  and  C_17
REMARK    8  A    between atoms: C_15  and  C_18
REMARK    9  A    between atoms: C_19  and  O_20
REMARK                            x       y       z     vdW  Elec       q    Type
REMARK                         _______ _______ _______ _____ _____    ______ ____
ROOT
ATOM      1  C   UNL     1      -4.263   2.104   0.723  0.00  0.00    +0.177 C 
ENDROOT
BRANCH   1   6
ATOM      2  C   UNL     1      -5.056  -2.404   0.542  0.00  0.00    +0.074 C 
ATOM      3  C   UNL     1      -5.217  -1.287   1.575  0.00  0.00    +0.165 C 
ATOM      4  O   UNL     1      -6.519  -0.700   1.451  0.00  0.00    -0.347 OA
ATOM      5  C   UNL     1      -6.333   0.692   1.124  0.00  0.00    +0.197 C 
ATOM      6  C   UNL     1      -4.900   0.725   0.536  0.00  0.00    +0.178 C 
ATOM      7  O   UNL     1      -4.228  -0.270   1.344  0.00  0.00    -0.341 OA
ATOM      8  C   UNL     1      -5.045  -1.863   2.982  0.00  0.00    +0.074 C 
ENDBRANCH   1   6
BRANCH   1   9
ATOM      9  C   UNL     1      -2.772   2.026   0.391  0.00  0.00    +0.184 C 
ATOM     10  C   UNL     1      -2.074   3.371   0.689  0.00  0.00    +0.178 C 
ATOM     11  O   UNL     1      -0.803   3.015   1.262  0.00  0.00    -0.341 OA
ATOM     12  C   UNL     1      -0.729   1.579   1.267  0.00  0.00    +0.166 C 
ATOM     13  O   UNL     1      -2.092   1.104   1.281  0.00  0.00    -0.341 OA
ATOM     14  C   UNL     1      -0.013   1.086   0.008  0.00  0.00    +0.074 C 
ATOM     15  C   UNL     1       0.010   1.095   2.516  0.00  0.00    +0.074 C 
BRANCH  10  16
ATOM     16  C   UNL     1      -2.897   4.189   1.686  0.00  0.00    +0.190 C 
BRANCH  16  17
ATOM     17  O   UNL     1      -2.260   5.449   1.909  0.00  0.00    -0.392 OA
ATOM     18  H   UNL     1      -2.728   6.021   2.532  0.00  0.00    +0.210 HD
ENDBRANCH  16  17
ENDBRANCH  10  16
ENDBRANCH   1   9
BRANCH   1  19
ATOM     19  O   UNL     1      -4.428   2.526   2.078  0.00  0.00    -0.386 OA
ATOM     20  H   UNL     1      -4.023   1.934   2.726  0.00  0.00    +0.210 HD
ENDBRANCH   1  19
TORSDOF 5
