REMARK  Name = ZINC45776097
REMARK  7 active torsions:
REMARK  status: ('A' for Active; 'I' for Inactive)
REMARK    1  A    between atoms: C_4  and  C_7
REMARK    2  A    between atoms: C_9  and  C_18
REMARK    3  A    between atoms: N_11  and  C_12
REMARK    4  A    between atoms: N_20  and  N_21
REMARK    5  A    between atoms: C_22  and  C_24
REMARK    6  A    between atoms: C_27  and  N_29
REMARK    7  A    between atoms: C_30  and  C_32
REMARK                            x       y       z     vdW  Elec       q    Type
REMARK                         _______ _______ _______ _____ _____    ______ ____
ROOT
ATOM      1  C   UNL     1       7.217  -1.053  -0.552  0.00  0.00    +0.299 C 
ATOM      2  O   UNL     1       7.673  -0.005  -0.965  0.00  0.00    -0.265 OA
ATOM      3  N   UNL     1       8.030  -2.111  -0.358  0.00  0.00    -0.227 N 
ATOM      4  H   UNL     1       7.666  -2.948  -0.029  0.00  0.00    +0.173 HD
ENDROOT
BRANCH   1   7
ATOM      5  C   UNL     1       3.694  -0.690  -0.050  0.00  0.00    +0.164 A 
ATOM      6  N   UNL     1       4.860  -0.193  -0.412  0.00  0.00    -0.202 NA
ATOM      7  C   UNL     1       5.772  -1.168  -0.262  0.00  0.00    +0.239 A 
ATOM      8  N   UNL     1       5.159  -2.243   0.186  0.00  0.00    -0.139 NA
ATOM      9  N   UNL     1       3.905  -1.981   0.329  0.00  0.00    -0.212 N 
BRANCH   5  13
ATOM     10  C   UNL     1      -0.027   1.361  -0.049  0.00  0.00    +0.000 A 
ATOM     11  C   UNL     1       0.218   0.378   0.893  0.00  0.00    +0.001 A 
ATOM     12  C   UNL     1       1.424  -0.292   0.898  0.00  0.00    +0.011 A 
ATOM     13  C   UNL     1       2.398   0.024  -0.050  0.00  0.00    +0.019 A 
ATOM     14  C   UNL     1       2.145   1.017  -0.997  0.00  0.00    +0.011 A 
ATOM     15  C   UNL     1       0.934   1.679  -0.991  0.00  0.00    +0.001 A 
ENDBRANCH   5  13
BRANCH   9  16
ATOM     16  C   UNL     1       2.928  -2.872   0.790  0.00  0.00    +0.068 A 
ATOM     17  C   UNL     1       1.705  -2.962   0.139  0.00  0.00    +0.028 A 
ATOM     18  C   UNL     1       0.744  -3.841   0.597  0.00  0.00    +0.002 A 
ATOM     19  C   UNL     1       0.997  -4.631   1.703  0.00  0.00    +0.000 A 
ATOM     20  C   UNL     1       2.214  -4.543   2.354  0.00  0.00    +0.002 A 
ATOM     21  C   UNL     1       3.182  -3.671   1.897  0.00  0.00    +0.028 A 
ENDBRANCH   9  16
ENDBRANCH   1   7
BRANCH   3  22
ATOM     22  N   UNL     1       9.399  -2.003  -0.633  0.00  0.00    -0.230 N 
ATOM     23  C   UNL     1      10.211  -3.061  -0.439  0.00  0.00    +0.267 C 
ATOM     24  O   UNL     1       9.755  -4.111  -0.026  0.00  0.00    -0.268 OA
ATOM     25  H   UNL     1       9.763  -1.166  -0.962  0.00  0.00    +0.173 HD
BRANCH  23  26
ATOM     26  C   UNL     1      11.639  -2.948  -0.726  0.00  0.00    +0.077 A 
ATOM     27  C   UNL     1      12.633  -3.909  -0.601  0.00  0.00    +0.022 A 
ATOM     28  C   UNL     1      13.899  -3.512  -0.948  0.00  0.00    +0.032 A 
ATOM     29  C   UNL     1      14.088  -2.221  -1.384  0.00  0.00    +0.073 A 
ATOM     30  S   UNL     1      12.552  -1.542  -1.333  0.00  0.00    -0.069 S 
BRANCH  29  31
ATOM     31  N   UNL     1      15.275  -1.619  -1.780  0.00  0.00    -0.273 N 
ATOM     32  C   UNL     1      15.277  -0.333  -2.182  0.00  0.00    +0.284 C 
ATOM     33  O   UNL     1      14.238   0.301  -2.198  0.00  0.00    -0.266 OA
ATOM     34  H   UNL     1      16.103  -2.124  -1.768  0.00  0.00    +0.156 HD
BRANCH  32  35
ATOM     35  C   UNL     1      16.530   0.303  -2.601  0.00  0.00    +0.189 A 
ATOM     36  C   UNL     1      16.673   1.594  -3.023  0.00  0.00    +0.054 A 
ATOM     37  C   UNL     1      18.033   1.772  -3.320  0.00  0.00    +0.042 A 
ATOM     38  C   UNL     1      18.652   0.598  -3.069  0.00  0.00    +0.196 A 
ATOM     39  O   UNL     1      17.744  -0.283  -2.630  0.00  0.00    -0.458 OA
ENDBRANCH  32  35
ENDBRANCH  29  31
ENDBRANCH  23  26
ENDBRANCH   3  22
TORSDOF 7
