REMARK  Name = ZINC42959222
REMARK  5 active torsions:
REMARK  status: ('A' for Active; 'I' for Inactive)
REMARK    1  A    between atoms: C_10  and  N_12
REMARK    2  A    between atoms: N_15  and  C_16
REMARK    3  A    between atoms: N_15  and  C_24
REMARK    4  A    between atoms: C_16  and  C_17
REMARK    5  A    between atoms: C_21  and  O_23
REMARK                            x       y       z     vdW  Elec       q    Type
REMARK                         _______ _______ _______ _____ _____    ______ ____
ROOT
ATOM      1  N   UNL     1       4.556   0.094   0.847  0.00  0.00    -0.292 N 
ATOM      2  C   UNL     1       5.215   1.210   0.476  0.00  0.00    +0.303 C 
ATOM      3  O   UNL     1       4.980   1.725  -0.601  0.00  0.00    -0.253 OA
ATOM      4  N   UNL     1       6.133   1.756   1.298  0.00  0.00    -0.278 N 
ATOM      5  H   UNL     1       4.799  -0.361   1.668  0.00  0.00    +0.151 HD
ENDROOT
BRANCH   1  15
ATOM      6  C   UNL     1      -0.110   1.685   0.998  0.00  0.00    +0.000 A 
ATOM      7  C   UNL     1       1.097   2.350   0.891  0.00  0.00    +0.000 A 
ATOM      8  C   UNL     1       2.241   1.646   0.573  0.00  0.00    +0.006 A 
ATOM      9  C   UNL     1       2.189   0.274   0.362  0.00  0.00    -0.024 A 
ATOM     10  C   UNL     1       0.988  -0.389   0.474  0.00  0.00    -0.042 A 
ATOM     11  C   UNL     1      -0.163   0.323   0.790  0.00  0.00    +0.004 A 
ATOM     12  C   UNL     1       0.861  -1.876   0.274  0.00  0.00    +0.035 C 
ATOM     13  C   UNL     1       2.076  -2.424  -0.470  0.00  0.00    +0.007 C 
ATOM     14  C   UNL     1       3.342  -1.934   0.242  0.00  0.00    +0.027 C 
ATOM     15  C   UNL     1       3.474  -0.430   0.011  0.00  0.00    +0.105 C 
ENDBRANCH   1  15
BRANCH   4  16
ATOM     16  C   UNL     1       6.495   1.078   2.545  0.00  0.00    +0.078 C 
ATOM     17  C   UNL     1       7.467   1.796   3.483  0.00  0.00    +0.024 C 
ATOM     18  C   UNL     1       7.934   0.578   2.684  0.00  0.00    +0.024 C 
ENDBRANCH   4  16
BRANCH   4  19
ATOM     19  C   UNL     1       6.769   3.027   0.944  0.00  0.00    +0.144 C 
BRANCH  19  20
ATOM     20  C   UNL     1       5.916   4.169   1.433  0.00  0.00    -0.027 A 
ATOM     21  C   UNL     1       4.872   4.635   0.655  0.00  0.00    +0.005 A 
ATOM     22  C   UNL     1       4.088   5.682   1.102  0.00  0.00    +0.004 A 
ATOM     23  C   UNL     1       4.346   6.267   2.327  0.00  0.00    +0.045 A 
ATOM     24  C   UNL     1       5.393   5.801   3.109  0.00  0.00    +0.117 A 
ATOM     25  C   UNL     1       6.175   4.746   2.662  0.00  0.00    +0.050 A 
BRANCH  24  26
ATOM     26  O   UNL     1       5.649   6.375   4.315  0.00  0.00    -0.507 OA
ATOM     27  H   UNL     1       5.176   5.966   5.053  0.00  0.00    +0.292 HD
ENDBRANCH  24  26
ENDBRANCH  19  20
ENDBRANCH   4  19
TORSDOF 5
