REMARK  Name = ZINC39469688
REMARK  6 active torsions:
REMARK  status: ('A' for Active; 'I' for Inactive)
REMARK    1  A    between atoms: C_1  and  S_2
REMARK    2  A    between atoms: S_2  and  C_3
REMARK    3  A    between atoms: P_12  and  S_22
REMARK    4  A    between atoms: C_20  and  O_21
REMARK    5  A    between atoms: S_22  and  O_25
REMARK    6  A    between atoms: O_25  and  C_26
REMARK                            x       y       z     vdW  Elec       q    Type
REMARK                         _______ _______ _______ _____ _____    ______ ____
ROOT
ATOM      1  C   UNL     1       0.848  -0.411  -1.489  0.00  0.00    +0.045 C 
ATOM      2  C   UNL     1       1.299   0.558  -2.294  0.00  0.00    -0.005 C 
ATOM      3  C   UNL     1       2.030   0.199  -3.560  0.00  0.00    +0.017 C 
ATOM      4  C   UNL     1       2.949   1.337  -3.982  0.00  0.00    -0.003 C 
ATOM      5  C   UNL     1       4.127   0.818  -4.817  0.00  0.00    -0.020 C 
ATOM      6  C   UNL     1       4.516   1.976  -5.748  0.00  0.00    +0.158 C 
ATOM      7  O   UNL     1       5.639   1.607  -6.564  0.00  0.00    -0.301 OA
ATOM      8  P   UNL     1       5.542   0.199  -7.374  0.00  0.00    +0.431 P 
ATOM      9  O   UNL     1       6.894  -0.283  -7.734  0.00  0.00    -0.246 OA
ATOM     10  N   UNL     1       4.822  -0.845  -6.321  0.00  0.00    -0.271 NA
ATOM     11  N   UNL     1       3.764  -0.380  -5.565  0.00  0.00    +0.398 N 
ATOM     12  C   UNL     1       3.440  -1.512  -4.684  0.00  0.00    -0.046 C 
ATOM     13  C   UNL     1       2.877  -1.051  -3.332  0.00  0.00    +0.008 C 
ATOM     14  C   UNL     1       2.028  -2.138  -2.729  0.00  0.00    +0.022 C 
ATOM     15  C   UNL     1       1.071  -1.826  -1.857  0.00  0.00    +0.126 C 
ATOM     16  H   UNL     1       5.131  -1.761  -6.243  0.00  0.00    +0.113 HD
ATOM     17  H   UNL     1       2.975  -0.179  -6.160  0.00  0.00    -0.055 HD
ENDROOT
BRANCH   8  18
ATOM     18  S   UNL     1       4.356   0.431  -9.116  0.00  0.00    +0.209 S 
ATOM     19  O   UNL     1       4.442  -0.793  -9.832  0.00  0.00    -0.126 OA
ATOM     20  O   UNL     1       3.115   0.980  -8.693  0.00  0.00    -0.126 OA
BRANCH  18  21
ATOM     21  O   UNL     1       5.028   1.489  -9.980  0.00  0.00    -0.339 OA
BRANCH  21  22
ATOM     22  C   UNL     1       6.143   1.051 -10.623  0.00  0.00    +0.157 A 
ATOM     23  C   UNL     1       7.384   1.160 -10.013  0.00  0.00    +0.048 A 
ATOM     24  C   UNL     1       8.515   0.714 -10.668  0.00  0.00    +0.004 A 
ATOM     25  C   UNL     1       8.412   0.160 -11.930  0.00  0.00    +0.000 A 
ATOM     26  C   UNL     1       7.176   0.051 -12.540  0.00  0.00    +0.004 A 
ATOM     27  C   UNL     1       6.040   0.490 -11.887  0.00  0.00    +0.048 A 
ENDBRANCH  21  22
ENDBRANCH  18  21
ENDBRANCH   8  18
BRANCH   1  29
ATOM     28  C   UNL     1      -0.022   1.810   0.012  0.00  0.00    +0.090 C 
ATOM     29  S   UNL     1       0.002  -0.004   0.002  0.00  0.00    -0.125 S 
ENDBRANCH   1  29
BRANCH  15  30
ATOM     30  O   UNL     1       0.300  -2.804  -1.313  0.00  0.00    -0.506 OA
ATOM     31  H   UNL     1      -0.369  -2.479  -0.695  0.00  0.00    +0.292 HD
ENDBRANCH  15  30
TORSDOF 5
