REMARK  Name = ZINC49236344
REMARK  4 active torsions:
REMARK  status: ('A' for Active; 'I' for Inactive)
REMARK    1  A    between atoms: C_1  and  C_2
REMARK    2  A    between atoms: C_2  and  C_4
REMARK    3  A    between atoms: C_2  and  N_10
REMARK    4  A    between atoms: C_4  and  N_5
REMARK                            x       y       z     vdW  Elec       q    Type
REMARK                         _______ _______ _______ _____ _____    ______ ____
ROOT
ATOM      1  N   UNL     1       0.711  -0.489   1.189  0.00  0.00    -0.307 N 
ATOM      2  C   UNL     1       0.190  -1.306   2.180  0.00  0.00    +0.070 A 
ATOM      3  C   UNL     1      -1.047  -1.895   2.389  0.00  0.00    +0.029 A 
ATOM      4  C   UNL     1      -1.257  -2.676   3.506  0.00  0.00    +0.017 A 
ATOM      5  C   UNL     1      -0.236  -2.877   4.425  0.00  0.00    +0.020 A 
ATOM      6  C   UNL     1       1.000  -2.299   4.233  0.00  0.00    +0.045 A 
ATOM      7  C   UNL     1       1.228  -1.506   3.106  0.00  0.00    +0.092 A 
ATOM      8  N   UNL     1       2.308  -0.819   2.650  0.00  0.00    -0.215 NA
ATOM      9  C   UNL     1       2.008  -0.226   1.522  0.00  0.00    +0.194 A 
ATOM     10  N   UNL     1       2.873   0.553   0.782  0.00  0.00    -0.329 N 
ATOM     11 BR   UNL     1      -0.543  -3.950   5.951  0.00  0.00    -0.050 Br
ATOM     12  H   UNL     1       2.572   0.961  -0.045  0.00  0.00    +0.145 HD
ATOM     13  H   UNL     1       3.783   0.692   1.088  0.00  0.00    +0.145 HD
ENDROOT
BRANCH   1  15
ATOM     14  C   UNL     1      -0.019   1.526   0.010  0.00  0.00    +0.033 C 
ATOM     15  C   UNL     1       0.002  -0.004   0.002  0.00  0.00    +0.107 C 
BRANCH  15  16
ATOM     16  C   UNL     1       0.718  -0.497  -1.257  0.00  0.00    +0.147 C 
BRANCH  16  17
ATOM     17  N   UNL     1      -0.055  -0.114  -2.441  0.00  0.00    -0.335 N 
ATOM     18  C   UNL     1      -1.044  -0.848  -3.038  0.00  0.00    +0.107 A 
ATOM     19  C   UNL     1      -1.484  -0.128  -4.087  0.00  0.00    +0.130 A 
ATOM     20  N   UNL     1      -0.784   1.015  -4.129  0.00  0.00    -0.244 NA
ATOM     21  C   UNL     1       0.071   1.033  -3.143  0.00  0.00    +0.199 A 
ENDBRANCH  16  17
ENDBRANCH  15  16
ENDBRANCH   1  15
TORSDOF 3
