REMARK  Name = ZINC18935580
REMARK  7 active torsions:
REMARK  status: ('A' for Active; 'I' for Inactive)
REMARK    1  A    between atoms: C_1  and  C_2
REMARK    2  A    between atoms: C_2  and  C_4
REMARK    3  A    between atoms: C_2  and  N_17
REMARK    4  A    between atoms: N_6  and  C_7
REMARK    5  A    between atoms: C_10  and  N_14
REMARK    6  A    between atoms: N_20  and  C_23
REMARK    7  A    between atoms: C_23  and  C_24
REMARK                            x       y       z     vdW  Elec       q    Type
REMARK                         _______ _______ _______ _____ _____    ______ ____
ROOT
ATOM      1  C   UNL     1      -0.121   1.538   0.247  0.00  0.00    -0.004 C 
ATOM      2  C   UNL     1      -0.028   0.026   0.029  0.00  0.00    +0.017 C 
ENDROOT
BRANCH   2   3
ATOM      3  N   UNL     1       0.566  -0.603   1.216  0.00  0.00    +0.389 N 
ATOM      4  C   UNL     1      -0.198  -0.216   2.410  0.00  0.00    -0.062 C 
ATOM      5  C   UNL     1       0.432  -0.857   3.649  0.00  0.00    +0.066 C 
ATOM      6  N   UNL     1       0.428  -2.318   3.496  0.00  0.00    -0.301 NA
ATOM      7  C   UNL     1       1.168  -2.720   2.292  0.00  0.00    +0.066 C 
ATOM      8  C   UNL     1       0.532  -2.064   1.064  0.00  0.00    -0.062 C 
ATOM      9  H   UNL     1       1.522  -0.297   1.316  0.00  0.00    -0.081 HD
BRANCH   6  10
ATOM     10  C   UNL     1       0.975  -2.974   4.692  0.00  0.00    +0.126 C 
BRANCH  10  11
ATOM     11  C   UNL     1       0.732  -4.458   4.607  0.00  0.00    +0.005 A 
ATOM     12  C   UNL     1       1.520  -5.423   4.074  0.00  0.00    +0.014 A 
ATOM     13  C   UNL     1       1.089  -6.736   4.107  0.00  0.00    +0.028 A 
ATOM     14  C   UNL     1      -0.111  -7.020   4.672  0.00  0.00    +0.078 A 
ATOM     15  S   UNL     1      -0.667  -5.404   5.188  0.00  0.00    -0.080 S 
ATOM     16 CL   UNL     1      -0.898  -8.556   4.854  0.00  0.00    -0.076 Cl
ENDBRANCH  10  11
ENDBRANCH   6  10
ENDBRANCH   2   3
BRANCH   2  17
ATOM     17  C   UNL     1       0.834  -0.256  -1.174  0.00  0.00    +0.203 C 
ATOM     18  O   UNL     1       1.952  -0.702  -1.027  0.00  0.00    -0.277 OA
ATOM     19  N   UNL     1       0.362  -0.013  -2.413  0.00  0.00    -0.286 N 
ATOM     20  H   UNL     1      -0.501   0.414  -2.528  0.00  0.00    +0.155 HD
BRANCH  19  21
ATOM     21  C   UNL     1       1.119  -0.375  -3.533  0.00  0.00    +0.052 A 
ATOM     22  C   UNL     1       2.505  -0.311  -3.487  0.00  0.00    +0.027 A 
ATOM     23  C   UNL     1       3.249  -0.670  -4.594  0.00  0.00    +0.034 A 
ATOM     24  C   UNL     1       2.615  -1.092  -5.748  0.00  0.00    +0.128 A 
ATOM     25  C   UNL     1       1.235  -1.157  -5.799  0.00  0.00    +0.054 A 
ATOM     26  C   UNL     1       0.484  -0.804  -4.693  0.00  0.00    +0.064 A 
ATOM     27 CL   UNL     1      -1.248  -0.892  -4.754  0.00  0.00    -0.082 Cl
BRANCH  24  28
ATOM     28  N   UNL     1       3.416  -1.475  -6.933  0.00  0.00    +0.056 N 
ATOM     29  O   UNL     1       4.623  -1.419  -6.891  0.00  0.00    -0.126 OA
ATOM     30  O   UNL     1       2.863  -1.844  -7.943  0.00  0.00    -0.126 OA
ENDBRANCH  24  28
ENDBRANCH  19  21
ENDBRANCH   2  17
TORSDOF 6
