REMARK  Name = ZINC39991950
REMARK  9 active torsions:
REMARK  status: ('A' for Active; 'I' for Inactive)
REMARK    1  A    between atoms: C_1  and  N_2
REMARK    2  A    between atoms: C_3  and  C_5
REMARK    3  A    between atoms: C_9  and  N_10
REMARK    4  A    between atoms: C_11  and  C_13
REMARK    5  A    between atoms: C_13  and  C_24
REMARK    6  A    between atoms: C_14  and  C_15
REMARK    7  A    between atoms: C_18  and  O_23
REMARK    8  A    between atoms: C_19  and  O_21
REMARK    9  A    between atoms: O_21  and  C_22
REMARK                            x       y       z     vdW  Elec       q    Type
REMARK                         _______ _______ _______ _____ _____    ______ ____
ROOT
ATOM      1  N   UNL     1       2.632  -2.321   0.477  0.00  0.00    -0.275 N 
ATOM      2  C   UNL     1       3.559  -3.167   0.968  0.00  0.00    +0.259 C 
ATOM      3  O   UNL     1       3.312  -4.354   1.060  0.00  0.00    -0.269 OA
ATOM      4  H   UNL     1       2.829  -1.374   0.404  0.00  0.00    +0.156 HD
ENDROOT
BRANCH   1   9
ATOM      5  C   UNL     1       0.331  -2.089  -0.448  0.00  0.00    +0.069 A 
ATOM      6  C   UNL     1      -0.863  -2.838  -0.798  0.00  0.00    -0.023 A 
ATOM      7  C   UNL     1      -0.774  -4.164  -0.555  0.00  0.00    -0.004 A 
ATOM      8  S   UNL     1       0.847  -4.390   0.116  0.00  0.00    -0.077 S 
ATOM      9  C   UNL     1       1.397  -2.804   0.076  0.00  0.00    +0.085 A 
ATOM     10  C   UNL     1      -1.830  -5.196  -0.804  0.00  0.00    +0.043 C 
ATOM     11  C   UNL     1      -3.167  -4.475  -1.028  0.00  0.00    +0.005 C 
ATOM     12  C   UNL     1      -2.955  -3.338  -2.032  0.00  0.00    +0.005 C 
ATOM     13  C   UNL     1      -2.123  -2.225  -1.390  0.00  0.00    +0.037 C 
BRANCH   5  16
ATOM     14  C   UNL     1       0.105   1.647   0.141  0.00  0.00    +0.128 C 
ATOM     15  N   UNL     1       0.027   0.198   0.339  0.00  0.00    -0.314 N 
ATOM     16  C   UNL     1       0.409  -0.639  -0.647  0.00  0.00    +0.246 C 
ATOM     17  O   UNL     1       0.817  -0.190  -1.702  0.00  0.00    -0.270 OA
ATOM     18  H   UNL     1      -0.298  -0.160   1.180  0.00  0.00    +0.149 HD
ENDBRANCH   5  16
ENDBRANCH   1   9
BRANCH   2  19
ATOM     19  C   UNL     1       4.870  -2.654   1.394  0.00  0.00    +0.114 C 
ATOM     20  C   UNL     1       5.818  -3.519   1.897  0.00  0.00    +0.032 C 
BRANCH  20  21
ATOM     21  C   UNL     1       7.056  -2.992   2.475  0.00  0.00    -0.020 A 
ATOM     22  C   UNL     1       7.045  -1.777   3.175  0.00  0.00    +0.012 A 
ATOM     23  C   UNL     1       8.210  -1.286   3.718  0.00  0.00    +0.050 A 
ATOM     24  C   UNL     1       9.399  -1.990   3.574  0.00  0.00    +0.158 A 
ATOM     25  C   UNL     1       9.420  -3.199   2.879  0.00  0.00    +0.162 A 
ATOM     26  C   UNL     1       8.257  -3.704   2.336  0.00  0.00    +0.057 A 
BRANCH  25  27
ATOM     27  O   UNL     1      10.587  -3.884   2.740  0.00  0.00    -0.491 OA
ATOM     28  C   UNL     1      10.536  -5.114   2.016  0.00  0.00    +0.277 C 
ENDBRANCH  25  27
BRANCH  24  29
ATOM     29  O   UNL     1      10.545  -1.499   4.112  0.00  0.00    -0.503 OA
ATOM     30  H   UNL     1      10.711  -1.791   5.019  0.00  0.00    +0.292 HD
ENDBRANCH  24  29
ENDBRANCH  20  21
BRANCH  19  31
ATOM     31  C   UNL     1       5.161  -1.256   1.287  0.00  0.00    +0.104 C 
ATOM     32  N   UNL     1       5.392  -0.147   1.202  0.00  0.00    -0.191 NA
ENDBRANCH  19  31
ENDBRANCH   2  19
TORSDOF 7
