REMARK  Name = ZINC52983686
REMARK  4 active torsions:
REMARK  status: ('A' for Active; 'I' for Inactive)
REMARK    1  A    between atoms: C_1  and  C_2
REMARK    2  A    between atoms: C_5  and  N_11
REMARK    3  A    between atoms: C_6  and  C_8
REMARK    4  A    between atoms: N_11  and  C_12
REMARK                            x       y       z     vdW  Elec       q    Type
REMARK                         _______ _______ _______ _____ _____    ______ ____
ROOT
ATOM      1  N   UNL     1       0.210  -4.163   0.028  0.00  0.00    -0.342 N 
ATOM      2  H   UNL     1       0.292  -4.630   0.874  0.00  0.00    +0.146 HD
ENDROOT
BRANCH   1   3
ATOM      3  C   UNL     1       0.185  -4.919  -1.226  0.00  0.00    +0.055 C 
ATOM      4  C   UNL     1      -1.266  -5.258  -1.624  0.00  0.00    +0.002 C 
ATOM      5  C   UNL     1      -1.172  -6.641  -2.290  0.00  0.00    -0.077 C 
ATOM      6  N   UNL     1       0.104  -7.246  -1.887  0.00  0.00    +0.383 N 
ATOM      7  C   UNL     1       0.857  -6.293  -1.042  0.00  0.00    -0.048 C 
ATOM      8  C   UNL     1       0.613  -6.765   0.413  0.00  0.00    -0.015 C 
ATOM      9  C   UNL     1       0.558  -8.306   0.248  0.00  0.00    -0.020 C 
ATOM     10  C   UNL     1      -0.132  -8.483  -1.125  0.00  0.00    -0.078 C 
ATOM     11  H   UNL     1       0.652  -7.454  -2.708  0.00  0.00    -0.081 HD
ENDBRANCH   1   3
BRANCH   1  16
ATOM     12  C   UNL     1      -0.179   1.496  -0.079  0.00  0.00    +0.044 C 
ATOM     13  C   UNL     1      -0.074  -0.007  -0.041  0.00  0.00    -0.050 A 
ATOM     14  C   UNL     1      -0.216  -0.738  -1.210  0.00  0.00    +0.005 A 
ATOM     15  C   UNL     1      -0.123  -2.114  -1.191  0.00  0.00    +0.024 A 
ATOM     16  C   UNL     1       0.116  -2.779   0.006  0.00  0.00    +0.042 A 
ATOM     17  C   UNL     1       0.261  -2.042   1.193  0.00  0.00    +0.084 A 
ATOM     18  C   UNL     1       0.169  -0.646   1.154  0.00  0.00    +0.020 A 
BRANCH  17  19
ATOM     19  C   UNL     1       0.514  -2.732   2.467  0.00  0.00    +0.388 C 
ATOM     20  O   UNL     1      -0.181  -2.487   3.444  0.00  0.00    -0.241 OA
ATOM     21  O   UNL     1       1.419  -3.550   2.550  0.00  0.00    -0.241 OA
ENDBRANCH  17  19
ENDBRANCH   1  16
TORSDOF 3
