REMARK  Name = ZINC35493021
REMARK  6 active torsions:
REMARK  status: ('A' for Active; 'I' for Inactive)
REMARK    1  A    between atoms: C_1  and  C_2
REMARK    2  A    between atoms: C_2  and  C_3
REMARK    3  A    between atoms: C_3  and  C_5
REMARK    4  A    between atoms: C_3  and  N_6
REMARK    5  A    between atoms: C_12  and  C_19
REMARK    6  A    between atoms: N_17  and  C_18
REMARK                            x       y       z     vdW  Elec       q    Type
REMARK                         _______ _______ _______ _____ _____    ______ ____
ROOT
ATOM      1  N   UNL     1      -2.105  -0.148  -1.230  0.00  0.00    -0.289 N 
ATOM      2  C   UNL     1      -3.313   0.683  -1.348  0.00  0.00    +0.159 C 
ATOM      3  C   UNL     1      -3.580   0.772  -2.834  0.00  0.00    +0.042 C 
ATOM      4  C   UNL     1      -2.609   0.058  -3.438  0.00  0.00    +0.058 C 
ATOM      5  C   UNL     1      -1.730  -0.484  -2.478  0.00  0.00    +0.247 C 
ATOM      6  O   UNL     1      -0.759  -1.170  -2.743  0.00  0.00    -0.270 OA
ATOM      7  C   UNL     1      -2.632  -0.025  -4.951  0.00  0.00    +0.142 C 
ATOM      8  N   UNL     1      -3.721   0.687  -5.641  0.00  0.00    -0.288 N 
ATOM      9  C   UNL     1      -4.621   1.361  -4.896  0.00  0.00    +0.307 C 
ATOM     10  O   UNL     1      -5.524   1.951  -5.457  0.00  0.00    -0.252 OA
ATOM     11  N   UNL     1      -4.552   1.400  -3.559  0.00  0.00    -0.260 N 
ATOM     12  C   UNL     1      -5.576   2.158  -2.835  0.00  0.00    +0.139 C 
ATOM     13  H   UNL     1      -3.790   0.671  -6.608  0.00  0.00    +0.151 HD
ENDROOT
BRANCH   7  14
ATOM     14  C   UNL     1      -2.712  -1.480  -5.335  0.00  0.00    -0.021 A 
ATOM     15  C   UNL     1      -3.927  -2.138  -5.301  0.00  0.00    +0.007 A 
ATOM     16  C   UNL     1      -4.002  -3.472  -5.653  0.00  0.00    +0.022 A 
ATOM     17  C   UNL     1      -2.860  -4.150  -6.041  0.00  0.00    +0.059 A 
ATOM     18  C   UNL     1      -1.643  -3.491  -6.075  0.00  0.00    +0.060 A 
ATOM     19  C   UNL     1      -1.571  -2.154  -5.728  0.00  0.00    +0.027 A 
ATOM     20 CL   UNL     1      -0.208  -4.340  -6.561  0.00  0.00    -0.082 Cl
ATOM     21 CL   UNL     1      -2.952  -5.826  -6.482  0.00  0.00    -0.082 Cl
ENDBRANCH   7  14
BRANCH   1  22
ATOM     22  C   UNL     1      -1.433  -0.534   0.013  0.00  0.00    +0.073 C 
ATOM     23  C   UNL     1      -1.413  -2.059   0.130  0.00  0.00    +0.028 C 
BRANCH  22  25
ATOM     24  C   UNL     1      -0.019   1.526   0.010  0.00  0.00    +0.005 C 
ATOM     25  C   UNL     1       0.002  -0.004   0.002  0.00  0.00    +0.019 C 
ENDBRANCH  22  25
ENDBRANCH   1  22
TORSDOF 3
