REMARK  Name = ZINC12285383
REMARK  12 active torsions:
REMARK  status: ('A' for Active; 'I' for Inactive)
REMARK    1  A    between atoms: C_1  and  C_2
REMARK    2  A    between atoms: C_2  and  O_3
REMARK    3  A    between atoms: O_3  and  C_4
REMARK    4  A    between atoms: C_6  and  C_22
REMARK    5  A    between atoms: C_9  and  O_10
REMARK    6  A    between atoms: O_10  and  C_11
REMARK    7  A    between atoms: C_11  and  C_12
REMARK    8  A    between atoms: C_12  and  O_13
REMARK    9  A    between atoms: O_13  and  C_14
REMARK   10  A    between atoms: C_18  and  O_20
REMARK   11  A    between atoms: O_20  and  C_21
REMARK   12  A    between atoms: C_32  and  C_34
REMARK                            x       y       z     vdW  Elec       q    Type
REMARK                         _______ _______ _______ _____ _____    ______ ____
ROOT
ATOM      1  C   UNL     1      -1.292  -1.813  -0.264  0.00  0.00    +0.162 A 
ATOM      2  C   UNL     1      -0.215  -2.671  -0.346  0.00  0.00    +0.057 A 
ATOM      3  C   UNL     1      -0.394  -4.040  -0.101  0.00  0.00    -0.021 A 
ATOM      4  C   UNL     1      -1.667  -4.528   0.226  0.00  0.00    +0.012 A 
ATOM      5  C   UNL     1      -2.735  -3.664   0.305  0.00  0.00    +0.050 A 
ATOM      6  C   UNL     1      -2.555  -2.307   0.067  0.00  0.00    +0.162 A 
ENDROOT
BRANCH   3   7
ATOM      7  C   UNL     1       0.745  -4.957  -0.186  0.00  0.00    +0.024 C 
ATOM      8  C   UNL     1       0.557  -6.250  -0.619  0.00  0.00    +0.081 C 
ATOM      9  C   UNL     1      -0.745  -6.708  -1.183  0.00  0.00    +0.152 C 
ATOM     10  N   UNL     1      -1.538  -5.935  -1.875  0.00  0.00    -0.283 NA
ATOM     11  N   UNL     1      -1.035  -8.059  -0.896  0.00  0.00    -0.152 N 
ATOM     12  C   UNL     1       0.026  -8.892  -0.614  0.00  0.00    +0.181 C 
ATOM     13  N   UNL     1       1.287  -8.563  -0.483  0.00  0.00    -0.152 NA
ATOM     14  C   UNL     1       1.641  -7.262  -0.555  0.00  0.00    +0.273 C 
ATOM     15  O   UNL     1       2.814  -6.927  -0.564  0.00  0.00    -0.268 OA
ATOM     16  S   UNL     1      -0.770 -10.469  -0.461  0.00  0.00    -0.038 S 
ATOM     17  C   UNL     1      -2.452  -9.905  -0.679  0.00  0.00    +0.097 C 
ATOM     18  N   UNL     1      -2.290  -8.629  -0.884  0.00  0.00    -0.170 NA
ATOM     19  C   UNL     1      -3.730 -10.701  -0.635  0.00  0.00    +0.075 C 
ATOM     20  H   UNL     1      -2.375  -6.283  -2.220  0.00  0.00    +0.188 HD
ENDBRANCH   3   7
BRANCH   1  21
ATOM     21  O   UNL     1      -1.122  -0.485  -0.501  0.00  0.00    -0.489 OA
BRANCH  21  23
ATOM     22  C   UNL     1       0.191   1.464  -1.064  0.00  0.00    +0.048 C 
ATOM     23  C   UNL     1       0.197  -0.049  -0.835  0.00  0.00    +0.226 C 
ENDBRANCH  21  23
ENDBRANCH   1  21
BRANCH   6  24
ATOM     24  O   UNL     1      -3.611  -1.459   0.151  0.00  0.00    -0.485 OA
BRANCH  24  25
ATOM     25  C   UNL     1      -4.876  -2.030   0.494  0.00  0.00    +0.270 C 
BRANCH  25  26
ATOM     26  C   UNL     1      -5.937  -0.929   0.542  0.00  0.00    +0.270 C 
BRANCH  26  27
ATOM     27  O   UNL     1      -6.112  -0.380  -0.766  0.00  0.00    -0.488 OA
BRANCH  27  28
ATOM     28  C   UNL     1      -7.026   0.617  -0.899  0.00  0.00    +0.124 A 
ATOM     29  C   UNL     1      -7.736   1.062   0.208  0.00  0.00    +0.046 A 
ATOM     30  C   UNL     1      -8.665   2.075   0.073  0.00  0.00    +0.007 A 
ATOM     31  C   UNL     1      -8.891   2.648  -1.164  0.00  0.00    +0.046 A 
ATOM     32  C   UNL     1      -8.185   2.207  -2.273  0.00  0.00    +0.124 A 
ATOM     33  C   UNL     1      -7.247   1.194  -2.140  0.00  0.00    +0.091 A 
BRANCH  32  34
ATOM     34  O   UNL     1      -8.408   2.771  -3.490  0.00  0.00    -0.495 OA
ATOM     35  C   UNL     1      -9.384   3.813  -3.552  0.00  0.00    +0.277 C 
ENDBRANCH  32  34
ENDBRANCH  27  28
ENDBRANCH  26  27
ENDBRANCH  25  26
ENDBRANCH  24  25
ENDBRANCH   6  24
TORSDOF 9
