REMARK  Name = ZINC09192435
REMARK  4 active torsions:
REMARK  status: ('A' for Active; 'I' for Inactive)
REMARK    1  A    between atoms: C_1  and  C_2
REMARK    2  A    between atoms: C_3  and  N_9
REMARK    3  A    between atoms: C_10  and  C_12
REMARK    4  A    between atoms: N_20  and  C_21
REMARK                            x       y       z     vdW  Elec       q    Type
REMARK                         _______ _______ _______ _____ _____    ______ ____
ROOT
ATOM      1  C   UNL     1       0.212  -0.120   0.106  0.00  0.00    +0.168 C 
ATOM      2  C   UNL     1       0.214   1.410   0.223  0.00  0.00    +0.129 C 
ATOM      3  C   UNL     1       1.601   1.920  -0.076  0.00  0.00    +0.241 C 
ATOM      4  O   UNL     1       1.969   2.967   0.418  0.00  0.00    -0.274 OA
ATOM      5  N   UNL     1       2.427   1.249  -0.866  0.00  0.00    -0.151 NA
ATOM      6  C   UNL     1       2.100   0.090  -1.414  0.00  0.00    +0.177 C 
ATOM      7  N   UNL     1       0.880  -0.471  -1.159  0.00  0.00    -0.307 N 
ATOM      8  N   UNL     1       2.982  -0.547  -2.236  0.00  0.00    -0.289 N 
ATOM      9  H   UNL     1       0.467  -1.080  -1.791  0.00  0.00    +0.149 HD
ATOM     10  H   UNL     1       2.776  -1.431  -2.578  0.00  0.00    +0.155 HD
ENDROOT
BRANCH   8  11
ATOM     11  C   UNL     1       4.185   0.075  -2.587  0.00  0.00    +0.033 A 
ATOM     12  C   UNL     1       4.236   1.454  -2.741  0.00  0.00    +0.023 A 
ATOM     13  C   UNL     1       5.426   2.066  -3.083  0.00  0.00    +0.002 A 
ATOM     14  C   UNL     1       6.564   1.305  -3.283  0.00  0.00    +0.000 A 
ATOM     15  C   UNL     1       6.515  -0.069  -3.136  0.00  0.00    +0.002 A 
ATOM     16  C   UNL     1       5.329  -0.686  -2.789  0.00  0.00    +0.023 A 
ENDBRANCH   8  11
BRANCH   1  18
ATOM     17  N   UNL     1       0.363  -0.851   2.465  0.00  0.00    -0.284 N 
ATOM     18  C   UNL     1       0.965  -0.722   1.265  0.00  0.00    +0.238 C 
ATOM     19  O   UNL     1       2.111  -1.091   1.118  0.00  0.00    -0.273 OA
ATOM     20  H   UNL     1      -0.573  -0.621   2.565  0.00  0.00    +0.155 HD
BRANCH  17  23
ATOM     21  C   UNL     1      -0.297   0.164   5.040  0.00  0.00    +0.047 C 
ATOM     22  C   UNL     1       0.802  -0.848   4.840  0.00  0.00    -0.011 A 
ATOM     23  C   UNL     1       1.091  -1.317   3.565  0.00  0.00    +0.038 A 
ATOM     24  C   UNL     1       2.108  -2.246   3.384  0.00  0.00    +0.023 A 
ATOM     25  C   UNL     1       2.825  -2.704   4.472  0.00  0.00    +0.003 A 
ATOM     26  C   UNL     1       2.531  -2.240   5.741  0.00  0.00    +0.020 A 
ATOM     27  C   UNL     1       1.519  -1.314   5.925  0.00  0.00    +0.046 A 
ATOM     28 CL   UNL     1       1.154  -0.734   7.520  0.00  0.00    -0.083 Cl
ENDBRANCH  17  23
ENDBRANCH   1  18
TORSDOF 3
