REMARK  Name = ZINC16385879
REMARK  5 active torsions:
REMARK  status: ('A' for Active; 'I' for Inactive)
REMARK    1  A    between atoms: C_3  and  S_13
REMARK    2  A    between atoms: C_4  and  N_10
REMARK    3  A    between atoms: C_6  and  N_7
REMARK    4  A    between atoms: S_13  and  C_14
REMARK    5  A    between atoms: C_18  and  N_20
REMARK                            x       y       z     vdW  Elec       q    Type
REMARK                         _______ _______ _______ _____ _____    ______ ____
ROOT
ATOM      1  S   UNL     1      -1.510  -0.908   0.011  0.00  0.00    -0.048 S 
ENDROOT
BRANCH   1   2
ATOM      2  C   UNL     1      -1.634  -1.314  -1.699  0.00  0.00    +0.196 A 
ATOM      3  N   UNL     1      -0.640  -0.990  -2.513  0.00  0.00    -0.207 NA
ATOM      4  C   UNL     1      -0.697  -1.286  -3.809  0.00  0.00    +0.122 A 
ATOM      5  C   UNL     1      -1.823  -1.934  -4.308  0.00  0.00    +0.086 A 
ATOM      6  C   UNL     1      -2.850  -2.253  -3.423  0.00  0.00    +0.122 A 
ATOM      7  N   UNL     1      -2.721  -1.931  -2.139  0.00  0.00    -0.207 NA
ATOM      8  N   UNL     1       0.350  -0.949  -4.653  0.00  0.00    -0.343 N 
ATOM      9  H   UNL     1       0.301  -1.165  -5.597  0.00  0.00    +0.144 HD
ATOM     10  H   UNL     1       1.132  -0.497  -4.298  0.00  0.00    +0.144 HD
BRANCH   6  11
ATOM     11  N   UNL     1      -3.990  -2.899  -3.875  0.00  0.00    -0.343 N 
ATOM     12  H   UNL     1      -4.701  -3.119  -3.253  0.00  0.00    +0.144 HD
ATOM     13  H   UNL     1      -4.077  -3.131  -4.813  0.00  0.00    +0.144 HD
ENDBRANCH   6  11
ENDBRANCH   1   2
BRANCH   1  16
ATOM     14  C   UNL     1       1.643   1.585   0.147  0.00  0.00    +0.034 A 
ATOM     15  C   UNL     1       0.352   1.094   0.112  0.00  0.00    +0.019 A 
ATOM     16  C   UNL     1       0.134  -0.277   0.057  0.00  0.00    +0.046 A 
ATOM     17  C   UNL     1       1.215  -1.149   0.039  0.00  0.00    +0.142 A 
ATOM     18  C   UNL     1       2.503  -0.651   0.075  0.00  0.00    +0.066 A 
ATOM     19  C   UNL     1       2.716   0.714   0.129  0.00  0.00    +0.128 A 
BRANCH  19  20
ATOM     20  N   UNL     1       4.098   1.244   0.167  0.00  0.00    +0.056 N 
ATOM     21  O   UNL     1       5.045   0.479   0.151  0.00  0.00    -0.126 OA
ATOM     22  O   UNL     1       4.288   2.447   0.215  0.00  0.00    -0.126 OA
ENDBRANCH  19  20
BRANCH  17  23
ATOM     23  N   UNL     1       0.988  -2.611  -0.018  0.00  0.00    +0.058 N 
ATOM     24  O   UNL     1       1.936  -3.375  -0.034  0.00  0.00    -0.126 OA
ATOM     25  O   UNL     1      -0.148  -3.049  -0.050  0.00  0.00    -0.126 OA
ENDBRANCH  17  23
ENDBRANCH   1  16
TORSDOF 5
