REMARK  Name = ZINC42613373
REMARK  6 active torsions:
REMARK  status: ('A' for Active; 'I' for Inactive)
REMARK    1  A    between atoms: C_1  and  C_2
REMARK    2  A    between atoms: C_8  and  N_10
REMARK    3  A    between atoms: N_10  and  C_11
REMARK    4  A    between atoms: N_10  and  C_12
REMARK    5  A    between atoms: C_15  and  N_21
REMARK    6  A    between atoms: C_16  and  C_18
REMARK                            x       y       z     vdW  Elec       q    Type
REMARK                         _______ _______ _______ _____ _____    ______ ____
ROOT
ATOM      1  C   UNL     1       2.619   0.914   2.173  0.00  0.00    +0.031 A 
ATOM      2  C   UNL     1       1.711   1.162   3.197  0.00  0.00    +0.025 A 
ATOM      3  C   UNL     1       2.044   2.008   4.234  0.00  0.00    +0.025 A 
ATOM      4  C   UNL     1       3.290   2.620   4.262  0.00  0.00    +0.037 A 
ATOM      5  C   UNL     1       4.211   2.375   3.233  0.00  0.00    +0.059 A 
ATOM      6  C   UNL     1       3.867   1.512   2.189  0.00  0.00    +0.038 A 
ENDROOT
BRANCH   5   7
ATOM      7  C   UNL     1       5.536   3.021   3.255  0.00  0.00    +0.243 C 
ATOM      8  O   UNL     1       5.794   3.852   4.104  0.00  0.00    -0.270 OA
ATOM      9  N   UNL     1       6.462   2.689   2.333  0.00  0.00    -0.325 N 
ATOM     10  H   UNL     1       6.257   2.026   1.656  0.00  0.00    +0.145 HD
ATOM     11  H   UNL     1       7.334   3.114   2.348  0.00  0.00    +0.145 HD
ENDBRANCH   5   7
BRANCH   4  12
ATOM     12  N   UNL     1       3.624   3.475   5.309  0.00  0.00    -0.357 N 
ATOM     13  H   UNL     1       3.019   3.583   6.059  0.00  0.00    +0.142 HD
ATOM     14  H   UNL     1       4.462   3.963   5.287  0.00  0.00    +0.142 HD
ENDBRANCH   4  12
BRANCH   1  15
ATOM     15  N   UNL     1       2.272   0.053   1.125  0.00  0.00    -0.330 N 
ATOM     16  C   UNL     1       3.271  -0.317   0.119  0.00  0.00    +0.129 C 
BRANCH  15  23
ATOM     17  C   UNL     1       0.189   1.577  -0.189  0.00  0.00    +0.009 C 
ATOM     18  C   UNL     1       0.240   0.049  -0.236  0.00  0.00    +0.006 C 
ATOM     19  C   UNL     1      -1.183  -0.506  -0.330  0.00  0.00    +0.005 C 
ATOM     20  C   UNL     1      -1.132  -2.035  -0.378  0.00  0.00    +0.000 C 
ATOM     21  C   UNL     1      -0.462  -2.562   0.893  0.00  0.00    +0.002 C 
ATOM     22  C   UNL     1       0.961  -2.007   0.987  0.00  0.00    +0.022 C 
ATOM     23  C   UNL     1       0.910  -0.479   1.034  0.00  0.00    +0.076 C 
ENDBRANCH  15  23
ENDBRANCH   1  15
TORSDOF 4
