REMARK  Name = ZINC43219053
REMARK  5 active torsions:
REMARK  status: ('A' for Active; 'I' for Inactive)
REMARK    1  A    between atoms: C_1  and  C_2
REMARK    2  A    between atoms: C_5  and  N_9
REMARK    3  A    between atoms: C_14  and  C_31
REMARK    4  A    between atoms: C_17  and  C_22
REMARK    5  A    between atoms: C_17  and  C_28
REMARK                            x       y       z     vdW  Elec       q    Type
REMARK                         _______ _______ _______ _____ _____    ______ ____
ROOT
ATOM      1  N   UNL     1       0.418  -4.038   0.679  0.00  0.00    -0.210 N 
ATOM      2  C   UNL     1       0.444  -4.556  -0.592  0.00  0.00    +0.229 C 
ATOM      3  O   UNL     1       0.764  -3.990  -1.615  0.00  0.00    -0.275 OA
ATOM      4  C   UNL     1       0.006  -5.921  -0.443  0.00  0.00    +0.080 C 
ATOM      5  C   UNL     1       0.061  -7.217  -1.142  0.00  0.00    +0.011 C 
ATOM      6  N   UNL     1      -0.465  -8.162  -0.097  0.00  0.00    +0.400 N 
ATOM      7  C   UNL     1      -0.255  -7.529   1.239  0.00  0.00    +0.074 C 
ATOM      8  C   UNL     1       0.627  -6.302   0.960  0.00  0.00    +0.091 C 
ATOM      9  C   UNL     1       0.294  -5.003   1.639  0.00  0.00    +0.229 C 
ATOM     10  O   UNL     1      -0.021  -4.845   2.799  0.00  0.00    -0.275 OA
ATOM     11  H   UNL     1      -1.449  -8.324  -0.248  0.00  0.00    -0.083 HD
ATOM     12  H   UNL     1       0.037  -9.036  -0.144  0.00  0.00    -0.083 HD
ENDROOT
BRANCH   5  13
ATOM     13  C   UNL     1      -0.828  -7.210  -2.359  0.00  0.00    +0.093 A 
ATOM     14  C   UNL     1      -0.405  -7.031  -3.617  0.00  0.00    +0.051 A 
ATOM     15  C   UNL     1      -1.601  -7.100  -4.465  0.00  0.00    +0.020 A 
ATOM     16  C   UNL     1      -1.832  -6.994  -5.836  0.00  0.00    +0.011 A 
ATOM     17  C   UNL     1      -3.106  -7.108  -6.319  0.00  0.00    +0.001 A 
ATOM     18  C   UNL     1      -4.169  -7.329  -5.454  0.00  0.00    +0.004 A 
ATOM     19  C   UNL     1      -3.959  -7.436  -4.096  0.00  0.00    +0.047 A 
ATOM     20  C   UNL     1      -2.673  -7.324  -3.584  0.00  0.00    +0.135 A 
ATOM     21  O   UNL     1      -2.161  -7.387  -2.339  0.00  0.00    -0.461 OA
ENDBRANCH   5  13
BRANCH   1  26
ATOM     22  C   UNL     1       0.805   1.508   1.823  0.00  0.00    +0.045 C 
ATOM     23  C   UNL     1       0.703   0.036   1.520  0.00  0.00    -0.032 A 
ATOM     24  C   UNL     1       0.731  -0.403   0.208  0.00  0.00    +0.006 A 
ATOM     25  C   UNL     1       0.637  -1.752  -0.073  0.00  0.00    +0.024 A 
ATOM     26  C   UNL     1       0.514  -2.669   0.962  0.00  0.00    +0.045 A 
ATOM     27  C   UNL     1       0.485  -2.227   2.278  0.00  0.00    +0.044 A 
ATOM     28  C   UNL     1       0.585  -0.876   2.554  0.00  0.00    +0.046 A 
ATOM     29 CL   UNL     1       0.556  -0.322   4.199  0.00  0.00    -0.083 Cl
ENDBRANCH   1  26
BRANCH   7  30
ATOM     30  C   UNL     1      -1.577  -7.125   1.839  0.00  0.00    -0.047 A 
ATOM     31  C   UNL     1      -1.691  -6.949   3.205  0.00  0.00    +0.003 A 
ATOM     32  C   UNL     1      -2.904  -6.580   3.755  0.00  0.00    +0.000 A 
ATOM     33  C   UNL     1      -4.003  -6.385   2.939  0.00  0.00    +0.000 A 
ATOM     34  C   UNL     1      -3.888  -6.560   1.572  0.00  0.00    +0.000 A 
ATOM     35  C   UNL     1      -2.674  -6.926   1.022  0.00  0.00    +0.003 A 
ENDBRANCH   7  30
BRANCH   7  36
ATOM     36  C   UNL     1       0.469  -8.478   2.158  0.00  0.00    +0.350 C 
ATOM     37  O   UNL     1       0.767  -9.595   1.770  0.00  0.00    -0.248 OA
ATOM     38  O   UNL     1       0.756  -8.130   3.291  0.00  0.00    -0.248 OA
ENDBRANCH   7  36
TORSDOF 4
