REMARK  Name = ZINC41124775
REMARK  6 active torsions:
REMARK  status: ('A' for Active; 'I' for Inactive)
REMARK    1  A    between atoms: C_1  and  C_2
REMARK    2  A    between atoms: C_4  and  O_28
REMARK    3  A    between atoms: C_7  and  N_8
REMARK    4  A    between atoms: N_8  and  S_9
REMARK    5  A    between atoms: S_9  and  C_12
REMARK    6  A    between atoms: N_24  and  C_27
REMARK                            x       y       z     vdW  Elec       q    Type
REMARK                         _______ _______ _______ _____ _____    ______ ____
ROOT
ATOM      1  C   UNL     1       2.500  -0.635   3.446  0.00  0.00    +0.110 A 
ATOM      2  C   UNL     1       3.092  -1.698   2.826  0.00  0.00    +0.037 A 
ATOM      3  C   UNL     1       4.476  -1.687   2.580  0.00  0.00    -0.015 A 
ATOM      4  C   UNL     1       5.133  -2.757   1.946  0.00  0.00    +0.008 A 
ATOM      5  C   UNL     1       6.479  -2.700   1.729  0.00  0.00    +0.001 A 
ATOM      6  C   UNL     1       7.234  -1.601   2.120  0.00  0.00    +0.014 A 
ATOM      7  C   UNL     1       6.625  -0.525   2.748  0.00  0.00    +0.046 A 
ATOM      8  C   UNL     1       5.231  -0.566   2.981  0.00  0.00    +0.006 A 
ATOM      9  C   UNL     1       4.601   0.525   3.621  0.00  0.00    +0.048 A 
ATOM     10  C   UNL     1       3.232   0.478   3.841  0.00  0.00    +0.042 A 
ATOM     11  C   UNL     1       5.422   1.677   4.025  0.00  0.00    +0.254 C 
ATOM     12  O   UNL     1       4.901   2.627   4.577  0.00  0.00    -0.270 OA
ATOM     13  N   UNL     1       6.747   1.684   3.788  0.00  0.00    -0.237 N 
ATOM     14  C   UNL     1       7.379   0.660   3.183  0.00  0.00    +0.253 C 
ATOM     15  O   UNL     1       8.579   0.717   2.993  0.00  0.00    -0.270 OA
ATOM     16  C   UNL     1       7.532   2.849   4.206  0.00  0.00    +0.142 C 
ENDROOT
BRANCH   1  17
ATOM     17  S   UNL     1       0.764  -0.672   3.744  0.00  0.00    +0.072 S 
ATOM     18  O   UNL     1       0.519   0.214   4.827  0.00  0.00    -0.150 OA
ATOM     19  O   UNL     1       0.387  -2.042   3.779  0.00  0.00    -0.150 OA
BRANCH  17  20
ATOM     20  N   UNL     1       0.025  -0.012   2.416  0.00  0.00    -0.216 N 
ATOM     21  H   UNL     1      -0.522   0.783   2.511  0.00  0.00    +0.174 HD
BRANCH  20  28
ATOM     22  C   UNL     1       0.153   1.691   0.143  0.00  0.00    +0.046 C 
ATOM     23  C   UNL     1       0.258   0.192   0.022  0.00  0.00    -0.025 A 
ATOM     24  C   UNL     1       0.426  -0.390  -1.219  0.00  0.00    +0.050 A 
ATOM     25  C   UNL     1       0.522  -1.769  -1.331  0.00  0.00    +0.117 A 
ATOM     26  C   UNL     1       0.450  -2.565  -0.196  0.00  0.00    +0.047 A 
ATOM     27  C   UNL     1       0.281  -1.984   1.045  0.00  0.00    +0.028 A 
ATOM     28  C   UNL     1       0.190  -0.602   1.158  0.00  0.00    +0.051 A 
BRANCH  25  29
ATOM     29  O   UNL     1       0.688  -2.342  -2.553  0.00  0.00    -0.507 OA
ATOM     30  H   UNL     1       1.613  -2.454  -2.813  0.00  0.00    +0.292 HD
ENDBRANCH  25  29
ENDBRANCH  20  28
ENDBRANCH  17  20
ENDBRANCH   1  17
TORSDOF 4
