REMARK  Name = ZINC21240604
REMARK  13 active torsions:
REMARK  status: ('A' for Active; 'I' for Inactive)
REMARK    1  A    between atoms: C_1  and  C_2
REMARK    2  A    between atoms: C_2  and  C_3
REMARK    3  A    between atoms: C_3  and  C_4
REMARK    4  A    between atoms: C_4  and  O_5
REMARK    5  A    between atoms: O_5  and  C_6
REMARK    6  A    between atoms: C_9  and  C_12
REMARK    7  A    between atoms: N_14  and  C_15
REMARK    8  A    between atoms: C_15  and  C_16
REMARK    9  A    between atoms: C_16  and  O_18
REMARK   10  A    between atoms: O_18  and  C_19
REMARK   11  A    between atoms: C_19  and  C_20
REMARK   12  A    between atoms: C_22  and  O_23
REMARK   13  A    between atoms: C_32  and  C_34
REMARK                            x       y       z     vdW  Elec       q    Type
REMARK                         _______ _______ _______ _____ _____    ______ ____
ROOT
ATOM      1  O   UNL     1      -0.431  -8.453   0.094  0.00  0.00    -0.459 OA
ENDROOT
BRANCH   1   2
ATOM      2  C   UNL     1      -0.509  -9.256   1.166  0.00  0.00    +0.325 C 
ATOM      3  O   UNL     1      -0.524  -8.782   2.277  0.00  0.00    -0.249 OA
BRANCH   2   4
ATOM      4  C   UNL     1      -0.577 -10.751   0.984  0.00  0.00    +0.225 C 
BRANCH   4   7
ATOM      5  C   UNL     1      -0.725 -12.743   2.379  0.00  0.00    +0.245 C 
ATOM      6  O   UNL     1      -0.723 -13.416   1.367  0.00  0.00    -0.270 OA
ATOM      7  N   UNL     1      -0.655 -11.399   2.295  0.00  0.00    -0.301 N 
ATOM      8  H   UNL     1      -0.656 -10.790   3.211  0.00  0.00    +0.150 HD
BRANCH   5  12
ATOM      9  C   UNL     1      -0.951 -14.623   6.180  0.00  0.00    +0.121 A 
ATOM     10  C   UNL     1      -0.950 -15.395   5.024  0.00  0.00    +0.046 A 
ATOM     11  C   UNL     1      -0.876 -14.789   3.790  0.00  0.00    +0.016 A 
ATOM     12  C   UNL     1      -0.804 -13.396   3.700  0.00  0.00    +0.037 A 
ATOM     13  C   UNL     1      -0.800 -12.625   4.865  0.00  0.00    +0.016 A 
ATOM     14  C   UNL     1      -0.880 -13.238   6.095  0.00  0.00    +0.046 A 
BRANCH   9  15
ATOM     15  O   UNL     1      -1.023 -15.224   7.395  0.00  0.00    -0.492 OA
BRANCH  15  16
ATOM     16  C   UNL     1      -1.020 -14.372   8.541  0.00  0.00    +0.229 C 
BRANCH  16  17
ATOM     17  C   UNL     1      -1.107 -15.223   9.810  0.00  0.00    +0.041 C 
BRANCH  17  19
ATOM     18  C   UNL     1      -1.190 -15.161  12.306  0.00  0.00    +0.004 C 
ATOM     19  C   UNL     1      -1.104 -14.310  11.038  0.00  0.00    -0.000 C 
ENDBRANCH  17  19
ENDBRANCH  16  17
ENDBRANCH  15  16
ENDBRANCH   9  15
ENDBRANCH   5  12
ENDBRANCH   4   7
ENDBRANCH   2   4
ENDBRANCH   1   2
BRANCH   1  20
ATOM     20  C   UNL     1      -0.369  -7.024   0.344  0.00  0.00    +0.268 C 
BRANCH  20  21
ATOM     21  C   UNL     1      -0.286  -6.287  -0.968  0.00  0.00    +0.007 A 
ATOM     22  C   UNL     1      -0.279  -6.960  -2.147  0.00  0.00    +0.095 A 
ATOM     23  C   UNL     1      -0.200  -6.248  -3.361  0.00  0.00    +0.285 A 
ATOM     24  O   UNL     1      -0.132  -4.908  -3.389  0.00  0.00    -0.425 OA
ATOM     25  C   UNL     1      -0.136  -4.178  -2.253  0.00  0.00    +0.141 A 
ATOM     26  C   UNL     1      -0.211  -4.825  -1.005  0.00  0.00    +0.024 A 
ATOM     27  C   UNL     1      -0.215  -4.073   0.175  0.00  0.00    +0.014 A 
ATOM     28  C   UNL     1      -0.140  -2.712   0.112  0.00  0.00    +0.024 A 
ATOM     29  C   UNL     1      -0.071  -2.064  -1.121  0.00  0.00    +0.037 A 
ATOM     30  C   UNL     1      -0.065  -2.794  -2.300  0.00  0.00    +0.070 A 
ATOM     31  N   UNL     1       0.000  -0.672  -1.169  0.00  0.00    -0.286 N 
ATOM     32  C   UNL     1      -0.605  -0.000  -2.168  0.00  0.00    +0.214 C 
ATOM     33  O   UNL     1      -1.141  -0.609  -3.070  0.00  0.00    -0.276 OA
ATOM     34  C   UNL     1      -0.617   1.507  -2.165  0.00  0.00    +0.109 C 
ATOM     35  H   UNL     1       0.550  -0.122  -0.391  0.00  0.00    +0.155 HD
BRANCH  23  36
ATOM     36  O   UNL     1      -0.194  -6.865  -4.412  0.00  0.00    -0.480 OA
ATOM     37  H   UNL     1      -0.133  -6.323  -5.367  0.00  0.00    +0.295 HD
ENDBRANCH  23  36
ENDBRANCH  20  21
ENDBRANCH   1  20
TORSDOF 11
