REMARK  Name = ZINC16022297
REMARK  5 active torsions:
REMARK  status: ('A' for Active; 'I' for Inactive)
REMARK    1  A    between atoms: C_4  and  C_7
REMARK    2  A    between atoms: C_7  and  C_8
REMARK    3  A    between atoms: C_8  and  N_9
REMARK    4  A    between atoms: C_14  and  C_32
REMARK    5  A    between atoms: C_32  and  C_33
REMARK                            x       y       z     vdW  Elec       q    Type
REMARK                         _______ _______ _______ _____ _____    ______ ____
ROOT
ATOM      1  N   UNL     1       5.450  -1.678   1.382  0.00  0.00    -0.241 N 
ATOM      2  C   UNL     1       5.532  -3.014   1.369  0.00  0.00    +0.227 C 
ATOM      3  O   UNL     1       4.587  -3.773   1.368  0.00  0.00    -0.275 OA
ATOM      4  C   UNL     1       6.986  -3.428   1.355  0.00  0.00    +0.107 C 
ATOM      5  C   UNL     1       7.335  -4.095   2.702  0.00  0.00    +0.076 C 
ATOM      6  N   UNL     1       8.627  -3.479   3.109  0.00  0.00    -0.295 NA
ATOM      7  C   UNL     1       8.493  -2.065   2.712  0.00  0.00    +0.136 C 
ATOM      8  C   UNL     1       7.744  -2.071   1.355  0.00  0.00    +0.122 C 
ATOM      9  C   UNL     1       6.631  -1.049   1.373  0.00  0.00    +0.228 C 
ATOM     10  O   UNL     1       6.784   0.153   1.380  0.00  0.00    -0.275 OA
ATOM     11  C   UNL     1       7.759  -1.268   3.752  0.00  0.00    +0.004 A 
ATOM     12  C   UNL     1       6.502  -1.363   4.308  0.00  0.00    +0.023 A 
ATOM     13  C   UNL     1       6.101  -0.456   5.273  0.00  0.00    +0.018 A 
ATOM     14  C   UNL     1       6.966   0.546   5.678  0.00  0.00    +0.017 A 
ATOM     15  C   UNL     1       8.225   0.644   5.124  0.00  0.00    +0.025 A 
ATOM     16  C   UNL     1       8.636  -0.264   4.151  0.00  0.00    +0.039 A 
ATOM     17  N   UNL     1       9.841  -0.369   3.452  0.00  0.00    -0.283 N 
ATOM     18  C   UNL     1       9.837  -1.401   2.587  0.00  0.00    +0.243 C 
ATOM     19  O   UNL     1      10.742  -1.732   1.850  0.00  0.00    -0.273 OA
ATOM     20 BR   UNL     1       4.376  -0.585   6.036  0.00  0.00    -0.050 Br
ATOM     21  H   UNL     1       8.770  -3.563   4.104  0.00  0.00    +0.124 HD
ATOM     22  H   UNL     1      10.593   0.231   3.575  0.00  0.00    +0.155 HD
ENDROOT
BRANCH   1  23
ATOM     23  C   UNL     1       4.171  -0.963   1.399  0.00  0.00    +0.121 C 
BRANCH  23  24
ATOM     24  C   UNL     1       3.711  -0.707  -0.038  0.00  0.00    +0.054 C 
BRANCH  24  28
ATOM     25  C   UNL     1      -0.017   1.378   0.010  0.00  0.00    +0.000 A 
ATOM     26  C   UNL     1       1.171   2.086   0.002  0.00  0.00    +0.000 A 
ATOM     27  C   UNL     1       2.377   1.411  -0.013  0.00  0.00    +0.004 A 
ATOM     28  C   UNL     1       2.396   0.029  -0.020  0.00  0.00    -0.046 A 
ATOM     29  C   UNL     1       1.208  -0.679  -0.012  0.00  0.00    +0.004 A 
ATOM     30  C   UNL     1       0.002  -0.004   0.002  0.00  0.00    +0.000 A 
ENDBRANCH  24  28
ENDBRANCH  23  24
ENDBRANCH   1  23
BRANCH   5  31
ATOM     31  C   UNL     1       7.497  -5.606   2.523  0.00  0.00    +0.115 C 
BRANCH  31  32
ATOM     32  C   UNL     1       7.715  -6.251   3.867  0.00  0.00    +0.212 C 
ATOM     33  O   UNL     1       7.740  -5.569   4.870  0.00  0.00    -0.276 OA
ATOM     34  N   UNL     1       7.884  -7.585   3.955  0.00  0.00    -0.329 N 
ATOM     35  H   UNL     1       7.864  -8.130   3.153  0.00  0.00    +0.145 HD
ATOM     36  H   UNL     1       8.025  -8.000   4.820  0.00  0.00    +0.145 HD
ENDBRANCH  31  32
ENDBRANCH   5  31
TORSDOF 5
