REMARK  Name = ZINC37127182
REMARK  5 active torsions:
REMARK  status: ('A' for Active; 'I' for Inactive)
REMARK    1  A    between atoms: C_1  and  N_2
REMARK    2  A    between atoms: N_2  and  C_3
REMARK    3  A    between atoms: N_2  and  C_4
REMARK    4  A    between atoms: C_5  and  N_11
REMARK    5  A    between atoms: N_11  and  C_12
REMARK                            x       y       z     vdW  Elec       q    Type
REMARK                         _______ _______ _______ _____ _____    ______ ____
ROOT
ATOM      1  N   UNL     1      -2.421  -0.723  -1.200  0.00  0.00    -0.335 N 
ATOM      2  H   UNL     1      -2.423  -0.243  -0.358  0.00  0.00    +0.147 HD
ENDROOT
BRANCH   1   3
ATOM      3  C   UNL     1      -3.689  -1.100  -1.831  0.00  0.00    +0.107 C 
ATOM      4  C   UNL     1      -4.778  -1.209  -0.761  0.00  0.00    +0.068 C 
ATOM      5  C   UNL     1      -6.137  -1.309  -1.466  0.00  0.00    +0.231 C 
ATOM      6  O   UNL     1      -6.373  -0.086  -2.163  0.00  0.00    -0.492 OA
ATOM      7  C   UNL     1      -5.381   0.393  -2.959  0.00  0.00    +0.125 A 
ATOM      8  C   UNL     1      -4.076  -0.052  -2.844  0.00  0.00    +0.014 A 
ATOM      9  C   UNL     1      -3.097   0.469  -3.672  0.00  0.00    +0.009 A 
ATOM     10  C   UNL     1      -3.417   1.428  -4.614  0.00  0.00    +0.001 A 
ATOM     11  C   UNL     1      -4.721   1.872  -4.731  0.00  0.00    +0.004 A 
ATOM     12  C   UNL     1      -5.700   1.357  -3.909  0.00  0.00    +0.046 A 
ENDBRANCH   1   3
BRANCH   1  14
ATOM     13  C   UNL     1       0.000  -0.698  -1.215  0.00  0.00    +0.069 A 
ATOM     14  C   UNL     1      -1.208  -1.056  -1.814  0.00  0.00    +0.050 A 
ATOM     15  C   UNL     1      -1.203  -1.742  -3.019  0.00  0.00    +0.025 A 
ATOM     16  C   UNL     1      -0.003  -2.071  -3.623  0.00  0.00    +0.003 A 
ATOM     17  C   UNL     1       1.194  -1.717  -3.030  0.00  0.00    +0.022 A 
ATOM     18  C   UNL     1       1.199  -1.026  -1.831  0.00  0.00    +0.064 A 
ATOM     19 CL   UNL     1       2.705  -0.577  -1.094  0.00  0.00    -0.082 Cl
BRANCH  13  21
ATOM     20  C   UNL     1      -0.018   1.461   0.010  0.00  0.00    +0.129 C 
ATOM     21  N   UNL     1       0.002  -0.004   0.002  0.00  0.00    -0.333 N 
ATOM     22  C   UNL     1       0.024  -0.743   1.267  0.00  0.00    +0.129 C 
ENDBRANCH  13  21
ENDBRANCH   1  14
TORSDOF 3
