REMARK  Name = ZINC40168734
REMARK  9 active torsions:
REMARK  status: ('A' for Active; 'I' for Inactive)
REMARK    1  A    between atoms: C_1  and  C_2
REMARK    2  A    between atoms: C_3  and  C_35
REMARK    3  A    between atoms: C_5  and  N_10
REMARK    4  A    between atoms: C_6  and  C_7
REMARK    5  A    between atoms: C_11  and  C_13
REMARK    6  A    between atoms: C_13  and  C_15
REMARK    7  A    between atoms: C_13  and  O_16
REMARK    8  A    between atoms: O_16  and  C_17
REMARK    9  A    between atoms: C_27  and  C_28
REMARK                            x       y       z     vdW  Elec       q    Type
REMARK                         _______ _______ _______ _____ _____    ______ ____
ROOT
ATOM      1  O   UNL     1       0.328  -6.547   2.707  0.00  0.00    -0.473 OA
ENDROOT
BRANCH   1   2
ATOM      2  C   UNL     1      -0.115  -7.705   3.268  0.00  0.00    +0.212 A 
ATOM      3  C   UNL     1      -1.474  -7.841   3.648  0.00  0.00    +0.235 A 
ATOM      4  O   UNL     1      -2.273  -6.934   3.485  0.00  0.00    -0.283 OA
ATOM      5  C   UNL     1      -1.884  -9.124   4.250  0.00  0.00    +0.068 A 
ATOM      6  C   UNL     1      -3.200  -9.348   4.654  0.00  0.00    +0.015 A 
ATOM      7  C   UNL     1      -3.544 -10.559   5.212  0.00  0.00    +0.001 A 
ATOM      8  C   UNL     1      -2.588 -11.552   5.372  0.00  0.00    +0.004 A 
ATOM      9  C   UNL     1      -1.284 -11.344   4.977  0.00  0.00    +0.047 A 
ATOM     10  C   UNL     1      -0.916 -10.129   4.411  0.00  0.00    +0.140 A 
ATOM     11  O   UNL     1       0.354  -9.906   4.017  0.00  0.00    -0.451 OA
ATOM     12  C   UNL     1       0.743  -8.746   3.463  0.00  0.00    +0.181 A 
BRANCH  12  13
ATOM     13  C   UNL     1       2.152  -8.591   3.055  0.00  0.00    +0.021 A 
ATOM     14  C   UNL     1       3.180  -8.961   3.927  0.00  0.00    +0.013 A 
ATOM     15  C   UNL     1       4.495  -8.813   3.540  0.00  0.00    +0.021 A 
ATOM     16  C   UNL     1       4.799  -8.300   2.290  0.00  0.00    +0.041 A 
ATOM     17  C   UNL     1       3.785  -7.931   1.421  0.00  0.00    +0.021 A 
ATOM     18  C   UNL     1       2.466  -8.079   1.794  0.00  0.00    +0.013 A 
ATOM     19 CL   UNL     1       6.457  -8.117   1.810  0.00  0.00    -0.084 Cl
ENDBRANCH  12  13
ENDBRANCH   1   2
BRANCH   1  20
ATOM     20  C   UNL     1       0.329  -5.383   3.537  0.00  0.00    +0.256 C 
ATOM     21  C   UNL     1       1.653  -5.301   4.299  0.00  0.00    +0.062 C 
BRANCH  20  23
ATOM     22  N   UNL     1       0.031  -2.944   3.255  0.00  0.00    -0.276 N 
ATOM     23  C   UNL     1       0.165  -4.155   2.679  0.00  0.00    +0.258 C 
ATOM     24  O   UNL     1       0.155  -4.256   1.470  0.00  0.00    -0.271 OA
ATOM     25  H   UNL     1      -0.030  -2.870   4.220  0.00  0.00    +0.155 HD
BRANCH  22  30
ATOM     26  C   UNL     1      -0.318   1.986   2.154  0.00  0.00    +0.045 C 
ATOM     27  C   UNL     1      -0.178   0.518   1.844  0.00  0.00    -0.027 A 
ATOM     28  C   UNL     1      -0.068   0.062   0.583  0.00  0.00    -0.008 A 
ATOM     29  S   UNL     1       0.067  -1.700   0.795  0.00  0.00    -0.078 S 
ATOM     30  C   UNL     1      -0.019  -1.804   2.468  0.00  0.00    +0.084 A 
ATOM     31  C   UNL     1      -0.147  -0.486   2.883  0.00  0.00    +0.068 A 
ATOM     32  C   UNL     1      -0.062   0.852  -0.700  0.00  0.00    +0.052 C 
BRANCH  31  33
ATOM     33  C   UNL     1      -0.251  -0.131   4.301  0.00  0.00    +0.244 C 
ATOM     34  O   UNL     1      -1.342  -0.072   4.836  0.00  0.00    -0.270 OA
ATOM     35  N   UNL     1       0.863   0.130   5.014  0.00  0.00    -0.325 N 
ATOM     36  H   UNL     1       1.734   0.084   4.588  0.00  0.00    +0.145 HD
ATOM     37  H   UNL     1       0.795   0.365   5.952  0.00  0.00    +0.145 HD
ENDBRANCH  31  33
ENDBRANCH  22  30
ENDBRANCH  20  23
ENDBRANCH   1  20
TORSDOF 6
