REMARK  Name = ZINC50672499
REMARK  6 active torsions:
REMARK  status: ('A' for Active; 'I' for Inactive)
REMARK    1  A    between atoms: C_1  and  C_2
REMARK    2  A    between atoms: C_5  and  C_7
REMARK    3  A    between atoms: C_7  and  N_8
REMARK    4  A    between atoms: N_8  and  S_9
REMARK    5  A    between atoms: S_9  and  C_12
REMARK    6  A    between atoms: C_13  and  N_20
REMARK                            x       y       z     vdW  Elec       q    Type
REMARK                         _______ _______ _______ _____ _____    ______ ____
ROOT
ATOM      1  S   UNL     1       1.787  -5.816   1.936  0.00  0.00    +0.078 S 
ATOM      2  O   UNL     1       3.196  -5.993   1.881  0.00  0.00    -0.151 OA
ATOM      3  O   UNL     1       1.081  -5.697   3.163  0.00  0.00    -0.151 OA
ENDROOT
BRANCH   1   4
ATOM      4  C   UNL     1       1.075  -7.179   1.076  0.00  0.00    +0.220 A 
ATOM      5  C   UNL     1      -0.174  -7.663   1.243  0.00  0.00    +0.163 A 
ATOM      6  N   UNL     1      -0.339  -8.702   0.407  0.00  0.00    -0.205 NA
ATOM      7  C   UNL     1       0.759  -8.881  -0.271  0.00  0.00    +0.181 A 
ATOM      8  N   UNL     1       1.698  -7.952   0.092  0.00  0.00    -0.276 N 
ATOM      9  C   UNL     1       2.916  -8.013  -0.548  0.00  0.00    +0.102 A 
ATOM     10  C   UNL     1       3.153  -8.936  -1.479  0.00  0.00    +0.067 A 
ATOM     11  S   UNL     1       1.608  -9.832  -1.510  0.00  0.00    -0.058 S 
BRANCH   5  12
ATOM     12  N   UNL     1      -1.135  -7.165   2.137  0.00  0.00    -0.340 N 
ATOM     13  H   UNL     1      -0.924  -6.407   2.703  0.00  0.00    +0.144 HD
ATOM     14  H   UNL     1      -2.010  -7.580   2.188  0.00  0.00    +0.144 HD
ENDBRANCH   5  12
ENDBRANCH   1   4
BRANCH   1  15
ATOM     15  N   UNL     1       1.447  -4.453   1.060  0.00  0.00    -0.184 NA
ATOM     16  H   UNL     1       2.167  -3.947   0.650  0.00  0.00    +0.148 HD
BRANCH  15  17
ATOM     17  C   UNL     1       0.059  -4.011   0.902  0.00  0.00    +0.149 C 
BRANCH  17  22
ATOM     18  C   UNL     1      -0.018   1.503   0.010  0.00  0.00    +0.073 C 
ATOM     19  C   UNL     1       0.002  -0.004   0.002  0.00  0.00    +0.075 A 
ATOM     20  N   UNL     1       0.009  -0.812  -1.029  0.00  0.00    -0.252 NA
ATOM     21  C   UNL     1       0.027  -2.121  -0.874  0.00  0.00    +0.123 A 
ATOM     22  C   UNL     1       0.039  -2.590   0.400  0.00  0.00    +0.025 A 
ATOM     23  S   UNL     1       0.029  -1.057   1.315  0.00  0.00    -0.076 S 
ENDBRANCH  17  22
ENDBRANCH  15  17
ENDBRANCH   1  15
TORSDOF 5
