REMARK  Name = ZINC53115088
REMARK  8 active torsions:
REMARK  status: ('A' for Active; 'I' for Inactive)
REMARK    1  A    between atoms: C_1  and  C_2
REMARK    2  A    between atoms: C_3  and  N_19
REMARK    3  A    between atoms: C_4  and  N_8
REMARK    4  A    between atoms: N_5  and  C_7
REMARK    5  A    between atoms: N_8  and  C_9
REMARK    6  A    between atoms: C_9  and  C_17
REMARK    7  A    between atoms: C_13  and  C_16
REMARK    8  A    between atoms: C_17  and  O_18
REMARK                            x       y       z     vdW  Elec       q    Type
REMARK                         _______ _______ _______ _____ _____    ______ ____
ROOT
ATOM      1  N   UNL     1       1.677  -2.430  -1.515  0.00  0.00    -0.320 N 
ATOM      2  H   UNL     1       1.904  -1.529  -1.236  0.00  0.00    +0.148 HD
ENDROOT
BRANCH   1   6
ATOM      3  C   UNL     1       0.405  -1.821  -6.309  0.00  0.00    +0.069 C 
ATOM      4  C   UNL     1       0.809  -2.451  -5.000  0.00  0.00    +0.082 A 
ATOM      5  C   UNL     1       1.027  -1.770  -3.797  0.00  0.00    +0.087 A 
ATOM      6  C   UNL     1       1.374  -2.691  -2.853  0.00  0.00    +0.138 A 
ATOM      7  N   UNL     1       1.372  -3.912  -3.455  0.00  0.00    -0.252 N 
ATOM      8  N   UNL     1       1.010  -3.729  -4.795  0.00  0.00    -0.173 NA
ATOM      9  C   UNL     1       1.687  -5.191  -2.813  0.00  0.00    +0.174 C 
BRANCH   5  10
ATOM     10  N   UNL     1       0.909  -0.375  -3.596  0.00  0.00    -0.354 N 
ATOM     11  H   UNL     1       0.655   0.201  -4.334  0.00  0.00    +0.142 HD
ATOM     12  H   UNL     1       1.082   0.005  -2.721  0.00  0.00    +0.142 HD
ENDBRANCH   5  10
ENDBRANCH   1   6
BRANCH   1  13
ATOM     13  C   UNL     1       1.651  -3.516  -0.532  0.00  0.00    +0.057 C 
ATOM     14  C   UNL     1       1.605  -2.926   0.879  0.00  0.00    +0.028 C 
ATOM     15  C   UNL     1       0.347  -2.070   1.033  0.00  0.00    +0.002 C 
ATOM     16  C   UNL     1      -0.892  -2.937   0.802  0.00  0.00    +0.003 C 
ATOM     17  C   UNL     1      -0.846  -3.527  -0.609  0.00  0.00    -0.012 C 
ATOM     18  C   UNL     1       0.412  -4.383  -0.763  0.00  0.00    +0.031 C 
ATOM     19  C   UNL     1      -0.819  -2.392  -1.635  0.00  0.00    +0.007 C 
BRANCH  13  20
ATOM     20  C   UNL     1       2.910  -4.373  -0.686  0.00  0.00    +0.181 C 
BRANCH  20  21
ATOM     21  O   UNL     1       4.066  -3.536  -0.622  0.00  0.00    -0.393 OA
ATOM     22  H   UNL     1       4.898  -4.001  -0.788  0.00  0.00    +0.209 HD
ENDBRANCH  20  21
ENDBRANCH  13  20
ENDBRANCH   1  13
TORSDOF 5
