REMARK  Name = ZINC00867452
REMARK  8 active torsions:
REMARK  status: ('A' for Active; 'I' for Inactive)
REMARK    1  A    between atoms: C_1  and  C_2
REMARK    2  A    between atoms: C_2  and  O_4
REMARK    3  A    between atoms: O_4  and  C_5
REMARK    4  A    between atoms: C_8  and  C_12
REMARK    5  A    between atoms: C_13  and  C_14
REMARK    6  A    between atoms: C_13  and  C_16
REMARK    7  A    between atoms: N_18  and  C_19
REMARK    8  A    between atoms: C_21  and  N_26
REMARK                            x       y       z     vdW  Elec       q    Type
REMARK                         _______ _______ _______ _____ _____    ______ ____
ROOT
ATOM      1  C   UNL     1      -0.016   1.408  -0.058  0.00  0.00    +0.032 C 
ATOM      2  C   UNL     1       0.592   0.182  -0.217  0.00  0.00    +0.114 C 
ENDROOT
BRANCH   1   6
ATOM      3  C   UNL     1       2.343   4.914   0.262  0.00  0.00    +0.146 A 
ATOM      4  C   UNL     1       2.866   3.689   0.660  0.00  0.00    +0.048 A 
ATOM      5  C   UNL     1       2.103   2.548   0.564  0.00  0.00    +0.011 A 
ATOM      6  C   UNL     1       0.799   2.620   0.052  0.00  0.00    -0.022 A 
ATOM      7  C   UNL     1       0.277   3.859  -0.348  0.00  0.00    +0.027 A 
ATOM      8  C   UNL     1       1.049   4.994  -0.241  0.00  0.00    +0.061 A 
ATOM      9 BR   UNL     1       0.347   6.666  -0.779  0.00  0.00    -0.046 Br
BRANCH   3  10
ATOM     10  O   UNL     1       3.099   6.037   0.365  0.00  0.00    -0.425 OA
BRANCH  10  12
ATOM     11  C   UNL     1       3.707   8.062   1.642  0.00  0.00    +0.136 C 
ATOM     12  C   UNL     1       2.988   6.745   1.501  0.00  0.00    +0.309 C 
ATOM     13  O   UNL     1       2.311   6.326   2.410  0.00  0.00    -0.251 OA
ENDBRANCH  10  12
ENDBRANCH   3  10
ENDBRANCH   1   6
BRANCH   2  14
ATOM     14  C   UNL     1      -0.209  -1.050  -0.147  0.00  0.00    +0.259 C 
ATOM     15  O   UNL     1      -1.408  -0.986   0.051  0.00  0.00    -0.269 OA
ATOM     16  N   UNL     1       0.385  -2.250  -0.303  0.00  0.00    -0.279 N 
ATOM     17  H   UNL     1       1.350  -2.306  -0.383  0.00  0.00    +0.155 HD
BRANCH  16  18
ATOM     18  C   UNL     1      -0.391  -3.414  -0.348  0.00  0.00    +0.071 A 
ATOM     19  C   UNL     1      -1.722  -3.349  -0.738  0.00  0.00    +0.059 A 
ATOM     20  C   UNL     1      -2.484  -4.500  -0.786  0.00  0.00    +0.128 A 
ATOM     21  C   UNL     1      -1.926  -5.716  -0.438  0.00  0.00    +0.035 A 
ATOM     22  C   UNL     1      -0.602  -5.786  -0.044  0.00  0.00    +0.042 A 
ATOM     23  C   UNL     1       0.168  -4.638   0.002  0.00  0.00    +0.145 A 
ATOM     24  F   UNL     1       1.462  -4.706   0.387  0.00  0.00    -0.204 F 
BRANCH  20  25
ATOM     25  N   UNL     1      -3.901  -4.431  -1.206  0.00  0.00    +0.056 N 
ATOM     26  O   UNL     1      -4.575  -5.445  -1.245  0.00  0.00    -0.126 OA
ATOM     27  O   UNL     1      -4.394  -3.360  -1.513  0.00  0.00    -0.126 OA
ENDBRANCH  20  25
ENDBRANCH  16  18
ENDBRANCH   2  14
BRANCH   2  28
ATOM     28  C   UNL     1       2.002   0.107  -0.450  0.00  0.00    +0.104 C 
ATOM     29  N   UNL     1       3.122   0.047  -0.635  0.00  0.00    -0.191 NA
ENDBRANCH   2  28
TORSDOF 7
