REMARK  Name = ZINC40115723
REMARK  10 active torsions:
REMARK  status: ('A' for Active; 'I' for Inactive)
REMARK    1  A    between atoms: C_1  and  C_2
REMARK    2  A    between atoms: C_3  and  C_26
REMARK    3  A    between atoms: C_4  and  C_25
REMARK    4  A    between atoms: C_7  and  C_8
REMARK    5  A    between atoms: C_16  and  C_18
REMARK    6  A    between atoms: C_19  and  C_20
REMARK    7  A    between atoms: C_26  and  O_28
REMARK    8  A    between atoms: O_28  and  C_29
REMARK    9  A    between atoms: C_29  and  C_30
REMARK   10  A    between atoms: C_29  and  C_31
REMARK                            x       y       z     vdW  Elec       q    Type
REMARK                         _______ _______ _______ _____ _____    ______ ____
ROOT
ATOM      1  C   UNL     1       0.028  -0.374   2.503  0.00  0.00    +0.263 C 
ATOM      2  O   UNL     1       0.124   0.809   2.770  0.00  0.00    -0.268 OA
ATOM      3  N   UNL     1      -0.051  -1.284   3.494  0.00  0.00    -0.293 N 
ATOM      4  C   UNL     1      -0.043  -2.723   3.191  0.00  0.00    +0.127 C 
ATOM      5  C   UNL     1       1.091  -3.384   3.984  0.00  0.00    +0.127 C 
ATOM      6  N   UNL     1       0.996  -2.956   5.387  0.00  0.00    -0.295 N 
ATOM      7  C   UNL     1       0.987  -1.518   5.689  0.00  0.00    +0.127 C 
ATOM      8  C   UNL     1      -0.141  -0.856   4.897  0.00  0.00    +0.127 C 
ATOM      9  C   UNL     1       0.916  -3.866   6.378  0.00  0.00    +0.240 C 
ATOM     10  O   UNL     1       0.735  -3.502   7.526  0.00  0.00    -0.271 OA
ENDROOT
BRANCH   1  17
ATOM     11  C   UNL     1      -2.470  -1.502   1.012  0.00  0.00    +0.047 C 
ATOM     12  C   UNL     1      -1.089  -1.304   0.442  0.00  0.00    -0.006 A 
ATOM     13  C   UNL     1      -0.676  -1.590  -0.879  0.00  0.00    +0.083 A 
ATOM     14  C   UNL     1       0.664  -1.258  -0.966  0.00  0.00    +0.028 A 
ATOM     15  N   UNL     1       1.064  -0.794   0.229  0.00  0.00    -0.354 N 
ATOM     16  H   UNL     1       1.960  -0.491   0.442  0.00  0.00    +0.166 HD
ATOM     17  C   UNL     1      -0.002  -0.811   1.102  0.00  0.00    +0.106 A 
ATOM     18  C   UNL     1       1.529  -1.396  -2.193  0.00  0.00    +0.064 C 
BRANCH  13  19
ATOM     19  C   UNL     1      -1.514  -2.137  -1.959  0.00  0.00    +0.341 C 
ATOM     20  O   UNL     1      -2.121  -1.387  -2.697  0.00  0.00    -0.245 OA
BRANCH  19  21
ATOM     21  O   UNL     1      -1.608  -3.471  -2.128  0.00  0.00    -0.458 OA
BRANCH  21  22
ATOM     22  C   UNL     1      -2.438  -3.932  -3.196  0.00  0.00    +0.171 C 
ATOM     23  C   UNL     1      -1.604  -4.063  -4.472  0.00  0.00    +0.052 C 
ATOM     24  C   UNL     1      -3.028  -5.296  -2.830  0.00  0.00    +0.052 C 
ENDBRANCH  21  22
ENDBRANCH  19  21
ENDBRANCH  13  19
ENDBRANCH   1  17
BRANCH   9  25
ATOM     25  C   UNL     1       1.043  -5.244   6.084  0.00  0.00    +0.068 C 
ATOM     26  C   UNL     1       1.065  -6.153   7.091  0.00  0.00    +0.020 C 
BRANCH  26  27
ATOM     27  C   UNL     1       1.192  -7.532   6.798  0.00  0.00    +0.012 A 
ATOM     28  C   UNL     1       1.228  -8.614   7.670  0.00  0.00    +0.015 A 
ATOM     29  C   UNL     1       1.361  -9.848   7.081  0.00  0.00    +0.008 A 
ATOM     30  C   UNL     1       1.444  -9.929   5.730  0.00  0.00    +0.046 A 
ATOM     31  S   UNL     1       1.339  -8.335   5.213  0.00  0.00    -0.097 S 
ENDBRANCH  26  27
ENDBRANCH   9  25
TORSDOF 6
