REMARK  Name = ZINC67268714
REMARK  8 active torsions:
REMARK  status: ('A' for Active; 'I' for Inactive)
REMARK    1  A    between atoms: C_1  and  C_2
REMARK    2  A    between atoms: C_2  and  C_3
REMARK    3  A    between atoms: C_2  and  C_4
REMARK    4  A    between atoms: C_4  and  C_5
REMARK    5  A    between atoms: C_5  and  C_7
REMARK    6  A    between atoms: C_5  and  N_11
REMARK    7  A    between atoms: N_9  and  C_10
REMARK    8  A    between atoms: C_12  and  C_14
REMARK                            x       y       z     vdW  Elec       q    Type
REMARK                         _______ _______ _______ _____ _____    ______ ____
ROOT
ATOM      1  N   UNL     1      -1.343  -2.604  -0.175  0.00  0.00    -0.304 N 
ATOM      2  C   UNL     1      -0.030  -2.904  -0.202  0.00  0.00    +0.217 C 
ATOM      3  O   UNL     1       0.760  -2.128  -0.697  0.00  0.00    -0.275 OA
ATOM      4  H   UNL     1      -1.966  -3.190   0.283  0.00  0.00    +0.149 HD
ENDROOT
BRANCH   2   5
ATOM      5  C   UNL     1       0.458  -4.205   0.383  0.00  0.00    +0.075 C 
ATOM      6  C   UNL     1       0.095  -4.263   1.869  0.00  0.00    +0.015 C 
ATOM      7  C   UNL     1       0.580  -5.590   2.459  0.00  0.00    +0.036 C 
ATOM      8  C   UNL     1       2.090  -5.706   2.283  0.00  0.00    +0.112 C 
ATOM      9  C   UNL     1       2.469  -5.624   0.808  0.00  0.00    +0.036 C 
ATOM     10  C   UNL     1       1.977  -4.298   0.225  0.00  0.00    +0.015 C 
ATOM     11  C   UNL     1       2.798  -4.629   3.071  0.00  0.00    +0.244 C 
ATOM     12  O   UNL     1       2.696  -3.429   2.930  0.00  0.00    -0.273 OA
ATOM     13  N   UNL     1       3.567  -5.284   3.966  0.00  0.00    -0.238 N 
ATOM     14  C   UNL     1       3.440  -6.611   3.847  0.00  0.00    +0.307 C 
ATOM     15  O   UNL     1       4.033  -7.412   4.543  0.00  0.00    -0.252 OA
ATOM     16  N   UNL     1       2.580  -6.960   2.871  0.00  0.00    -0.285 N 
ATOM     17  H   UNL     1       4.142  -4.847   4.614  0.00  0.00    +0.159 HD
ATOM     18  H   UNL     1       2.334  -7.860   2.608  0.00  0.00    +0.151 HD
ENDBRANCH   2   5
BRANCH   1  19
ATOM     19  C   UNL     1      -1.831  -1.392  -0.838  0.00  0.00    +0.159 C 
BRANCH  19  20
ATOM     20  C   UNL     1      -3.287  -1.562  -1.189  0.00  0.00    +0.233 C 
ATOM     21  O   UNL     1      -3.867  -2.584  -0.889  0.00  0.00    -0.274 OA
ATOM     22  N   UNL     1      -3.943  -0.579  -1.836  0.00  0.00    -0.317 N 
ATOM     23  C   UNL     1      -5.358  -0.745  -2.178  0.00  0.00    +0.128 C 
ATOM     24  H   UNL     1      -3.479   0.238  -2.076  0.00  0.00    +0.148 HD
ENDBRANCH  19  20
BRANCH  19  25
ATOM     25  C   UNL     1      -1.670  -0.196   0.103  0.00  0.00    +0.034 C 
BRANCH  25  27
ATOM     26  C   UNL     1      -2.025   0.596   2.446  0.00  0.00    +0.007 C 
ATOM     27  C   UNL     1      -2.373  -0.493   1.430  0.00  0.00    -0.015 C 
ATOM     28  C   UNL     1      -3.887  -0.519   1.210  0.00  0.00    +0.007 C 
ENDBRANCH  25  27
ENDBRANCH  19  25
ENDBRANCH   1  19
TORSDOF 5
