REMARK  Name = ZINC16795955
REMARK  9 active torsions:
REMARK  status: ('A' for Active; 'I' for Inactive)
REMARK    1  A    between atoms: C_1  and  C_2
REMARK    2  A    between atoms: C_5  and  N_9
REMARK    3  A    between atoms: C_6  and  C_8
REMARK    4  A    between atoms: C_10  and  C_12
REMARK    5  A    between atoms: C_12  and  C_14
REMARK    6  A    between atoms: C_12  and  O_15
REMARK    7  A    between atoms: O_15  and  C_16
REMARK    8  A    between atoms: C_16  and  C_18
REMARK    9  A    between atoms: C_21  and  C_23
REMARK                            x       y       z     vdW  Elec       q    Type
REMARK                         _______ _______ _______ _____ _____    ______ ____
ROOT
ATOM      1  N   UNL     1      -0.011   0.966   0.007  0.00  0.00    -0.282 N 
ATOM      2  C   UNL     1       1.176   1.604   0.009  0.00  0.00    +0.258 C 
ATOM      3  O   UNL     1       1.215   2.813  -0.071  0.00  0.00    -0.271 OA
ATOM      4  H   UNL     1      -0.041  -0.004  -0.012  0.00  0.00    +0.155 HD
ENDROOT
BRANCH   1   9
ATOM      5  C   UNL     1      -4.835   3.951   0.089  0.00  0.00    +0.044 C 
ATOM      6  C   UNL     1      -3.553   3.158   0.068  0.00  0.00    -0.050 A 
ATOM      7  C   UNL     1      -2.391   3.712   0.572  0.00  0.00    +0.005 A 
ATOM      8  C   UNL     1      -1.215   2.987   0.553  0.00  0.00    +0.024 A 
ATOM      9  C   UNL     1      -1.201   1.702   0.028  0.00  0.00    +0.036 A 
ATOM     10  C   UNL     1      -2.369   1.151  -0.482  0.00  0.00    -0.029 A 
ATOM     11  C   UNL     1      -3.543   1.878  -0.456  0.00  0.00    +0.008 A 
ATOM     12  C   UNL     1      -2.357  -0.242  -1.058  0.00  0.00    +0.045 C 
ENDBRANCH   1   9
BRANCH   2  13
ATOM     13  C   UNL     1       2.456   0.814   0.110  0.00  0.00    +0.259 C 
ATOM     14  C   UNL     1       2.462   0.018   1.416  0.00  0.00    +0.062 C 
BRANCH  13  15
ATOM     15  O   UNL     1       3.588   1.723   0.091  0.00  0.00    -0.447 OA
BRANCH  15  16
ATOM     16  C   UNL     1       4.738   1.258  -0.438  0.00  0.00    +0.376 C 
ATOM     17  O   UNL     1       4.793   0.122  -0.871  0.00  0.00    -0.241 OA
BRANCH  16  18
ATOM     18  C   UNL     1       5.922   2.119  -0.489  0.00  0.00    +0.212 A 
ATOM     19  C   UNL     1       7.145   1.773  -0.991  0.00  0.00    +0.057 A 
ATOM     20  C   UNL     1       7.974   2.896  -0.841  0.00  0.00    +0.045 A 
ATOM     21  C   UNL     1       7.232   3.863  -0.256  0.00  0.00    +0.103 A 
ATOM     22  O   UNL     1       5.997   3.391  -0.046  0.00  0.00    -0.453 OA
ATOM     23  C   UNL     1       7.717   5.245   0.100  0.00  0.00    +0.086 C 
ENDBRANCH  16  18
ENDBRANCH  15  16
ENDBRANCH  13  15
ENDBRANCH   2  13
TORSDOF 5
