REMARK  Name = ZINC03131541
REMARK  5 active torsions:
REMARK  status: ('A' for Active; 'I' for Inactive)
REMARK    1  A    between atoms: C_1  and  O_2
REMARK    2  A    between atoms: O_2  and  C_3
REMARK    3  A    between atoms: C_8  and  N_9
REMARK    4  A    between atoms: C_10  and  C_11
REMARK    5  A    between atoms: C_16  and  O_17
REMARK                            x       y       z     vdW  Elec       q    Type
REMARK                         _______ _______ _______ _____ _____    ______ ____
ROOT
ATOM      1  N   UNL     1      -2.398  -0.063   0.024  0.00  0.00    -0.251 NA
ATOM      2  C   UNL     1      -3.513  -0.732  -0.067  0.00  0.00    +0.123 C 
ENDROOT
BRANCH   2   3
ATOM      3  C   UNL     1      -4.794  -0.016  -0.163  0.00  0.00    +0.036 A 
ATOM      4  C   UNL     1      -5.993  -0.730  -0.261  0.00  0.00    +0.028 A 
ATOM      5  C   UNL     1      -7.190  -0.052  -0.350  0.00  0.00    +0.019 A 
ATOM      6  C   UNL     1      -7.211   1.334  -0.342  0.00  0.00    +0.019 A 
ATOM      7  C   UNL     1      -6.034   2.051  -0.246  0.00  0.00    +0.047 A 
ATOM      8  C   UNL     1      -4.821   1.387  -0.150  0.00  0.00    +0.125 A 
ATOM      9 BR   UNL     1      -8.811  -1.017  -0.483  0.00  0.00    -0.050 Br
BRANCH   8  10
ATOM     10  O   UNL     1      -3.665   2.090  -0.049  0.00  0.00    -0.506 OA
ATOM     11  H   UNL     1      -3.259   2.304  -0.900  0.00  0.00    +0.292 HD
ENDBRANCH   8  10
ENDBRANCH   2   3
BRANCH   1  17
ATOM     12  C   UNL     1      -0.217  -0.434   0.958  0.00  0.00    +0.145 A 
ATOM     13  C   UNL     1       0.994  -1.104   0.922  0.00  0.00    +0.048 A 
ATOM     14  C   UNL     1       1.228  -2.062  -0.047  0.00  0.00    +0.004 A 
ATOM     15  C   UNL     1       0.261  -2.351  -0.994  0.00  0.00    +0.002 A 
ATOM     16  C   UNL     1      -0.949  -1.689  -0.976  0.00  0.00    +0.031 A 
ATOM     17  C   UNL     1      -1.200  -0.723   0.001  0.00  0.00    +0.105 A 
BRANCH  12  19
ATOM     18  C   UNL     1       0.597   0.745   2.854  0.00  0.00    +0.277 C 
ATOM     19  O   UNL     1      -0.451   0.504   1.913  0.00  0.00    -0.493 OA
ENDBRANCH  12  19
ENDBRANCH   1  17
TORSDOF 4
