REMARK  Name = ZINC39671518
REMARK  4 active torsions:
REMARK  status: ('A' for Active; 'I' for Inactive)
REMARK    1  A    between atoms: C_6  and  C_11
REMARK    2  A    between atoms: C_11  and  N_12
REMARK    3  A    between atoms: C_13  and  C_15
REMARK    4  A    between atoms: C_26  and  C_28
REMARK                            x       y       z     vdW  Elec       q    Type
REMARK                         _______ _______ _______ _____ _____    ______ ____
ROOT
ATOM      1  C   UNL     1      -8.448   0.571   3.539  0.00  0.00    +0.100 C 
ATOM      2  C   UNL     1      -7.955  -0.850   3.895  0.00  0.00    +0.121 C 
ATOM      3  N   UNL     1      -9.091  -1.470   4.617  0.00  0.00    -0.296 N 
ATOM      4  C   UNL     1     -10.293  -1.002   3.886  0.00  0.00    +0.115 C 
ATOM      5  C   UNL     1      -9.983   0.466   3.533  0.00  0.00    -0.004 C 
ATOM      6  C   UNL     1     -10.530   0.802   2.148  0.00  0.00    -0.010 C 
ATOM      7  C   UNL     1     -12.060   0.748   2.182  0.00  0.00    -0.082 C 
ATOM      8  N   UNL     1     -12.563   1.705   3.175  0.00  0.00    +0.379 N 
ATOM      9  C   UNL     1     -12.108   1.321   4.517  0.00  0.00    -0.082 C 
ATOM     10  C   UNL     1     -10.580   1.399   4.582  0.00  0.00    -0.010 C 
ATOM     11  C   UNL     1      -9.042  -2.277   5.696  0.00  0.00    +0.249 C 
ATOM     12  O   UNL     1     -10.062  -2.785   6.121  0.00  0.00    -0.270 OA
ATOM     13  H   UNL     1     -12.218   2.628   2.956  0.00  0.00    -0.086 HD
ATOM     14  H   UNL     1     -13.572   1.712   3.152  0.00  0.00    -0.086 HD
ENDROOT
BRANCH  11  15
ATOM     15  C   UNL     1      -7.751  -2.543   6.361  0.00  0.00    +0.073 A 
ATOM     16  C   UNL     1      -6.579  -2.635   5.607  0.00  0.00    +0.036 A 
ATOM     17  C   UNL     1      -5.376  -2.884   6.235  0.00  0.00    +0.042 A 
ATOM     18  C   UNL     1      -5.328  -3.043   7.611  0.00  0.00    +0.023 A 
ATOM     19  C   UNL     1      -6.482  -2.953   8.364  0.00  0.00    +0.040 A 
ATOM     20  C   UNL     1      -7.695  -2.699   7.750  0.00  0.00    +0.136 A 
ATOM     21  F   UNL     1      -8.823  -2.606   8.488  0.00  0.00    -0.205 F 
ATOM     22 CL   UNL     1      -3.919  -3.000   5.299  0.00  0.00    -0.084 Cl
ENDBRANCH  11  15
BRANCH   1  24
ATOM     23  N   UNL     1      -7.732   2.276   1.896  0.00  0.00    -0.309 N 
ATOM     24  C   UNL     1      -7.945   0.975   2.177  0.00  0.00    +0.219 C 
ATOM     25  O   UNL     1      -7.730   0.129   1.334  0.00  0.00    -0.275 OA
ATOM     26  H   UNL     1      -7.904   2.952   2.570  0.00  0.00    +0.149 HD
BRANCH  23  27
ATOM     27  C   UNL     1      -7.243   2.668   0.572  0.00  0.00    +0.157 C 
BRANCH  27  33
ATOM     28  C   UNL     1      -7.150   8.736   0.118  0.00  0.00    +0.001 A 
ATOM     29  C   UNL     1      -5.891   8.586   0.682  0.00  0.00    +0.002 A 
ATOM     30  C   UNL     1      -5.406   7.335   0.996  0.00  0.00    +0.026 A 
ATOM     31  C   UNL     1      -6.185   6.210   0.747  0.00  0.00    +0.047 A 
ATOM     32  N   UNL     1      -5.991   4.861   0.942  0.00  0.00    -0.357 N 
ATOM     33  C   UNL     1      -7.091   4.167   0.517  0.00  0.00    +0.034 A 
ATOM     34  H   UNL     1      -5.193   4.462   1.323  0.00  0.00    +0.166 HD
ATOM     35  C   UNL     1      -8.014   5.018   0.043  0.00  0.00    +0.032 A 
ATOM     36  C   UNL     1      -7.461   6.367   0.176  0.00  0.00    -0.000 A 
ATOM     37  C   UNL     1      -7.934   7.645  -0.130  0.00  0.00    +0.010 A 
ENDBRANCH  27  33
ENDBRANCH  23  27
ENDBRANCH   1  24
TORSDOF 4
