REMARK  Name = ZINC00366442
REMARK  5 active torsions:
REMARK  status: ('A' for Active; 'I' for Inactive)
REMARK    1  A    between atoms: C_1  and  C_2
REMARK    2  A    between atoms: C_5  and  C_8
REMARK    3  A    between atoms: C_8  and  N_9
REMARK    4  A    between atoms: C_13  and  C_14
REMARK    5  A    between atoms: C_19  and  C_20
REMARK                            x       y       z     vdW  Elec       q    Type
REMARK                         _______ _______ _______ _____ _____    ______ ____
ROOT
ATOM      1  N   UNL     1      -0.130   1.073   1.868  0.00  0.00    -0.216 N 
ATOM      2  C   UNL     1      -1.254   0.530   2.379  0.00  0.00    +0.269 C 
ATOM      3  O   UNL     1      -1.673  -0.597   2.189  0.00  0.00    -0.268 OA
ATOM      4  C   UNL     1      -1.871   1.575   3.213  0.00  0.00    +0.098 C 
ATOM      5  C   UNL     1      -3.019   1.487   3.928  0.00  0.00    +0.036 C 
ATOM      6  N   UNL     1      -1.016   2.679   3.110  0.00  0.00    -0.265 N 
ATOM      7  C   UNL     1       0.005   2.334   2.306  0.00  0.00    +0.313 C 
ATOM      8  O   UNL     1       0.929   3.069   2.012  0.00  0.00    -0.252 OA
ATOM      9  H   UNL     1      -1.137   3.539   3.543  0.00  0.00    +0.157 HD
ENDROOT
BRANCH   5  10
ATOM     10  C   UNL     1      -3.881   0.303   3.792  0.00  0.00    -0.020 A 
ATOM     11  C   UNL     1      -4.110  -0.259   2.531  0.00  0.00    +0.008 A 
ATOM     12  C   UNL     1      -4.915  -1.372   2.413  0.00  0.00    +0.001 A 
ATOM     13  C   UNL     1      -5.504  -1.927   3.535  0.00  0.00    +0.000 A 
ATOM     14  C   UNL     1      -5.287  -1.374   4.785  0.00  0.00    +0.004 A 
ATOM     15  C   UNL     1      -4.480  -0.264   4.921  0.00  0.00    -0.043 A 
ATOM     16  C   UNL     1      -4.245   0.337   6.283  0.00  0.00    +0.044 C 
ENDBRANCH   5  10
BRANCH   1  17
ATOM     17  C   UNL     1       0.806   0.387   0.975  0.00  0.00    +0.153 C 
BRANCH  17  22
ATOM     18  C   UNL     1      -0.779   1.258  -4.514  0.00  0.00    +0.044 C 
ATOM     19  C   UNL     1      -0.366   1.031  -3.083  0.00  0.00    -0.050 A 
ATOM     20  C   UNL     1       0.505   1.910  -2.467  0.00  0.00    +0.003 A 
ATOM     21  C   UNL     1       0.884   1.702  -1.154  0.00  0.00    +0.005 A 
ATOM     22  C   UNL     1       0.392   0.614  -0.457  0.00  0.00    -0.030 A 
ATOM     23  C   UNL     1      -0.475  -0.268  -1.074  0.00  0.00    +0.005 A 
ATOM     24  C   UNL     1      -0.858  -0.057  -2.385  0.00  0.00    +0.003 A 
ENDBRANCH  17  22
ENDBRANCH   1  17
TORSDOF 3
