REMARK  Name = ZINC58157956
REMARK  4 active torsions:
REMARK  status: ('A' for Active; 'I' for Inactive)
REMARK    1  A    between atoms: C_8  and  C_21
REMARK    2  A    between atoms: N_10  and  C_11
REMARK    3  A    between atoms: C_11  and  C_12
REMARK    4  A    between atoms: C_15  and  C_19
REMARK                            x       y       z     vdW  Elec       q    Type
REMARK                         _______ _______ _______ _____ _____    ______ ____
ROOT
ATOM      1  C   UNL     1      -0.017   1.378   0.010  0.00  0.00    +0.000 A 
ATOM      2  C   UNL     1       1.174   2.082   0.002  0.00  0.00    +0.002 A 
ATOM      3  C   UNL     1       2.377   1.411  -0.013  0.00  0.00    +0.023 A 
ATOM      4  C   UNL     1       2.405   0.014  -0.021  0.00  0.00    +0.034 A 
ATOM      5  C   UNL     1       1.206  -0.682  -0.013  0.00  0.00    -0.024 A 
ATOM      6  C   UNL     1       0.002  -0.004   0.002  0.00  0.00    +0.005 A 
ATOM      7  C   UNL     1       1.510  -2.163  -0.023  0.00  0.00    +0.069 C 
ATOM      8  C   UNL     1       3.046  -2.241  -0.038  0.00  0.00    +0.164 C 
ATOM      9  N   UNL     1       3.501  -0.849  -0.036  0.00  0.00    -0.313 N 
ENDROOT
BRANCH   8  10
ATOM     10  C   UNL     1       3.521  -2.947  -1.282  0.00  0.00    +0.231 C 
ATOM     11  O   UNL     1       4.225  -2.363  -2.079  0.00  0.00    -0.274 OA
ATOM     12  N   UNL     1       3.164  -4.226  -1.510  0.00  0.00    -0.328 N 
ATOM     13  H   UNL     1       2.601  -4.693  -0.872  0.00  0.00    +0.145 HD
ATOM     14  H   UNL     1       3.470  -4.681  -2.310  0.00  0.00    +0.145 HD
ENDBRANCH   8  10
BRANCH   9  15
ATOM     15  C   UNL     1       4.903  -0.424  -0.048  0.00  0.00    +0.144 C 
BRANCH  15  16
ATOM     16  C   UNL     1       5.399  -0.285   1.368  0.00  0.00    +0.005 A 
ATOM     17  C   UNL     1       5.464   0.966   1.956  0.00  0.00    +0.009 A 
ATOM     18  C   UNL     1       5.916   1.100   3.252  0.00  0.00    +0.019 A 
ATOM     19  C   UNL     1       6.308  -0.029   3.973  0.00  0.00    +0.055 A 
ATOM     20  C   UNL     1       6.240  -1.290   3.377  0.00  0.00    +0.057 A 
ATOM     21  C   UNL     1       5.781  -1.412   2.079  0.00  0.00    +0.129 A 
ATOM     22  F   UNL     1       5.708  -2.631   1.501  0.00  0.00    -0.205 F 
BRANCH  19  23
ATOM     23  C   UNL     1       6.778   0.104   5.319  0.00  0.00    +0.099 C 
ATOM     24  N   UNL     1       7.151   0.211   6.387  0.00  0.00    -0.191 NA
ENDBRANCH  19  23
ENDBRANCH  15  16
ENDBRANCH   9  15
TORSDOF 4
