REMARK  Name = ZINC39969623
REMARK  11 active torsions:
REMARK  status: ('A' for Active; 'I' for Inactive)
REMARK    1  A    between atoms: C_1  and  C_2
REMARK    2  A    between atoms: C_2  and  C_4
REMARK    3  A    between atoms: C_2  and  N_28
REMARK    4  A    between atoms: C_8  and  S_14
REMARK    5  A    between atoms: N_10  and  C_11
REMARK    6  A    between atoms: C_11  and  C_12
REMARK    7  A    between atoms: S_14  and  C_15
REMARK    8  A    between atoms: C_15  and  C_16
REMARK    9  A    between atoms: C_29  and  C_31
REMARK   10  A    between atoms: C_34  and  O_37
REMARK   11  A    between atoms: O_37  and  C_38
REMARK                            x       y       z     vdW  Elec       q    Type
REMARK                         _______ _______ _______ _____ _____    ______ ____
ROOT
ATOM      1  C   UNL     1       0.853  -0.320  -1.191  0.00  0.00    +0.161 C 
ATOM      2  N   UNL     1       2.243   0.186  -1.229  0.00  0.00    -0.236 NA
ATOM      3  N   UNL     1       2.159   1.433  -2.007  0.00  0.00    -0.229 NA
ATOM      4  C   UNL     1       1.159   1.106  -3.056  0.00  0.00    +0.200 C 
ATOM      5  N   UNL     1       0.159   0.264  -2.358  0.00  0.00    -0.256 NA
ATOM      6  H   UNL     1       2.858  -0.478  -1.675  0.00  0.00    +0.142 HD
ATOM      7  H   UNL     1       3.052   1.663  -2.417  0.00  0.00    +0.143 HD
ENDROOT
BRANCH   1   9
ATOM      8  C   UNL     1       0.927  -0.445   1.303  0.00  0.00    +0.031 C 
ATOM      9  C   UNL     1       0.167   0.124   0.103  0.00  0.00    +0.103 C 
BRANCH   9  10
ATOM     10  N   UNL     1      -1.212  -0.369   0.119  0.00  0.00    -0.306 N 
ATOM     11  C   UNL     1      -2.147   0.270   0.850  0.00  0.00    +0.244 C 
ATOM     12  O   UNL     1      -1.847   1.255   1.495  0.00  0.00    -0.270 OA
ATOM     13  H   UNL     1      -1.452  -1.156  -0.395  0.00  0.00    +0.149 HD
BRANCH  11  14
ATOM     14  C   UNL     1      -3.537  -0.227   0.866  0.00  0.00    +0.037 A 
ATOM     15  C   UNL     1      -3.884  -1.363   0.130  0.00  0.00    +0.016 A 
ATOM     16  C   UNL     1      -5.181  -1.824   0.148  0.00  0.00    +0.046 A 
ATOM     17  C   UNL     1      -6.146  -1.160   0.897  0.00  0.00    +0.120 A 
ATOM     18  C   UNL     1      -5.805  -0.030   1.631  0.00  0.00    +0.046 A 
ATOM     19  C   UNL     1      -4.508   0.434   1.623  0.00  0.00    +0.016 A 
BRANCH  17  20
ATOM     20  O   UNL     1      -7.424  -1.617   0.912  0.00  0.00    -0.495 OA
ATOM     21  C   UNL     1      -8.364  -0.887   1.703  0.00  0.00    +0.277 C 
ENDBRANCH  17  20
ENDBRANCH  11  14
ENDBRANCH   9  10
ENDBRANCH   1   9
BRANCH   5  22
ATOM     22  C   UNL     1      -0.357  -0.788  -3.244  0.00  0.00    +0.115 C 
BRANCH  22  23
ATOM     23  C   UNL     1      -1.260  -0.172  -4.281  0.00  0.00    -0.019 C 
ATOM     24  C   UNL     1      -1.029  -0.373  -5.555  0.00  0.00    +0.005 C 
ENDBRANCH  22  23
ENDBRANCH   5  22
BRANCH   4  25
ATOM     25  S   UNL     1       0.387   2.620  -3.690  0.00  0.00    -0.117 S 
BRANCH  25  26
ATOM     26  C   UNL     1      -0.337   3.393  -2.217  0.00  0.00    +0.146 C 
BRANCH  26  27
ATOM     27  C   UNL     1      -0.914   4.736  -2.586  0.00  0.00    +0.120 A 
ATOM     28  N   UNL     1      -1.500   5.476  -1.609  0.00  0.00    -0.310 N 
ATOM     29  H   UNL     1      -1.537   5.133  -0.703  0.00  0.00    +0.170 HD
ATOM     30  C   UNL     1      -2.032   6.689  -1.889  0.00  0.00    +0.259 A 
ATOM     31  O   UNL     1      -2.560   7.363  -1.024  0.00  0.00    -0.267 OA
ATOM     32  C   UNL     1      -1.948   7.160  -3.280  0.00  0.00    +0.065 A 
ATOM     33  C   UNL     1      -2.465   8.393  -3.673  0.00  0.00    +0.015 A 
ATOM     34  C   UNL     1      -2.360   8.785  -4.989  0.00  0.00    +0.001 A 
ATOM     35  C   UNL     1      -1.743   7.963  -5.923  0.00  0.00    +0.002 A 
ATOM     36  C   UNL     1      -1.226   6.741  -5.556  0.00  0.00    +0.028 A 
ATOM     37  C   UNL     1      -1.321   6.321  -4.227  0.00  0.00    +0.078 A 
ATOM     38  N   UNL     1      -0.820   5.128  -3.821  0.00  0.00    -0.233 NA
ENDBRANCH  26  27
ENDBRANCH  25  26
ENDBRANCH   4  25
TORSDOF 9
