REMARK  Name = ZINC41069848
REMARK  4 active torsions:
REMARK  status: ('A' for Active; 'I' for Inactive)
REMARK    1  A    between atoms: C_6  and  S_7
REMARK    2  A    between atoms: S_7  and  N_10
REMARK    3  A    between atoms: N_10  and  C_11
REMARK    4  A    between atoms: N_19  and  N_20
REMARK                            x       y       z     vdW  Elec       q    Type
REMARK                         _______ _______ _______ _____ _____    ______ ____
ROOT
ATOM      1  C   UNL     1       1.066  -0.470   0.774  0.00  0.00    +0.048 A 
ATOM      2  C   UNL     1       2.316   0.129   0.681  0.00  0.00    +0.038 A 
ATOM      3  C   UNL     1       2.568   1.010  -0.352  0.00  0.00    +0.128 A 
ATOM      4  N   UNL     1       1.638   1.288  -1.247  0.00  0.00    -0.236 NA
ATOM      5  C   UNL     1       0.435   0.737  -1.191  0.00  0.00    +0.159 A 
ATOM      6  C   UNL     1       0.112  -0.160  -0.178  0.00  0.00    +0.147 A 
ATOM      7  N   UNL     1      -0.515   1.059  -2.155  0.00  0.00    -0.266 N 
ATOM      8 BR   UNL     1       3.659  -0.258   1.955  0.00  0.00    -0.049 Br
ATOM      9  H   UNL     1      -1.367   0.597  -2.168  0.00  0.00    +0.167 HD
ENDROOT
BRANCH   6  10
ATOM     10  S   UNL     1      -1.490  -0.890  -0.108  0.00  0.00    +0.062 S 
ATOM     11  O   UNL     1      -1.485  -1.776   1.003  0.00  0.00    -0.153 OA
ATOM     12  O   UNL     1      -2.426   0.172  -0.232  0.00  0.00    -0.153 OA
BRANCH  10  13
ATOM     13  N   UNL     1      -1.659  -1.829  -1.462  0.00  0.00    -0.185 NA
ATOM     14  H   UNL     1      -2.325  -1.602  -2.130  0.00  0.00    +0.148 HD
BRANCH  13  15
ATOM     15  C   UNL     1      -0.802  -3.002  -1.651  0.00  0.00    +0.099 C 
ATOM     16  C   UNL     1      -1.534  -4.256  -1.145  0.00  0.00    +0.044 C 
ATOM     17  C   UNL     1      -0.751  -5.506  -1.637  0.00  0.00    +0.167 C 
ATOM     18  S   UNL     1      -0.316  -4.980  -3.349  0.00  0.00    -0.029 S 
ATOM     19  O   UNL     1      -1.323  -5.434  -4.242  0.00  0.00    -0.174 OA
ATOM     20  O   UNL     1       1.043  -5.307  -3.602  0.00  0.00    -0.174 OA
ATOM     21  C   UNL     1      -0.468  -3.158  -3.154  0.00  0.00    +0.186 C 
ENDBRANCH  13  15
ENDBRANCH  10  13
ENDBRANCH   6  10
BRANCH   7  22
ATOM     22  N   UNL     1      -0.247   2.027  -3.081  0.00  0.00    -0.255 NA
ATOM     23  H   UNL     1       0.599   1.817  -3.589  0.00  0.00    +0.140 HD
ATOM     24  H   UNL     1      -1.026   2.149  -3.711  0.00  0.00    +0.140 HD
ENDBRANCH   7  22
TORSDOF 4
