REMARK  Name = ZINC19295357
REMARK  11 active torsions:
REMARK  status: ('A' for Active; 'I' for Inactive)
REMARK    1  A    between atoms: C_1  and  C_2
REMARK    2  A    between atoms: C_2  and  C_3
REMARK    3  A    between atoms: C_2  and  C_4
REMARK    4  A    between atoms: C_4  and  N_5
REMARK    5  A    between atoms: C_6  and  N_29
REMARK    6  A    between atoms: C_7  and  N_14
REMARK    7  A    between atoms: N_14  and  C_15
REMARK    8  A    between atoms: C_15  and  C_16
REMARK    9  A    between atoms: C_16  and  C_17
REMARK   10  A    between atoms: C_16  and  C_18
REMARK   11  A    between atoms: C_19  and  C_21
REMARK                            x       y       z     vdW  Elec       q    Type
REMARK                         _______ _______ _______ _____ _____    ______ ____
ROOT
ATOM      1  N   UNL     1      -4.608  -3.090  -1.520  0.00  0.00    -0.280 N 
ATOM      2  C   UNL     1      -3.553  -2.229  -1.329  0.00  0.00    +0.127 A 
ATOM      3  C   UNL     1      -3.516  -1.451  -0.191  0.00  0.00    +0.140 A 
ATOM      4  C   UNL     1      -4.560  -1.567   0.746  0.00  0.00    +0.277 A 
ATOM      5  O   UNL     1      -4.550  -0.894   1.763  0.00  0.00    -0.266 OA
ATOM      6  N   UNL     1      -5.574  -2.421   0.508  0.00  0.00    -0.273 N 
ATOM      7  H   UNL     1      -6.399  -2.511   1.230  0.00  0.00    +0.173 HD
ATOM      8  C   UNL     1      -5.593  -3.173  -0.607  0.00  0.00    +0.331 A 
ATOM      9  O   UNL     1      -6.518  -3.940  -0.794  0.00  0.00    -0.246 OA
ENDROOT
BRANCH   3  10
ATOM     10  N   UNL     1      -2.447  -0.558   0.034  0.00  0.00    -0.260 N 
ATOM     11  C   UNL     1      -2.687   0.762   0.163  0.00  0.00    +0.252 C 
ATOM     12  O   UNL     1      -1.758   1.544   0.241  0.00  0.00    -0.270 OA
BRANCH  11  13
ATOM     13  C   UNL     1      -4.076   1.258   0.208  0.00  0.00    +0.051 A 
ATOM     14  C   UNL     1      -5.076   0.614  -0.524  0.00  0.00    +0.017 A 
ATOM     15  C   UNL     1      -6.372   1.078  -0.473  0.00  0.00    +0.039 A 
ATOM     16  C   UNL     1      -6.686   2.186   0.300  0.00  0.00    +0.124 A 
ATOM     17  C   UNL     1      -5.698   2.833   1.025  0.00  0.00    +0.054 A 
ATOM     18  C   UNL     1      -4.396   2.378   0.981  0.00  0.00    +0.033 A 
ATOM     19 BR   UNL     1      -3.049   3.262   1.971  0.00  0.00    -0.049 Br
ATOM     20  F   UNL     1      -7.958   2.636   0.346  0.00  0.00    -0.205 F 
ENDBRANCH  11  13
BRANCH  10  21
ATOM     21  C   UNL     1      -1.076  -1.066   0.126  0.00  0.00    +0.117 C 
BRANCH  21  22
ATOM     22  C   UNL     1      -0.704  -1.265   1.597  0.00  0.00    +0.001 C 
ATOM     23  C   UNL     1      -1.563  -2.382   2.194  0.00  0.00    +0.009 C 
ATOM     24  C   UNL     1       0.774  -1.647   1.702  0.00  0.00    +0.009 C 
ENDBRANCH  21  22
ENDBRANCH  10  21
ENDBRANCH   3  10
BRANCH   2  25
ATOM     25  N   UNL     1      -2.547  -2.146  -2.262  0.00  0.00    -0.343 N 
ATOM     26  H   UNL     1      -1.705  -1.455  -2.103  0.00  0.00    +0.144 HD
ATOM     27  H   UNL     1      -2.583  -2.769  -3.168  0.00  0.00    +0.144 HD
ENDBRANCH   2  25
BRANCH   1  28
ATOM     28  C   UNL     1      -4.660  -3.923  -2.724  0.00  0.00    +0.131 C 
BRANCH  28  30
ATOM     29  C   UNL     1      -4.116  -6.171  -3.669  0.00  0.00    +0.009 C 
ATOM     30  C   UNL     1      -3.954  -5.253  -2.456  0.00  0.00    +0.003 C 
ATOM     31  C   UNL     1      -2.467  -5.000  -2.203  0.00  0.00    +0.009 C 
ENDBRANCH  28  30
ENDBRANCH   1  28
TORSDOF 7
