REMARK  Name = ZINC09049181
REMARK  10 active torsions:
REMARK  status: ('A' for Active; 'I' for Inactive)
REMARK    1  A    between atoms: C_4  and  C_7
REMARK    2  A    between atoms: C_12  and  O_29
REMARK    3  A    between atoms: C_14  and  O_18
REMARK    4  A    between atoms: O_18  and  C_19
REMARK    5  A    between atoms: C_19  and  C_20
REMARK    6  A    between atoms: N_22  and  C_23
REMARK    7  A    between atoms: C_23  and  C_24
REMARK    8  A    between atoms: C_24  and  C_26
REMARK    9  A    between atoms: C_24  and  O_28
REMARK   10  A    between atoms: C_26  and  O_27
REMARK                            x       y       z     vdW  Elec       q    Type
REMARK                         _______ _______ _______ _____ _____    ______ ____
ROOT
ATOM      1  C   UNL     1      -0.152   1.943  13.270  0.00  0.00    +0.139 A 
ATOM      2  C   UNL     1      -1.310   2.632  13.445  0.00  0.00    +0.098 A 
ATOM      3  C   UNL     1      -2.073   3.014  12.314  0.00  0.00    +0.197 A 
ATOM      4  O   UNL     1      -3.118   3.633  12.433  0.00  0.00    -0.287 OA
ATOM      5  C   UNL     1      -1.556   2.633  10.989  0.00  0.00    +0.105 A 
ATOM      6  C   UNL     1      -2.245   2.968   9.816  0.00  0.00    +0.135 A 
ATOM      7  C   UNL     1      -1.722   2.597   8.591  0.00  0.00    +0.092 A 
ATOM      8  C   UNL     1      -0.528   1.887   8.526  0.00  0.00    +0.128 A 
ATOM      9  C   UNL     1       0.158   1.553   9.683  0.00  0.00    +0.092 A 
ATOM     10  C   UNL     1      -0.347   1.921  10.921  0.00  0.00    +0.146 A 
ATOM     11  O   UNL     1       0.309   1.602  12.057  0.00  0.00    -0.454 OA
ENDROOT
BRANCH   1  15
ATOM     12  C   UNL     1       2.093   0.824  16.696  0.00  0.00    +0.000 A 
ATOM     13  C   UNL     1       2.548   0.486  15.434  0.00  0.00    +0.001 A 
ATOM     14  C   UNL     1       1.823   0.846  14.317  0.00  0.00    +0.011 A 
ATOM     15  C   UNL     1       0.629   1.554  14.462  0.00  0.00    +0.017 A 
ATOM     16  C   UNL     1       0.179   1.898  15.738  0.00  0.00    +0.011 A 
ATOM     17  C   UNL     1       0.910   1.526  16.847  0.00  0.00    +0.001 A 
ENDBRANCH   1  15
BRANCH   6  18
ATOM     18  O   UNL     1      -3.412   3.657   9.881  0.00  0.00    -0.506 OA
ATOM     19  H   UNL     1      -3.304   4.617   9.855  0.00  0.00    +0.292 HD
ENDBRANCH   6  18
BRANCH   8  20
ATOM     20  O   UNL     1      -0.027   1.523   7.318  0.00  0.00    -0.483 OA
BRANCH  20  21
ATOM     21  C   UNL     1      -0.781   1.897   6.164  0.00  0.00    +0.324 C 
BRANCH  21  22
ATOM     22  C   UNL     1      -0.076   1.411   4.924  0.00  0.00    +0.251 C 
ATOM     23  O   UNL     1       0.970   0.804   5.019  0.00  0.00    -0.272 OA
ATOM     24  N   UNL     1      -0.607   1.651   3.708  0.00  0.00    -0.310 N 
ATOM     25  H   UNL     1      -1.443   2.137   3.632  0.00  0.00    +0.149 HD
BRANCH  24  26
ATOM     26  C   UNL     1       0.079   1.179   2.503  0.00  0.00    +0.137 C 
BRANCH  26  27
ATOM     27  C   UNL     1      -0.729   1.579   1.267  0.00  0.00    +0.157 C 
BRANCH  27  28
ATOM     28  O   UNL     1      -2.030   0.991   1.336  0.00  0.00    -0.388 OA
ATOM     29  H   UNL     1      -2.023   0.025   1.372  0.00  0.00    +0.210 HD
ENDBRANCH  27  28
BRANCH  27  30
ATOM     30  C   UNL     1      -0.013   1.086   0.008  0.00  0.00    +0.188 C 
BRANCH  30  31
ATOM     31  O   UNL     1      -0.704   1.559  -1.150  0.00  0.00    -0.392 OA
ATOM     32  H   UNL     1      -0.304   1.284  -1.986  0.00  0.00    +0.210 HD
ENDBRANCH  30  31
ENDBRANCH  27  30
ENDBRANCH  26  27
ENDBRANCH  24  26
ENDBRANCH  21  22
ENDBRANCH  20  21
ENDBRANCH   8  20
TORSDOF 10
