REMARK  Name = ZINC19433870
REMARK  3 active torsions:
REMARK  status: ('A' for Active; 'I' for Inactive)
REMARK    1  A    between atoms: C_1  and  C_2
REMARK    2  A    between atoms: C_8  and  N_10
REMARK    3  A    between atoms: C_11  and  C_13
REMARK                            x       y       z     vdW  Elec       q    Type
REMARK                         _______ _______ _______ _____ _____    ______ ____
ROOT
ATOM      1  N   UNL     1      -2.168  -0.402  -1.229  0.00  0.00    -0.309 N 
ATOM      2  C   UNL     1      -2.068  -1.068  -2.396  0.00  0.00    +0.256 C 
ATOM      3  O   UNL     1      -1.995  -0.455  -3.440  0.00  0.00    -0.272 OA
ATOM      4  H   UNL     1      -2.235  -0.958  -0.282  0.00  0.00    +0.149 HD
ENDROOT
BRANCH   2   5
ATOM      5  C   UNL     1      -2.048  -2.575  -2.404  0.00  0.00    +0.275 C 
ATOM      6  C   UNL     1      -0.773  -3.076  -1.711  0.00  0.00    +0.155 C 
ATOM      7  N   UNL     1      -0.774  -4.547  -1.787  0.00  0.00    -0.337 N 
ATOM      8  C   UNL     1      -1.170  -5.137  -2.998  0.00  0.00    +0.070 A 
ATOM      9  C   UNL     1      -0.926  -6.482  -3.227  0.00  0.00    +0.026 A 
ATOM     10  C   UNL     1      -1.323  -7.060  -4.419  0.00  0.00    +0.002 A 
ATOM     11  C   UNL     1      -1.964  -6.299  -5.379  0.00  0.00    +0.004 A 
ATOM     12  C   UNL     1      -2.208  -4.957  -5.155  0.00  0.00    +0.047 A 
ATOM     13  C   UNL     1      -1.812  -4.368  -3.964  0.00  0.00    +0.142 A 
ATOM     14  O   UNL     1      -2.054  -3.047  -3.754  0.00  0.00    -0.476 OA
ATOM     15  H   UNL     1      -0.472  -5.143  -0.913  0.00  0.00    +0.146 HD
ENDBRANCH   2   5
BRANCH   1  22
ATOM     16  C   UNL     1      -4.340   1.027   0.049  0.00  0.00    +0.009 C 
ATOM     17  C   UNL     1      -2.904   1.556   0.038  0.00  0.00    +0.006 C 
ATOM     18  C   UNL     1      -2.164   1.050   1.278  0.00  0.00    +0.005 C 
ATOM     19  C   UNL     1      -0.729   1.579   1.267  0.00  0.00    +0.000 C 
ATOM     20  C   UNL     1      -0.013   1.086   0.008  0.00  0.00    +0.002 C 
ATOM     21  C   UNL     1      -0.753   1.593  -1.232  0.00  0.00    +0.022 C 
ATOM     22  C   UNL     1      -2.188   1.063  -1.221  0.00  0.00    +0.076 C 
ENDBRANCH   1  22
TORSDOF 2
