REMARK  Name = ZINC35476909
REMARK  7 active torsions:
REMARK  status: ('A' for Active; 'I' for Inactive)
REMARK    1  A    between atoms: C_1  and  C_2
REMARK    2  A    between atoms: C_3  and  C_30
REMARK    3  A    between atoms: C_5  and  N_21
REMARK    4  A    between atoms: C_6  and  C_7
REMARK    5  A    between atoms: C_7  and  C_9
REMARK    6  A    between atoms: C_7  and  N_14
REMARK    7  A    between atoms: C_22  and  C_24
REMARK                            x       y       z     vdW  Elec       q    Type
REMARK                         _______ _______ _______ _____ _____    ______ ____
ROOT
ATOM      1  C   UNL     1       0.124   1.987   0.481  0.00  0.00    +0.045 C 
ATOM      2  C   UNL     1       0.140   0.519   0.143  0.00  0.00    -0.033 A 
ATOM      3  C   UNL     1       0.089   0.110  -1.147  0.00  0.00    -0.008 A 
ATOM      4  S   UNL     1       0.134  -1.666  -0.978  0.00  0.00    -0.078 S 
ATOM      5  C   UNL     1       0.218  -1.749   0.803  0.00  0.00    +0.078 A 
ATOM      6  C   UNL     1       0.212  -0.430   1.146  0.00  0.00    +0.009 A 
ATOM      7  C   UNL     1       0.013   0.941  -2.402  0.00  0.00    +0.052 C 
ENDROOT
BRANCH   5   8
ATOM      8  N   UNL     1       0.281  -2.873   1.630  0.00  0.00    -0.276 N 
ATOM      9  C   UNL     1       0.298  -4.107   1.089  0.00  0.00    +0.249 C 
ATOM     10  O   UNL     1       0.261  -4.242  -0.119  0.00  0.00    -0.270 OA
ATOM     11  H   UNL     1       0.311  -2.765   2.593  0.00  0.00    +0.156 HD
BRANCH   9  12
ATOM     12  C   UNL     1       0.364  -5.296   1.963  0.00  0.00    +0.037 A 
ATOM     13  C   UNL     1       0.402  -5.145   3.351  0.00  0.00    +0.013 A 
ATOM     14  C   UNL     1       0.463  -6.260   4.161  0.00  0.00    +0.001 A 
ATOM     15  C   UNL     1       0.487  -7.525   3.603  0.00  0.00    +0.000 A 
ATOM     16  C   UNL     1       0.450  -7.682   2.228  0.00  0.00    +0.001 A 
ATOM     17  C   UNL     1       0.383  -6.576   1.406  0.00  0.00    +0.013 A 
ENDBRANCH   9  12
ENDBRANCH   5   8
BRANCH   6  18
ATOM     18  C   UNL     1       0.278  -0.014   2.593  0.00  0.00    +0.135 C 
BRANCH  18  19
ATOM     19  N   UNL     1      -0.626  -0.853   3.384  0.00  0.00    -0.320 N 
ATOM     20  C   UNL     1      -1.028  -0.441   4.649  0.00  0.00    +0.097 A 
ATOM     21  C   UNL     1      -0.572   0.772   5.157  0.00  0.00    +0.041 A 
ATOM     22  C   UNL     1      -0.980   1.169   6.417  0.00  0.00    +0.005 A 
ATOM     23  C   UNL     1      -1.833   0.338   7.131  0.00  0.00    +0.018 A 
ATOM     24  C   UNL     1      -2.245  -0.852   6.566  0.00  0.00    +0.084 A 
ATOM     25  N   UNL     1      -1.845  -1.204   5.359  0.00  0.00    -0.350 N 
ATOM     26  H   UNL     1      -0.944  -1.696   3.025  0.00  0.00    +0.148 HD
ATOM     27  H   UNL     1      -2.153  -2.044   4.984  0.00  0.00    +0.166 HD
ENDBRANCH  18  19
BRANCH  18  28
ATOM     28  C   UNL     1       1.687  -0.177   3.100  0.00  0.00    -0.016 A 
ATOM     29  C   UNL     1       2.580   0.876   3.042  0.00  0.00    +0.013 A 
ATOM     30  C   UNL     1       3.841   0.696   3.507  0.00  0.00    +0.045 A 
ATOM     31  S   UNL     1       3.795  -1.005   4.048  0.00  0.00    -0.105 S 
ATOM     32  C   UNL     1       2.097  -1.358   3.624  0.00  0.00    +0.051 A 
ENDBRANCH  18  28
ENDBRANCH   6  18
TORSDOF 5
