REMARK  Name = ZINC06421800
REMARK  7 active torsions:
REMARK  status: ('A' for Active; 'I' for Inactive)
REMARK    1  A    between atoms: C_1  and  C_2
REMARK    2  A    between atoms: C_2  and  C_4
REMARK    3  A    between atoms: C_2  and  O_15
REMARK    4  A    between atoms: N_6  and  C_7
REMARK    5  A    between atoms: O_15  and  C_16
REMARK    6  A    between atoms: C_16  and  C_18
REMARK    7  A    between atoms: C_22  and  N_24
REMARK                            x       y       z     vdW  Elec       q    Type
REMARK                         _______ _______ _______ _____ _____    ______ ____
ROOT
ATOM      1  C   UNL     1       5.377   4.447   1.433  0.00  0.00    +0.062 C 
ATOM      2  C   UNL     1       4.913   4.206  -0.005  0.00  0.00    +0.259 C 
ENDROOT
BRANCH   2   3
ATOM      3  C   UNL     1       4.777   5.528  -0.717  0.00  0.00    +0.258 C 
ATOM      4  O   UNL     1       3.686   5.906  -1.089  0.00  0.00    -0.271 OA
ATOM      5  N   UNL     1       5.867   6.288  -0.940  0.00  0.00    -0.281 N 
ATOM      6  H   UNL     1       6.728   6.017  -0.586  0.00  0.00    +0.155 HD
BRANCH   5   7
ATOM      7  C   UNL     1       5.756   7.470  -1.683  0.00  0.00    +0.052 A 
ATOM      8  C   UNL     1       4.606   8.243  -1.592  0.00  0.00    +0.026 A 
ATOM      9  C   UNL     1       4.499   9.409  -2.326  0.00  0.00    +0.022 A 
ATOM     10  C   UNL     1       5.536   9.806  -3.152  0.00  0.00    +0.042 A 
ATOM     11  C   UNL     1       6.682   9.037  -3.246  0.00  0.00    +0.041 A 
ATOM     12  C   UNL     1       6.798   7.873  -2.509  0.00  0.00    +0.064 A 
ATOM     13 CL   UNL     1       8.239   6.913  -2.621  0.00  0.00    -0.082 Cl
ATOM     14 CL   UNL     1       5.397  11.271  -4.073  0.00  0.00    -0.083 Cl
ENDBRANCH   5   7
ENDBRANCH   2   3
BRANCH   2  15
ATOM     15  O   UNL     1       3.629   3.529   0.008  0.00  0.00    -0.449 OA
BRANCH  15  16
ATOM     16  C   UNL     1       3.648   2.182   0.011  0.00  0.00    +0.340 C 
ATOM     17  O   UNL     1       4.709   1.589   0.002  0.00  0.00    -0.245 OA
BRANCH  16  18
ATOM     18  C   UNL     1       2.380   1.425   0.023  0.00  0.00    +0.061 A 
ATOM     19  C   UNL     1       1.159   2.104   0.033  0.00  0.00    +0.016 A 
ATOM     20  C   UNL     1      -0.024   1.396   0.045  0.00  0.00    +0.022 A 
ATOM     21  C   UNL     1      -0.007   0.012   0.048  0.00  0.00    +0.062 A 
ATOM     22  C   UNL     1       1.203  -0.673   0.039  0.00  0.00    +0.044 A 
ATOM     23  C   UNL     1       2.397   0.030   0.026  0.00  0.00    +0.039 A 
ATOM     24 CL   UNL     1      -1.502  -0.872   0.064  0.00  0.00    -0.082 Cl
BRANCH  22  25
ATOM     25  N   UNL     1       1.215  -2.071   0.042  0.00  0.00    -0.357 N 
ATOM     26  H   UNL     1       0.379  -2.563   0.051  0.00  0.00    +0.142 HD
ATOM     27  H   UNL     1       2.059  -2.549   0.035  0.00  0.00    +0.142 HD
ENDBRANCH  22  25
ENDBRANCH  16  18
ENDBRANCH  15  16
ENDBRANCH   2  15
TORSDOF 6
