REMARK  Name = ZINC52214831
REMARK  4 active torsions:
REMARK  status: ('A' for Active; 'I' for Inactive)
REMARK    1  A    between atoms: C_1  and  C_2
REMARK    2  A    between atoms: C_8  and  C_9
REMARK    3  A    between atoms: C_8  and  N_12
REMARK    4  A    between atoms: N_12  and  C_13
REMARK                            x       y       z     vdW  Elec       q    Type
REMARK                         _______ _______ _______ _____ _____    ______ ____
ROOT
ATOM      1  C   UNL     1      -0.019   1.526   0.010  0.00  0.00    +0.006 C 
ATOM      2  C   UNL     1       0.002  -0.004   0.002  0.00  0.00    -0.014 C 
ATOM      3  C   UNL     1      -1.433  -0.534   0.013  0.00  0.00    +0.002 C 
ATOM      4  C   UNL     1      -1.413  -2.063   0.004  0.00  0.00    +0.000 C 
ATOM      5  C   UNL     1      -0.673  -2.570   1.244  0.00  0.00    -0.001 C 
ATOM      6  C   UNL     1       0.763  -2.041   1.233  0.00  0.00    -0.001 C 
ATOM      7  C   UNL     1       0.742  -0.511   1.242  0.00  0.00    +0.038 C 
ENDROOT
BRANCH   7   8
ATOM      8  C   UNL     1       2.156   0.011   1.231  0.00  0.00    +0.346 C 
ATOM      9  O   UNL     1       2.554   0.712   2.145  0.00  0.00    -0.248 OA
ATOM     10  O   UNL     1       2.902  -0.269   0.308  0.00  0.00    -0.248 OA
ENDBRANCH   7   8
BRANCH   7  11
ATOM     11  N   UNL     1       0.054  -0.037   2.450  0.00  0.00    +0.392 N 
ATOM     12  H   UNL     1       0.041   0.972   2.456  0.00  0.00    -0.084 HD
ATOM     13  H   UNL     1      -0.892  -0.386   2.457  0.00  0.00    -0.084 HD
BRANCH  11  14
ATOM     14  C   UNL     1       0.765  -0.524   3.640  0.00  0.00    -0.070 C 
ATOM     15  C   UNL     1       0.307  -1.916   4.105  0.00  0.00    -0.016 C 
ATOM     16  C   UNL     1       0.421  -1.387   5.544  0.00  0.00    -0.003 C 
ATOM     17  C   UNL     1       0.196   0.018   4.962  0.00  0.00    -0.016 C 
ENDBRANCH  11  14
ENDBRANCH   7  11
TORSDOF 3
