REMARK  Name = ZINC02948665
REMARK  6 active torsions:
REMARK  status: ('A' for Active; 'I' for Inactive)
REMARK    1  A    between atoms: C_5  and  C_7
REMARK    2  A    between atoms: C_7  and  S_8
REMARK    3  A    between atoms: S_8  and  C_9
REMARK    4  A    between atoms: C_17  and  N_19
REMARK    5  A    between atoms: N_19  and  C_20
REMARK    6  A    between atoms: C_20  and  C_21
REMARK                            x       y       z     vdW  Elec       q    Type
REMARK                         _______ _______ _______ _____ _____    ______ ____
ROOT
ATOM      1  C   UNL     1      -1.074  -2.047   0.000  0.00  0.00    +0.191 A 
ATOM      2  N   UNL     1      -1.127  -0.728   0.009  0.00  0.00    -0.222 NA
ATOM      3  C   UNL     1       0.002  -0.004   0.002  0.00  0.00    +0.077 A 
ATOM      4  C   UNL     1      -0.017   1.397   0.010  0.00  0.00    +0.028 A 
ATOM      5  C   UNL     1       1.159   2.087   0.002  0.00  0.00    +0.002 A 
ATOM      6  C   UNL     1       2.381   1.420  -0.013  0.00  0.00    +0.001 A 
ATOM      7  C   UNL     1       2.435   0.057  -0.021  0.00  0.00    +0.013 A 
ATOM      8  C   UNL     1       1.246  -0.680  -0.013  0.00  0.00    +0.040 A 
ATOM      9  C   UNL     1       1.241  -2.098  -0.021  0.00  0.00    +0.131 A 
ATOM     10  N   UNL     1       0.073  -2.722  -0.014  0.00  0.00    -0.206 NA
ENDROOT
BRANCH   9  11
ATOM     11  N   UNL     1       2.422  -2.808  -0.037  0.00  0.00    -0.321 N 
ATOM     12  H   UNL     1       3.271  -2.339  -0.043  0.00  0.00    +0.148 HD
BRANCH  11  13
ATOM     13  C   UNL     1       2.395  -4.273  -0.045  0.00  0.00    +0.177 C 
BRANCH  13  14
ATOM     14  C   UNL     1       3.807  -4.801  -0.062  0.00  0.00    +0.122 A 
ATOM     15  C   UNL     1       4.554  -5.083   1.020  0.00  0.00    +0.046 A 
ATOM     16  C   UNL     1       5.802  -5.549   0.546  0.00  0.00    +0.041 A 
ATOM     17  C   UNL     1       5.742  -5.524  -0.797  0.00  0.00    +0.195 A 
ATOM     18  O   UNL     1       4.530  -5.076  -1.160  0.00  0.00    -0.466 OA
ENDBRANCH  13  14
ENDBRANCH  11  13
ENDBRANCH   9  11
BRANCH   1  19
ATOM     19  S   UNL     1      -2.586  -2.953   0.009  0.00  0.00    -0.081 S 
BRANCH  19  20
ATOM     20  C   UNL     1      -3.771  -1.585   0.028  0.00  0.00    +0.114 C 
BRANCH  20  25
ATOM     21  C   UNL     1      -7.115  -2.885  -1.145  0.00  0.00    +0.000 A 
ATOM     22  C   UNL     1      -7.748  -3.146   0.056  0.00  0.00    +0.001 A 
ATOM     23  C   UNL     1      -7.094  -2.901   1.249  0.00  0.00    +0.020 A 
ATOM     24  C   UNL     1      -5.806  -2.395   1.241  0.00  0.00    +0.045 A 
ATOM     25  C   UNL     1      -5.174  -2.136   0.038  0.00  0.00    -0.019 A 
ATOM     26  C   UNL     1      -5.830  -2.376  -1.154  0.00  0.00    +0.006 A 
ATOM     27 CL   UNL     1      -4.985  -2.087   2.739  0.00  0.00    -0.083 Cl
ENDBRANCH  20  25
ENDBRANCH  19  20
ENDBRANCH   1  19
TORSDOF 6
