REMARK  Name = ZINC16957675
REMARK  12 active torsions:
REMARK  status: ('A' for Active; 'I' for Inactive)
REMARK    1  A    between atoms: C_1  and  C_2
REMARK    2  A    between atoms: C_5  and  C_8
REMARK    3  A    between atoms: C_8  and  C_10
REMARK    4  A    between atoms: C_11  and  C_12
REMARK    5  A    between atoms: N_14  and  C_21
REMARK    6  A    between atoms: C_21  and  C_22
REMARK    7  A    between atoms: C_22  and  C_24
REMARK    8  A    between atoms: C_22  and  O_38
REMARK    9  A    between atoms: C_24  and  N_66
REMARK   10  A    between atoms: C_25  and  C_26
REMARK   11  A    between atoms: C_25  and  N_66
REMARK   12  A    between atoms: C_26  and  C_27
REMARK                            x       y       z     vdW  Elec       q    Type
REMARK                         _______ _______ _______ _____ _____    ______ ____
ROOT
ATOM      1  C   UNL     1      -2.968  -0.067   0.016  0.00  0.00    +0.151 C 
ENDROOT
BRANCH   1   4
ATOM      2  C   UNL     1      -2.647   3.564   0.045  0.00  0.00    +0.000 A 
ATOM      3  C   UNL     1      -3.381   2.397   0.030  0.00  0.00    +0.094 A 
ATOM      4  N   UNL     1      -2.541   1.334   0.021  0.00  0.00    -0.344 N 
ATOM      5  C   UNL     1      -1.226   1.755   0.017  0.00  0.00    +0.050 A 
ATOM      6  C   UNL     1      -1.228   3.159   0.030  0.00  0.00    +0.007 A 
ATOM      7  C   UNL     1      -0.025   3.860   0.022  0.00  0.00    +0.010 A 
ATOM      8  C   UNL     1       1.167   3.168   0.007  0.00  0.00    +0.001 A 
ATOM      9  C   UNL     1       1.171   1.782   0.000  0.00  0.00    +0.002 A 
ATOM     10  C   UNL     1      -0.013   1.076   0.008  0.00  0.00    +0.026 A 
BRANCH   2  12
ATOM     11  C   UNL     1      -4.511   5.142   0.071  0.00  0.00    +0.052 C 
ATOM     12  C   UNL     1      -3.170   4.929   0.057  0.00  0.00    +0.014 C 
BRANCH  11  13
ATOM     13  C   UNL     1      -5.016   6.460   0.082  0.00  0.00    +0.186 C 
ATOM     14  O   UNL     1      -4.249   7.407   0.080  0.00  0.00    -0.287 OA
BRANCH  13  19
ATOM     15  C   UNL     1     -10.701   7.364   0.141  0.00  0.00    +0.044 C 
ATOM     16  C   UNL     1      -9.213   7.127   0.125  0.00  0.00    -0.050 A 
ATOM     17  C   UNL     1      -8.344   8.204   0.123  0.00  0.00    +0.004 A 
ATOM     18  C   UNL     1      -6.981   7.994   0.109  0.00  0.00    +0.012 A 
ATOM     19  C   UNL     1      -6.478   6.692   0.097  0.00  0.00    +0.022 A 
ATOM     20  C   UNL     1      -7.359   5.610   0.094  0.00  0.00    +0.012 A 
ATOM     21  C   UNL     1      -8.721   5.834   0.115  0.00  0.00    +0.004 A 
ENDBRANCH  13  19
ENDBRANCH  11  13
ENDBRANCH   2  12
ENDBRANCH   1   4
BRANCH   1  22
ATOM     22  C   UNL     1      -2.990  -0.598   1.451  0.00  0.00    +0.117 C 
BRANCH  22  23
ATOM     23  O   UNL     1      -3.987   0.098   2.201  0.00  0.00    -0.392 OA
ATOM     24  H   UNL     1      -4.882   0.004   1.848  0.00  0.00    +0.210 HD
ENDBRANCH  22  23
BRANCH  22  25
ATOM     25  C   UNL     1      -3.314  -2.093   1.437  0.00  0.00    -0.049 C 
BRANCH  25  26
ATOM     26  N   UNL     1      -3.334  -2.597   2.823  0.00  0.00    +0.381 N 
ATOM     27  H   UNL     1      -4.049  -2.090   3.357  0.00  0.00    -0.086 HD
ATOM     28  H   UNL     1      -2.414  -2.444   3.252  0.00  0.00    -0.086 HD
BRANCH  26  29
ATOM     29  C   UNL     1      -3.645  -4.039   2.839  0.00  0.00    -0.078 C 
BRANCH  29  30
ATOM     30  C   UNL     1      -3.659  -4.532   4.288  0.00  0.00    +0.018 C 
BRANCH  30  31
ATOM     31  C   UNL     1      -3.976  -6.006   4.313  0.00  0.00    -0.024 A 
ATOM     32  C   UNL     1      -5.186  -6.559   4.488  0.00  0.00    +0.087 A 
ATOM     33  N   UNL     1      -5.086  -7.923   4.452  0.00  0.00    -0.360 N 
ATOM     34  H   UNL     1      -5.828  -8.539   4.554  0.00  0.00    +0.165 HD
ATOM     35  C   UNL     1      -3.773  -8.290   4.247  0.00  0.00    +0.047 A 
ATOM     36  C   UNL     1      -3.022  -7.105   4.146  0.00  0.00    +0.005 A 
ATOM     37  C   UNL     1      -1.643  -7.169   3.941  0.00  0.00    +0.048 A 
ATOM     38  C   UNL     1      -1.027  -8.397   3.829  0.00  0.00    +0.124 A 
ATOM     39  C   UNL     1      -1.771  -9.567   3.924  0.00  0.00    +0.040 A 
ATOM     40  C   UNL     1      -3.132  -9.518   4.131  0.00  0.00    +0.029 A 
ATOM     41  F   UNL     1       0.307  -8.464   3.626  0.00  0.00    -0.205 F 
ENDBRANCH  30  31
ENDBRANCH  29  30
ENDBRANCH  26  29
ENDBRANCH  25  26
ENDBRANCH  22  25
ENDBRANCH   1  22
TORSDOF 11
