REMARK  Name = ZINC02255368
REMARK  7 active torsions:
REMARK  status: ('A' for Active; 'I' for Inactive)
REMARK    1  A    between atoms: C_1  and  C_2
REMARK    2  A    between atoms: C_5  and  C_8
REMARK    3  A    between atoms: N_9  and  N_10
REMARK    4  A    between atoms: C_11  and  N_33
REMARK    5  A    between atoms: C_12  and  C_23
REMARK    6  A    between atoms: N_25  and  C_26
REMARK    7  A    between atoms: C_26  and  C_27
REMARK                            x       y       z     vdW  Elec       q    Type
REMARK                         _______ _______ _______ _____ _____    ______ ____
ROOT
ATOM      1  N   UNL     1       3.271   6.136   0.002  0.00  0.00    -0.198 N 
ATOM      2  C   UNL     1       2.723   7.384   0.013  0.00  0.00    +0.134 A 
ATOM      3  C   UNL     1       1.334   7.304   0.027  0.00  0.00    +0.105 A 
ATOM      4  C   UNL     1       0.997   5.871   0.023  0.00  0.00    +0.124 A 
ATOM      5  C   UNL     1       2.284   5.169   0.007  0.00  0.00    +0.183 A 
ATOM      6  N   UNL     1       2.302   3.853  -0.000  0.00  0.00    -0.224 NA
ATOM      7  C   UNL     1       1.151   3.169   0.008  0.00  0.00    +0.092 A 
ATOM      8  C   UNL     1       1.162   1.762   0.000  0.00  0.00    +0.030 A 
ATOM      9  C   UNL     1      -0.013   1.076   0.008  0.00  0.00    +0.002 A 
ATOM     10  C   UNL     1      -1.235   1.746   0.017  0.00  0.00    +0.002 A 
ATOM     11  C   UNL     1      -1.286   3.105   0.030  0.00  0.00    +0.030 A 
ATOM     12  C   UNL     1      -0.092   3.850   0.023  0.00  0.00    +0.090 A 
ATOM     13  N   UNL     1      -0.130   5.189   0.031  0.00  0.00    -0.241 NA
ENDROOT
BRANCH   3  14
ATOM     14  C   UNL     1       0.395   8.423   0.041  0.00  0.00    +0.250 C 
ATOM     15  O   UNL     1      -0.007   8.895  -1.008  0.00  0.00    -0.270 OA
ATOM     16  N   UNL     1      -0.028   8.934   1.215  0.00  0.00    -0.309 N 
ATOM     17  H   UNL     1       0.292   8.558   2.050  0.00  0.00    +0.149 HD
BRANCH  16  18
ATOM     18  C   UNL     1      -0.970  10.055   1.229  0.00  0.00    +0.136 C 
BRANCH  18  19
ATOM     19  C   UNL     1      -1.284  10.439   2.677  0.00  0.00    +0.135 C 
ATOM     20  C   UNL     1      -2.275  11.619   2.703  0.00  0.00    +0.035 C 
ATOM     21  C   UNL     1      -3.488  11.078   3.497  0.00  0.00    +0.031 C 
ATOM     22  C   UNL     1      -2.862   9.897   4.283  0.00  0.00    +0.160 C 
ATOM     23  O   UNL     1      -1.915   9.336   3.348  0.00  0.00    -0.375 OA
ENDBRANCH  18  19
ENDBRANCH  16  18
ENDBRANCH   3  14
BRANCH   2  24
ATOM     24  N   UNL     1       3.439   8.553   0.012  0.00  0.00    -0.342 N 
ATOM     25  H   UNL     1       4.409   8.528   0.002  0.00  0.00    +0.144 HD
ATOM     26  H   UNL     1       2.977   9.406   0.021  0.00  0.00    +0.144 HD
ENDBRANCH   2  24
BRANCH   1  28
ATOM     27  C   UNL     1       5.273   5.752  -1.143  0.00  0.00    +0.141 C 
ATOM     28  N   UNL     1       4.646   5.870  -0.013  0.00  0.00    -0.171 NA
BRANCH  27  33
ATOM     29  C   UNL     1      10.919   4.660  -1.202  0.00  0.00    +0.044 C 
ATOM     30  C   UNL     1       9.440   4.946  -1.187  0.00  0.00    -0.050 A 
ATOM     31  C   UNL     1       8.752   5.082  -2.380  0.00  0.00    +0.004 A 
ATOM     32  C   UNL     1       7.398   5.344  -2.373  0.00  0.00    +0.010 A 
ATOM     33  C   UNL     1       6.721   5.472  -1.158  0.00  0.00    -0.005 A 
ATOM     34  C   UNL     1       7.422   5.338   0.043  0.00  0.00    +0.010 A 
ATOM     35  C   UNL     1       8.775   5.071   0.021  0.00  0.00    +0.004 A 
ENDBRANCH  27  33
ENDBRANCH   1  28
TORSDOF 6
