REMARK  Name = ZINC17352104
REMARK  3 active torsions:
REMARK  status: ('A' for Active; 'I' for Inactive)
REMARK    1  A    between atoms: C_4  and  C_7
REMARK    2  A    between atoms: N_8  and  N_9
REMARK    3  A    between atoms: C_11  and  N_17
REMARK                            x       y       z     vdW  Elec       q    Type
REMARK                         _______ _______ _______ _____ _____    ______ ____
ROOT
ATOM      1  N   UNL     1      -2.326   3.931   0.044  0.00  0.00    -0.218 N 
ATOM      2  C   UNL     1      -1.154   3.179   0.029  0.00  0.00    +0.181 A 
ATOM      3  C   UNL     1      -1.215   1.777   0.017  0.00  0.00    +0.071 A 
ATOM      4  C   UNL     1      -0.013   1.076   0.008  0.00  0.00    +0.068 A 
ATOM      5  C   UNL     1       1.166   1.807   0.001  0.00  0.00    +0.153 A 
ATOM      6  N   UNL     1       1.126   3.126   0.008  0.00  0.00    -0.136 NA
ATOM      7  N   UNL     1       0.023   3.782   0.021  0.00  0.00    -0.129 NA
ATOM      8 CL   UNL     1       2.696   0.986  -0.018  0.00  0.00    -0.060 Cl
ATOM      9  H   UNL     1      -3.188   3.486   0.050  0.00  0.00    +0.176 HD
ENDROOT
BRANCH   3  10
ATOM     10  N   UNL     1      -2.439   1.109   0.019  0.00  0.00    -0.355 N 
ATOM     11  H   UNL     1      -2.462   0.140   0.014  0.00  0.00    +0.142 HD
ATOM     12  H   UNL     1      -3.267   1.615   0.026  0.00  0.00    +0.142 HD
ENDBRANCH   3  10
BRANCH   1  14
ATOM     13  C   UNL     1      -3.353   6.032   0.064  0.00  0.00    +0.138 C 
ATOM     14  N   UNL     1      -2.260   5.331   0.050  0.00  0.00    -0.189 NA
BRANCH  13  18
ATOM     15  C   UNL     1      -3.153  10.271   0.084  0.00  0.00    +0.000 A 
ATOM     16  C   UNL     1      -4.384   9.640   0.092  0.00  0.00    +0.001 A 
ATOM     17  C   UNL     1      -4.457   8.263   0.085  0.00  0.00    +0.009 A 
ATOM     18  C   UNL     1      -3.283   7.505   0.071  0.00  0.00    -0.005 A 
ATOM     19  C   UNL     1      -2.043   8.149   0.068  0.00  0.00    +0.009 A 
ATOM     20  C   UNL     1      -1.986   9.527   0.069  0.00  0.00    +0.001 A 
ENDBRANCH  13  18
ENDBRANCH   1  14
TORSDOF 3
