REMARK  Name = ZINC04923379
REMARK  9 active torsions:
REMARK  status: ('A' for Active; 'I' for Inactive)
REMARK    1  A    between atoms: C_1  and  C_2
REMARK    2  A    between atoms: C_2  and  C_3
REMARK    3  A    between atoms: C_3  and  C_5
REMARK    4  A    between atoms: C_3  and  N_6
REMARK    5  A    between atoms: C_12  and  C_19
REMARK    6  A    between atoms: N_17  and  C_18
REMARK    7  A    between atoms: C_22  and  C_25
REMARK    8  A    between atoms: C_25  and  C_26
REMARK    9  A    between atoms: C_25  and  C_27
REMARK                            x       y       z     vdW  Elec       q    Type
REMARK                         _______ _______ _______ _____ _____    ______ ____
ROOT
ATOM      1  N   UNL     1      -0.055  -0.114  -2.441  0.00  0.00    -0.289 N 
ATOM      2  C   UNL     1       0.405   0.746  -3.542  0.00  0.00    +0.159 C 
ATOM      3  C   UNL     1      -0.767   0.816  -4.495  0.00  0.00    +0.042 C 
ATOM      4  C   UNL     1      -1.750   0.074  -3.944  0.00  0.00    +0.058 C 
ATOM      5  C   UNL     1      -1.320  -0.477  -2.720  0.00  0.00    +0.247 C 
ATOM      6  O   UNL     1      -2.004  -1.190  -2.008  0.00  0.00    -0.270 OA
ATOM      7  C   UNL     1      -3.062  -0.027  -4.695  0.00  0.00    +0.142 C 
ATOM      8  N   UNL     1      -3.156   0.699  -5.973  0.00  0.00    -0.288 N 
ATOM      9  C   UNL     1      -2.084   1.400  -6.394  0.00  0.00    +0.307 C 
ATOM     10  O   UNL     1      -2.152   2.001  -7.448  0.00  0.00    -0.252 OA
ATOM     11  N   UNL     1      -0.947   1.455  -5.689  0.00  0.00    -0.260 N 
ATOM     12  C   UNL     1       0.164   2.243  -6.227  0.00  0.00    +0.139 C 
ATOM     13  H   UNL     1      -3.970   0.672  -6.500  0.00  0.00    +0.151 HD
ENDROOT
BRANCH   7  14
ATOM     14  C   UNL     1      -3.330  -1.484  -4.967  0.00  0.00    -0.023 A 
ATOM     15  C   UNL     1      -2.701  -2.118  -6.022  0.00  0.00    +0.006 A 
ATOM     16  C   UNL     1      -2.944  -3.457  -6.269  0.00  0.00    +0.004 A 
ATOM     17  C   UNL     1      -3.824  -4.159  -5.466  0.00  0.00    -0.045 A 
ATOM     18  C   UNL     1      -4.457  -3.523  -4.414  0.00  0.00    +0.004 A 
ATOM     19  C   UNL     1      -4.210  -2.186  -4.165  0.00  0.00    +0.006 A 
BRANCH  17  20
ATOM     20  C   UNL     1      -4.093  -5.616  -5.739  0.00  0.00    +0.013 C 
ATOM     21  C   UNL     1      -4.671  -5.773  -7.147  0.00  0.00    +0.012 C 
ATOM     22  C   UNL     1      -2.787  -6.405  -5.632  0.00  0.00    +0.012 C 
ENDBRANCH  17  20
ENDBRANCH   7  14
BRANCH   1  23
ATOM     23  C   UNL     1       0.718  -0.497  -1.257  0.00  0.00    +0.073 C 
ATOM     24  C   UNL     1       0.849  -2.021  -1.205  0.00  0.00    +0.028 C 
BRANCH  23  26
ATOM     25  C   UNL     1      -0.019   1.526   0.010  0.00  0.00    +0.005 C 
ATOM     26  C   UNL     1       0.002  -0.004   0.002  0.00  0.00    +0.019 C 
ENDBRANCH  23  26
ENDBRANCH   1  23
TORSDOF 4
