REMARK  Name = ZINC63234496
REMARK  5 active torsions:
REMARK  status: ('A' for Active; 'I' for Inactive)
REMARK    1  A    between atoms: C_1  and  C_2
REMARK    2  A    between atoms: C_3  and  C_19
REMARK    3  A    between atoms: N_21  and  C_22
REMARK    4  A    between atoms: C_22  and  C_23
REMARK    5  A    between atoms: C_23  and  C_24
REMARK                            x       y       z     vdW  Elec       q    Type
REMARK                         _______ _______ _______ _____ _____    ______ ____
ROOT
ATOM      1  C   UNL     1      -1.537  -3.284   0.013  0.00  0.00    +0.086 C 
ATOM      2  C   UNL     1      -0.652  -2.064  -0.017  0.00  0.00    +0.105 C 
ATOM      3  C   UNL     1      -1.116  -0.783  -0.003  0.00  0.00    +0.066 C 
ATOM      4  C   UNL     1       0.114   0.075  -0.026  0.00  0.00    +0.147 C 
ATOM      5  C   UNL     1       1.092  -0.918  -0.739  0.00  0.00    +0.258 C 
ATOM      6  O   UNL     1       0.715  -2.109  -0.056  0.00  0.00    -0.484 OA
ATOM      7  C   UNL     1       2.458  -0.340  -0.551  0.00  0.00    +0.205 C 
ATOM      8  O   UNL     1       3.380  -0.975  -0.085  0.00  0.00    -0.288 OA
ATOM      9  C   UNL     1       2.596   1.078  -0.985  0.00  0.00    +0.032 A 
ATOM     10  C   UNL     1       3.853   1.630  -1.198  0.00  0.00    +0.012 A 
ATOM     11  C   UNL     1       3.961   2.940  -1.631  0.00  0.00    +0.001 A 
ATOM     12  C   UNL     1       2.828   3.703  -1.857  0.00  0.00    +0.001 A 
ATOM     13  C   UNL     1       1.567   3.175  -1.638  0.00  0.00    +0.012 A 
ATOM     14  C   UNL     1       1.439   1.867  -1.187  0.00  0.00    +0.029 A 
ATOM     15  C   UNL     1       0.103   1.316  -0.865  0.00  0.00    +0.175 C 
ATOM     16  O   UNL     1      -0.920   1.822  -1.275  0.00  0.00    -0.291 OA
ENDROOT
BRANCH   3  17
ATOM     17  C   UNL     1      -2.467  -0.354   0.026  0.00  0.00    +0.244 C 
ATOM     18  O   UNL     1      -2.728   0.829   0.145  0.00  0.00    -0.270 OA
ATOM     19  N   UNL     1      -3.463  -1.257  -0.077  0.00  0.00    -0.311 N 
ATOM     20  H   UNL     1      -3.258  -2.205  -0.095  0.00  0.00    +0.149 HD
BRANCH  19  21
ATOM     21  C   UNL     1      -4.854  -0.806  -0.164  0.00  0.00    +0.109 C 
BRANCH  21  22
ATOM     22  C   UNL     1      -5.778  -2.021  -0.273  0.00  0.00    +0.052 C 
BRANCH  22  23
ATOM     23  C   UNL     1      -7.209  -1.557  -0.361  0.00  0.00    -0.040 C 
ATOM     24  C   UNL     1      -7.933  -1.365  -1.488  0.00  0.00    -0.001 A 
ATOM     25  C   UNL     1      -7.617  -1.524  -2.912  0.00  0.00    +0.010 A 
ATOM     26  C   UNL     1      -8.571  -1.248  -3.830  0.00  0.00    +0.001 A 
ATOM     27  C   UNL     1      -9.851  -0.815  -3.457  0.00  0.00    +0.002 A 
ATOM     28  C   UNL     1     -10.216  -0.646  -2.168  0.00  0.00    +0.026 A 
ATOM     29  C   UNL     1      -9.292  -0.908  -1.119  0.00  0.00    +0.043 A 
ATOM     30  N   UNL     1      -9.404  -0.821   0.184  0.00  0.00    -0.380 N 
ATOM     31  C   UNL     1      -8.128  -1.219   0.791  0.00  0.00    +0.144 C 
ATOM     32  H   UNL     1     -10.198  -0.543   0.667  0.00  0.00    +0.160 HD
ENDBRANCH  22  23
ENDBRANCH  21  22
ENDBRANCH  19  21
ENDBRANCH   3  17
TORSDOF 4
