REMARK  Name = ZINC36610259
REMARK  12 active torsions:
REMARK  status: ('A' for Active; 'I' for Inactive)
REMARK    1  A    between atoms: C_1  and  C_2
REMARK    2  A    between atoms: C_2  and  C_3
REMARK    3  A    between atoms: C_2  and  C_4
REMARK    4  A    between atoms: C_2  and  N_5
REMARK    5  A    between atoms: C_6  and  C_8
REMARK    6  A    between atoms: C_8  and  C_10
REMARK    7  A    between atoms: C_8  and  N_17
REMARK    8  A    between atoms: C_14  and  O_16
REMARK    9  A    between atoms: N_17  and  C_18
REMARK   10  A    between atoms: C_24  and  C_26
REMARK   11  A    between atoms: C_30  and  O_33
REMARK   12  A    between atoms: C_31  and  O_32
REMARK                            x       y       z     vdW  Elec       q    Type
REMARK                         _______ _______ _______ _____ _____    ______ ____
ROOT
ATOM      1  N   UNL     1       2.862   0.240  -4.627  0.00  0.00    -0.251 N 
ATOM      2  C   UNL     1       3.344   1.423  -4.197  0.00  0.00    +0.255 C 
ATOM      3  O   UNL     1       4.396   1.847  -4.637  0.00  0.00    -0.269 OA
ENDROOT
BRANCH   1   4
ATOM      4  C   UNL     1       3.510  -0.446  -5.659  0.00  0.00    +0.038 A 
ATOM      5  C   UNL     1       2.945  -0.491  -6.927  0.00  0.00    +0.023 A 
ATOM      6  C   UNL     1       3.587  -1.170  -7.944  0.00  0.00    +0.002 A 
ATOM      7  C   UNL     1       4.792  -1.804  -7.701  0.00  0.00    +0.000 A 
ATOM      8  C   UNL     1       5.357  -1.761  -6.440  0.00  0.00    +0.002 A 
ATOM      9  C   UNL     1       4.723  -1.079  -5.420  0.00  0.00    +0.023 A 
ENDBRANCH   1   4
BRANCH   2  10
ATOM     10  C   UNL     1       2.597   2.203  -3.193  0.00  0.00    +0.082 A 
ATOM     11  C   UNL     1       2.170   1.597  -2.007  0.00  0.00    +0.017 A 
ATOM     12  C   UNL     1       1.472   2.329  -1.072  0.00  0.00    +0.005 A 
ATOM     13  C   UNL     1       1.189   3.666  -1.299  0.00  0.00    +0.049 A 
ATOM     14  C   UNL     1       1.605   4.280  -2.468  0.00  0.00    +0.159 A 
ATOM     15  C   UNL     1       2.316   3.556  -3.420  0.00  0.00    +0.171 A 
BRANCH  15  16
ATOM     16  O   UNL     1       2.730   4.156  -4.564  0.00  0.00    -0.503 OA
ATOM     17  H   UNL     1       2.091   4.106  -5.288  0.00  0.00    +0.292 HD
ENDBRANCH  15  16
BRANCH  14  18
ATOM     18  O   UNL     1       1.323   5.593  -2.683  0.00  0.00    -0.503 OA
ATOM     19  H   UNL     1       2.001   6.200  -2.356  0.00  0.00    +0.292 HD
ENDBRANCH  14  18
ENDBRANCH   2  10
BRANCH   1  20
ATOM     20  C   UNL     1       1.658  -0.327  -4.013  0.00  0.00    +0.198 C 
BRANCH  20  21
ATOM     21  C   UNL     1       0.585  -0.480  -5.060  0.00  0.00    -0.014 A 
ATOM     22  C   UNL     1       0.551  -1.612  -5.854  0.00  0.00    +0.006 A 
ATOM     23  C   UNL     1      -0.432  -1.755  -6.815  0.00  0.00    +0.004 A 
ATOM     24  C   UNL     1      -1.384  -0.768  -6.985  0.00  0.00    +0.045 A 
ATOM     25  C   UNL     1      -1.352   0.368  -6.189  0.00  0.00    +0.117 A 
ATOM     26  C   UNL     1      -0.367   0.507  -5.221  0.00  0.00    +0.051 A 
BRANCH  25  27
ATOM     27  O   UNL     1      -2.287   1.341  -6.354  0.00  0.00    -0.507 OA
ATOM     28  H   UNL     1      -3.077   1.222  -5.810  0.00  0.00    +0.292 HD
ENDBRANCH  25  27
ENDBRANCH  20  21
BRANCH  20  30
ATOM     29  N   UNL     1       1.022  -2.389  -2.804  0.00  0.00    -0.309 N 
ATOM     30  C   UNL     1       1.982  -1.676  -3.425  0.00  0.00    +0.239 C 
ATOM     31  O   UNL     1       3.108  -2.120  -3.510  0.00  0.00    -0.273 OA
ATOM     32  H   UNL     1       0.122  -2.034  -2.736  0.00  0.00    +0.149 HD
BRANCH  29  34
ATOM     33  C   UNL     1       2.426  -3.545  -1.169  0.00  0.00    +0.031 C 
ATOM     34  C   UNL     1       1.337  -3.700  -2.232  0.00  0.00    +0.026 C 
ATOM     35  C   UNL     1       1.833  -4.633  -3.338  0.00  0.00    +0.031 C 
ATOM     36  C   UNL     1       0.080  -4.292  -1.591  0.00  0.00    +0.031 C 
ENDBRANCH  29  34
ENDBRANCH  20  30
ENDBRANCH   1  20
TORSDOF 9
