REMARK  Name = ZINC55060791
REMARK  11 active torsions:
REMARK  status: ('A' for Active; 'I' for Inactive)
REMARK    1  A    between atoms: C_1  and  C_2
REMARK    2  A    between atoms: C_2  and  N_3
REMARK    3  A    between atoms: C_4  and  C_6
REMARK    4  A    between atoms: C_10  and  C_14
REMARK    5  A    between atoms: C_10  and  C_15
REMARK    6  A    between atoms: C_11  and  C_12
REMARK    7  A    between atoms: C_11  and  C_13
REMARK    8  A    between atoms: N_17  and  C_18
REMARK    9  A    between atoms: C_18  and  C_19
REMARK   10  A    between atoms: C_19  and  N_20
REMARK   11  A    between atoms: C_22  and  C_27
REMARK                            x       y       z     vdW  Elec       q    Type
REMARK                         _______ _______ _______ _____ _____    ______ ____
ROOT
ATOM      1  C   UNL     1      -3.892  -4.670  -2.463  0.00  0.00    +0.220 C 
ATOM      2  O   UNL     1      -3.967  -3.997  -3.469  0.00  0.00    -0.275 OA
ATOM      3  N   UNL     1      -3.439  -5.938  -2.534  0.00  0.00    -0.313 N 
ATOM      4  H   UNL     1      -3.379  -6.476  -1.729  0.00  0.00    +0.149 HD
ENDROOT
BRANCH   1   8
ATOM      5  C   UNL     1      -2.999  -2.361   0.054  0.00  0.00    +0.082 C 
ATOM      6  C   UNL     1      -3.784  -1.706  -1.110  0.00  0.00    +0.014 C 
ATOM      7  C   UNL     1      -4.947  -2.703  -1.341  0.00  0.00    +0.017 C 
ATOM      8  C   UNL     1      -4.304  -4.090  -1.135  0.00  0.00    +0.050 C 
ATOM      9  C   UNL     1      -3.065  -3.873  -0.244  0.00  0.00    -0.010 C 
ATOM     10  C   UNL     1      -1.803  -4.316  -0.987  0.00  0.00    +0.012 C 
ATOM     11  C   UNL     1      -3.209  -4.659   1.060  0.00  0.00    +0.012 C 
ATOM     12  C   UNL     1      -5.291  -5.027  -0.436  0.00  0.00    +0.021 C 
BRANCH   5  14
ATOM     13  N   UNL     1      -0.847  -1.934   1.195  0.00  0.00    -0.315 N 
ATOM     14  C   UNL     1      -1.569  -1.886   0.059  0.00  0.00    +0.217 C 
ATOM     15  O   UNL     1      -1.069  -1.460  -0.961  0.00  0.00    -0.275 OA
ATOM     16  H   UNL     1      -1.248  -2.275   2.010  0.00  0.00    +0.149 HD
BRANCH  13  18
ATOM     17  C   UNL     1       1.130  -1.634   2.604  0.00  0.00    +0.024 C 
ATOM     18  C   UNL     1       0.543  -1.472   1.200  0.00  0.00    +0.101 C 
ENDBRANCH  13  18
ENDBRANCH   5  14
ENDBRANCH   1   8
BRANCH   3  19
ATOM     19  C   UNL     1      -3.039  -6.502  -3.825  0.00  0.00    +0.123 C 
BRANCH  19  20
ATOM     20  C   UNL     1      -2.568  -7.944  -3.627  0.00  0.00    +0.121 C 
BRANCH  20  21
ATOM     21  N   UNL     1      -2.167  -8.509  -4.918  0.00  0.00    -0.329 N 
ATOM     22  C   UNL     1      -1.701  -9.816  -4.991  0.00  0.00    +0.099 A 
ATOM     23  C   UNL     1      -1.317 -10.344  -6.219  0.00  0.00    -0.013 A 
ATOM     24  C   UNL     1      -0.854 -11.646  -6.277  0.00  0.00    +0.008 A 
ATOM     25  C   UNL     1      -0.791 -12.380  -5.099  0.00  0.00    +0.018 A 
ATOM     26  C   UNL     1      -1.188 -11.793  -3.915  0.00  0.00    +0.084 A 
ATOM     27  N   UNL     1      -1.621 -10.546  -3.889  0.00  0.00    -0.350 N 
ATOM     28  C   UNL     1      -1.404  -9.509  -7.471  0.00  0.00    +0.047 C 
ATOM     29  H   UNL     1      -2.228  -7.970  -5.723  0.00  0.00    +0.147 HD
ATOM     30  H   UNL     1      -1.890 -10.156  -3.043  0.00  0.00    +0.167 HD
ENDBRANCH  20  21
ENDBRANCH  19  20
ENDBRANCH   3  19
TORSDOF 6
