REMARK  Name = ZINC18200670
REMARK  4 active torsions:
REMARK  status: ('A' for Active; 'I' for Inactive)
REMARK    1  A    between atoms: C_3  and  C_6
REMARK    2  A    between atoms: C_11  and  C_20
REMARK    3  A    between atoms: C_23  and  O_26
REMARK    4  A    between atoms: O_26  and  C_27
REMARK                            x       y       z     vdW  Elec       q    Type
REMARK                         _______ _______ _______ _____ _____    ______ ____
ROOT
ATOM      1  C   UNL     1       0.088  -2.732   0.713  0.00  0.00    +0.039 C 
ATOM      2  C   UNL     1       1.103  -2.215  -0.308  0.00  0.00    +0.060 C 
ATOM      3  C   UNL     1       1.118  -0.705  -0.291  0.00  0.00    +0.020 C 
ATOM      4  C   UNL     1       0.002  -0.004   0.002  0.00  0.00    +0.041 C 
ATOM      5  C   UNL     1      -0.018   1.509   0.010  0.00  0.00    +0.175 C 
ATOM      6  N   UNL     1       1.344   2.026   0.000  0.00  0.00    -0.219 N 
ATOM      7  C   UNL     1       2.429   1.265  -0.283  0.00  0.00    +0.220 A 
ATOM      8  N   UNL     1       3.488   2.026  -0.216  0.00  0.00    -0.180 NA
ATOM      9  C   UNL     1       3.122   3.273   0.112  0.00  0.00    +0.233 A 
ATOM     10  N   UNL     1       1.815   3.313   0.255  0.00  0.00    -0.132 NA
ATOM     11  N   UNL     1       3.989   4.354   0.277  0.00  0.00    -0.326 N 
ATOM     12  N   UNL     1       2.309  -0.083  -0.579  0.00  0.00    -0.287 N 
ATOM     13  C   UNL     1      -1.201  -0.662   0.316  0.00  0.00    +0.164 C 
ATOM     14  O   UNL     1      -2.192  -0.002   0.562  0.00  0.00    -0.292 OA
ATOM     15  C   UNL     1      -1.289  -2.162   0.355  0.00  0.00    +0.088 C 
ATOM     16  H   UNL     1       4.944   4.234   0.151  0.00  0.00    +0.145 HD
ATOM     17  H   UNL     1       3.637   5.226   0.516  0.00  0.00    +0.145 HD
ATOM     18  H   UNL     1       3.045  -0.574  -0.977  0.00  0.00    +0.155 HD
ENDROOT
BRANCH   5  19
ATOM     19  C   UNL     1      -0.751   2.006  -1.209  0.00  0.00    -0.018 A 
ATOM     20  C   UNL     1      -0.286   1.687  -2.471  0.00  0.00    +0.009 A 
ATOM     21  C   UNL     1      -0.959   2.137  -3.591  0.00  0.00    +0.046 A 
ATOM     22  C   UNL     1      -2.096   2.918  -3.448  0.00  0.00    +0.130 A 
ATOM     23  C   UNL     1      -2.558   3.241  -2.180  0.00  0.00    +0.046 A 
ATOM     24  C   UNL     1      -1.885   2.784  -1.064  0.00  0.00    +0.009 A 
BRANCH  22  25
ATOM     25  O   UNL     1      -2.757   3.367  -4.548  0.00  0.00    -0.406 OA
BRANCH  25  26
ATOM     26  C   UNL     1      -2.224   2.996  -5.821  0.00  0.00    +0.575 C 
ATOM     27  F   UNL     1      -2.212   1.601  -5.932  0.00  0.00    -0.133 F 
ATOM     28  F   UNL     1      -3.020   3.538  -6.835  0.00  0.00    -0.133 F 
ATOM     29  F   UNL     1      -0.919   3.485  -5.940  0.00  0.00    -0.133 F 
ENDBRANCH  25  26
ENDBRANCH  22  25
ENDBRANCH   5  19
BRANCH   1  32
ATOM     30  C   UNL     1       0.184  -6.481   1.383  0.00  0.00    +0.008 A 
ATOM     31  C   UNL     1       0.292  -5.130   1.656  0.00  0.00    +0.011 A 
ATOM     32  C   UNL     1       0.042  -4.237   0.667  0.00  0.00    -0.006 A 
ATOM     33  S   UNL     1      -0.348  -5.308  -0.707  0.00  0.00    -0.101 S 
ATOM     34  C   UNL     1      -0.159  -6.873   0.131  0.00  0.00    +0.045 A 
ENDBRANCH   1  32
TORSDOF 4
