REMARK  Name = ZINC17436273
REMARK  4 active torsions:
REMARK  status: ('A' for Active; 'I' for Inactive)
REMARK    1  A    between atoms: C_1  and  N_2
REMARK    2  A    between atoms: C_19  and  C_28
REMARK    3  A    between atoms: C_23  and  C_24
REMARK    4  A    between atoms: C_23  and  C_26
REMARK                            x       y       z     vdW  Elec       q    Type
REMARK                         _______ _______ _______ _____ _____    ______ ____
ROOT
ATOM      1  C   UNL     1      -0.018   1.461   0.010  0.00  0.00    +0.138 C 
ATOM      2  N   UNL     1       0.002  -0.004   0.002  0.00  0.00    -0.273 N 
ATOM      3  C   UNL     1       0.008  -0.771  -1.149  0.00  0.00    +0.040 A 
ATOM      4  C   UNL     1      -0.006  -0.366  -2.485  0.00  0.00    +0.024 A 
ATOM      5  C   UNL     1       0.005  -1.362  -3.450  0.00  0.00    +0.002 A 
ATOM      6  C   UNL     1       0.027  -2.701  -3.118  0.00  0.00    +0.000 A 
ATOM      7  C   UNL     1       0.040  -3.118  -1.791  0.00  0.00    +0.006 A 
ATOM      8  C   UNL     1       0.030  -2.134  -0.826  0.00  0.00    -0.008 A 
ATOM      9  C   UNL     1       0.037  -2.211   0.668  0.00  0.00    +0.117 C 
ATOM     10  C   UNL     1       0.023  -0.764   1.116  0.00  0.00    +0.234 C 
ATOM     11  O   UNL     1       0.028  -0.364   2.261  0.00  0.00    -0.274 OA
ATOM     12  C   UNL     1       1.305  -2.897   1.173  0.00  0.00    +0.039 C 
ATOM     13  C   UNL     1       2.532  -2.186   0.627  0.00  0.00    +0.009 C 
ATOM     14  C   UNL     1       3.758  -2.463   1.496  0.00  0.00    +0.005 C 
ATOM     15  C   UNL     1       3.493  -1.900   2.896  0.00  0.00    +0.027 C 
ATOM     16  C   UNL     1       2.240  -2.528   3.438  0.00  0.00    -0.026 C 
ATOM     17  C   UNL     1       1.291  -2.951   2.673  0.00  0.00    -0.047 C 
ATOM     18  C   UNL     1       0.075  -3.568   3.349  0.00  0.00    +0.164 C 
ATOM     19  C   UNL     1      -1.157  -2.978   2.695  0.00  0.00    +0.066 C 
ATOM     20  N   UNL     1      -2.127  -2.531   3.399  0.00  0.00    -0.304 NA
ATOM     21  C   UNL     1      -1.206  -2.933   1.183  0.00  0.00    +0.200 C 
ATOM     22  H   UNL     1      -2.909  -2.156   2.965  0.00  0.00    +0.186 HD
ENDROOT
BRANCH  21  23
ATOM     23  C   UNL     1      -1.235  -4.305   0.650  0.00  0.00    +0.092 C 
ATOM     24  N   UNL     1      -1.257  -5.363   0.238  0.00  0.00    -0.194 NA
ENDBRANCH  21  23
BRANCH  21  25
ATOM     25  C   UNL     1      -2.412  -2.208   0.751  0.00  0.00    +0.092 C 
ATOM     26  N   UNL     1      -3.342  -1.649   0.417  0.00  0.00    -0.194 NA
ENDBRANCH  21  25
BRANCH  18  27
ATOM     27  C   UNL     1       0.083  -3.244   4.785  0.00  0.00    +0.076 C 
ATOM     28  N   UNL     1       0.090  -2.995   5.893  0.00  0.00    -0.196 NA
ENDBRANCH  18  27
TORSDOF 3
