REMARK  Name = ZINC09391514
REMARK  9 active torsions:
REMARK  status: ('A' for Active; 'I' for Inactive)
REMARK    1  A    between atoms: C_1  and  C_2
REMARK    2  A    between atoms: C_2  and  C_32
REMARK    3  A    between atoms: C_5  and  C_30
REMARK    4  A    between atoms: C_6  and  N_12
REMARK    5  A    between atoms: C_9  and  C_10
REMARK    6  A    between atoms: C_9  and  C_11
REMARK    7  A    between atoms: C_13  and  C_15
REMARK    8  A    between atoms: C_18  and  S_21
REMARK    9  A    between atoms: S_21  and  N_24
REMARK                            x       y       z     vdW  Elec       q    Type
REMARK                         _______ _______ _______ _____ _____    ______ ____
ROOT
ATOM      1  N   UNL     1      -5.877   1.466  -2.155  0.00  0.00    -0.275 N 
ATOM      2  C   UNL     1      -6.382   2.345  -3.043  0.00  0.00    +0.249 C 
ATOM      3  O   UNL     1      -5.869   3.440  -3.173  0.00  0.00    -0.270 OA
ATOM      4  H   UNL     1      -6.286   0.593  -2.052  0.00  0.00    +0.156 HD
ENDROOT
BRANCH   1  10
ATOM      5  C   UNL     1      -0.013   1.086   0.008  0.00  0.00    -0.010 C 
ATOM      6  C   UNL     1      -0.729   1.579   1.268  0.00  0.00    -0.069 C 
ATOM      7  C   UNL     1      -2.139   0.981   1.315  0.00  0.00    +0.024 C 
ATOM      8  C   UNL     1      -2.975   1.643   0.230  0.00  0.00    -0.021 A 
ATOM      9  C   UNL     1      -4.116   1.045  -0.434  0.00  0.00    +0.084 A 
ATOM     10  C   UNL     1      -4.772   1.809  -1.391  0.00  0.00    +0.090 A 
ATOM     11  S   UNL     1      -3.877   3.292  -1.396  0.00  0.00    -0.078 S 
ATOM     12  C   UNL     1      -2.668   2.901  -0.165  0.00  0.00    -0.015 A 
ATOM     13  C   UNL     1      -1.546   3.747   0.343  0.00  0.00    -0.041 C 
ATOM     14  C   UNL     1      -2.154   4.998   1.009  0.00  0.00    -0.005 C 
ATOM     15  C   UNL     1      -0.677   4.214  -0.830  0.00  0.00    -0.005 C 
ATOM     16  C   UNL     1       0.048   1.047   2.488  0.00  0.00    -0.010 C 
ATOM     17  N   UNL     1      -0.717   3.061   1.374  0.00  0.00    +0.389 N 
ATOM     18  H   UNL     1       0.253   3.384   1.277  0.00  0.00    -0.084 HD
ATOM     19  H   UNL     1      -1.073   3.321   2.301  0.00  0.00    -0.084 HD
BRANCH   9  20
ATOM     20  C   UNL     1      -4.560  -0.280  -0.121  0.00  0.00    +0.102 C 
ATOM     21  N   UNL     1      -4.912  -1.331   0.127  0.00  0.00    -0.191 NA
ENDBRANCH   9  20
ENDBRANCH   1  10
BRANCH   2  22
ATOM     22  C   UNL     1      -7.559   1.980  -3.858  0.00  0.00    +0.037 A 
ATOM     23  C   UNL     1      -8.147   0.722  -3.715  0.00  0.00    +0.015 A 
ATOM     24  C   UNL     1      -9.249   0.388  -4.476  0.00  0.00    +0.029 A 
ATOM     25  C   UNL     1      -9.765   1.294  -5.386  0.00  0.00    +0.106 A 
ATOM     26  C   UNL     1      -9.183   2.540  -5.536  0.00  0.00    +0.029 A 
ATOM     27  C   UNL     1      -8.085   2.889  -4.778  0.00  0.00    +0.015 A 
BRANCH  25  28
ATOM     28  S   UNL     1     -11.168   0.857  -6.358  0.00  0.00    +0.061 S 
ATOM     29  O   UNL     1     -11.858  -0.158  -5.643  0.00  0.00    -0.153 OA
ATOM     30  O   UNL     1     -11.790   2.075  -6.744  0.00  0.00    -0.153 OA
BRANCH  28  31
ATOM     31  N   UNL     1     -10.601   0.155  -7.747  0.00  0.00    -0.177 NA
ATOM     32  C   UNL     1     -10.316   0.971  -8.936  0.00  0.00    +0.109 C 
ATOM     33  C   UNL     1      -8.876   0.688  -9.389  0.00  0.00    +0.017 C 
ATOM     34  C   UNL     1      -8.701  -0.817  -9.603  0.00  0.00    +0.003 C 
ATOM     35  C   UNL     1      -8.944  -1.554  -8.283  0.00  0.00    +0.017 C 
ATOM     36  C   UNL     1     -10.380  -1.296  -7.816  0.00  0.00    +0.109 C 
ENDBRANCH  28  31
ENDBRANCH  25  28
ENDBRANCH   2  22
TORSDOF 5
