REMARK  Name = ZINC21603569
REMARK  10 active torsions:
REMARK  status: ('A' for Active; 'I' for Inactive)
REMARK    1  A    between atoms: C_1  and  C_2
REMARK    2  A    between atoms: C_2  and  C_4
REMARK    3  A    between atoms: C_2  and  O_15
REMARK    4  A    between atoms: N_6  and  C_7
REMARK    5  A    between atoms: C_8  and  C_12
REMARK    6  A    between atoms: O_15  and  C_16
REMARK    7  A    between atoms: C_16  and  C_18
REMARK    8  A    between atoms: C_22  and  O_25
REMARK    9  A    between atoms: C_23  and  O_24
REMARK   10  A    between atoms: O_25  and  C_26
REMARK                            x       y       z     vdW  Elec       q    Type
REMARK                         _______ _______ _______ _____ _____    ______ ____
ROOT
ATOM      1  C   UNL     1       0.608  -2.694   1.290  0.00  0.00    +0.062 C 
ATOM      2  C   UNL     1       1.199  -2.169  -0.021  0.00  0.00    +0.259 C 
ENDROOT
BRANCH   2   3
ATOM      3  C   UNL     1       1.178  -0.662  -0.012  0.00  0.00    +0.258 C 
ATOM      4  O   UNL     1       2.220  -0.041  -0.018  0.00  0.00    -0.271 OA
ATOM      5  N   UNL     1       0.002  -0.004   0.002  0.00  0.00    -0.276 N 
ATOM      6  H   UNL     1      -0.943  -0.567   0.008  0.00  0.00    +0.155 HD
BRANCH   5   7
ATOM      7  C   UNL     1      -0.017   1.382   0.010  0.00  0.00    +0.084 A 
ATOM      8  C   UNL     1      -1.117   2.231   0.019  0.00  0.00    +0.065 A 
ATOM      9  C   UNL     1      -0.845   3.648   0.029  0.00  0.00    +0.022 A 
ATOM     10  C   UNL     1       0.447   4.025   0.019  0.00  0.00    +0.048 A 
ATOM     11  S   UNL     1       1.325   2.476   0.003  0.00  0.00    -0.081 S 
BRANCH   8  12
ATOM     12  C   UNL     1      -2.489   1.712   0.021  0.00  0.00    +0.244 C 
ATOM     13  O   UNL     1      -2.685   0.510   0.015  0.00  0.00    -0.270 OA
ATOM     14  N   UNL     1      -3.532   2.565   0.030  0.00  0.00    -0.325 N 
ATOM     15  H   UNL     1      -4.561   2.175   0.032  0.00  0.00    +0.145 HD
ATOM     16  H   UNL     1      -3.355   3.650   0.035  0.00  0.00    +0.145 HD
ENDBRANCH   8  12
ENDBRANCH   5   7
ENDBRANCH   2   3
BRANCH   2  17
ATOM     17  O   UNL     1       2.568  -2.634  -0.155  0.00  0.00    -0.449 OA
BRANCH  17  18
ATOM     18  C   UNL     1       2.755  -3.812  -0.781  0.00  0.00    +0.344 C 
ATOM     19  O   UNL     1       1.801  -4.434  -1.203  0.00  0.00    -0.245 OA
BRANCH  18  20
ATOM     20  C   UNL     1       4.118  -4.346  -0.954  0.00  0.00    +0.104 A 
ATOM     21  C   UNL     1       5.219  -3.633  -0.469  0.00  0.00    +0.019 A 
ATOM     22  C   UNL     1       6.491  -4.136  -0.632  0.00  0.00    +0.005 A 
ATOM     23  C   UNL     1       6.688  -5.347  -1.275  0.00  0.00    +0.049 A 
ATOM     24  C   UNL     1       5.608  -6.065  -1.761  0.00  0.00    +0.162 A 
ATOM     25  C   UNL     1       4.316  -5.573  -1.599  0.00  0.00    +0.173 A 
BRANCH  25  26
ATOM     26  O   UNL     1       3.255  -6.277  -2.068  0.00  0.00    -0.503 OA
ATOM     27  H   UNL     1       3.414  -7.240  -2.574  0.00  0.00    +0.292 HD
ENDBRANCH  25  26
BRANCH  24  28
ATOM     28  O   UNL     1       5.810  -7.253  -2.391  0.00  0.00    -0.491 OA
ATOM     29  C   UNL     1       7.161  -7.700  -2.517  0.00  0.00    +0.277 C 
ENDBRANCH  24  28
ENDBRANCH  18  20
ENDBRANCH  17  18
ENDBRANCH   2  17
TORSDOF 8
