REMARK  Name = ZINC11690690
REMARK  8 active torsions:
REMARK  status: ('A' for Active; 'I' for Inactive)
REMARK    1  A    between atoms: C_1  and  C_2
REMARK    2  A    between atoms: N_8  and  C_9
REMARK    3  A    between atoms: C_9  and  C_10
REMARK    4  A    between atoms: C_16  and  C_24
REMARK    5  A    between atoms: C_18  and  C_22
REMARK    6  A    between atoms: C_19  and  N_21
REMARK    7  A    between atoms: C_26  and  O_31
REMARK    8  A    between atoms: O_31  and  C_32
REMARK                            x       y       z     vdW  Elec       q    Type
REMARK                         _______ _______ _______ _____ _____    ______ ____
ROOT
ATOM      1  C   UNL     1       6.673   0.588   4.728  0.00  0.00    +0.064 C 
ATOM      2  C   UNL     1       5.909   0.257   3.472  0.00  0.00    +0.023 A 
ATOM      3  C   UNL     1       6.276   0.820   2.301  0.00  0.00    +0.068 A 
ATOM      4  C   UNL     1       5.564   0.513   1.123  0.00  0.00    +0.141 A 
ATOM      5  C   UNL     1       4.499  -0.360   1.194  0.00  0.00    +0.072 A 
ATOM      6  C   UNL     1       4.156  -0.922   2.431  0.00  0.00    +0.259 A 
ATOM      7  O   UNL     1       3.217  -1.698   2.509  0.00  0.00    -0.267 OA
ATOM      8  N   UNL     1       4.860  -0.605   3.534  0.00  0.00    -0.310 N 
ATOM      9  C   UNL     1       3.712  -0.715  -0.038  0.00  0.00    +0.104 C 
ATOM     10  C   UNL     1       4.483  -0.335  -1.272  0.00  0.00    +0.098 C 
ATOM     11  C   UNL     1       5.529   0.522  -1.210  0.00  0.00    +0.199 C 
ATOM     12  O   UNL     1       5.930   1.073  -0.050  0.00  0.00    -0.441 OA
ENDROOT
BRANCH   9  13
ATOM     13  C   UNL     1       2.399   0.025  -0.021  0.00  0.00    -0.017 A 
ATOM     14  C   UNL     1       2.385   1.406  -0.013  0.00  0.00    +0.051 A 
ATOM     15  C   UNL     1       1.176   2.086   0.002  0.00  0.00    +0.120 A 
ATOM     16  C   UNL     1      -0.017   1.377   0.010  0.00  0.00    +0.047 A 
ATOM     17  C   UNL     1       0.002  -0.004   0.002  0.00  0.00    +0.019 A 
ATOM     18  C   UNL     1       1.209  -0.680  -0.014  0.00  0.00    +0.022 A 
ATOM     19 BR   UNL     1       1.232  -2.571  -0.025  0.00  0.00    -0.050 Br
BRANCH  15  20
ATOM     20  O   UNL     1       1.160   3.445   0.009  0.00  0.00    -0.495 OA
ATOM     21  C   UNL     1      -0.121   4.079   0.024  0.00  0.00    +0.277 C 
ENDBRANCH  15  20
ENDBRANCH   9  13
BRANCH  11  22
ATOM     22  N   UNL     1       6.200   0.839  -2.364  0.00  0.00    -0.328 N 
ATOM     23  H   UNL     1       5.922   0.451  -3.209  0.00  0.00    +0.145 HD
ATOM     24  H   UNL     1       6.951   1.452  -2.336  0.00  0.00    +0.145 HD
ENDBRANCH  11  22
BRANCH  10  25
ATOM     25  C   UNL     1       4.103  -0.889  -2.536  0.00  0.00    +0.101 C 
ATOM     26  N   UNL     1       3.801  -1.329  -3.539  0.00  0.00    -0.191 NA
ENDBRANCH  10  25
BRANCH   8  27
ATOM     27  C   UNL     1       4.489  -1.198   4.821  0.00  0.00    +0.156 C 
BRANCH  27  28
ATOM     28  C   UNL     1       3.467  -0.300   5.521  0.00  0.00    +0.138 C 
ATOM     29  C   UNL     1       3.115  -0.874   6.917  0.00  0.00    +0.035 C 
ATOM     30  C   UNL     1       2.651   0.411   7.655  0.00  0.00    +0.031 C 
ATOM     31  C   UNL     1       3.565   1.492   7.038  0.00  0.00    +0.160 C 
ATOM     32  O   UNL     1       4.035   0.993   5.780  0.00  0.00    -0.375 OA
ENDBRANCH  27  28
ENDBRANCH   8  27
TORSDOF 6
