REMARK  Name = ZINC04236781
REMARK  14 active torsions:
REMARK  status: ('A' for Active; 'I' for Inactive)
REMARK    1  A    between atoms: C_1  and  C_2
REMARK    2  A    between atoms: C_5  and  O_31
REMARK    3  A    between atoms: C_7  and  C_28
REMARK    4  A    between atoms: C_7  and  C_29
REMARK    5  A    between atoms: C_12  and  O_27
REMARK    6  A    between atoms: C_14  and  C_16
REMARK    7  A    between atoms: C_16  and  C_17
REMARK    8  A    between atoms: C_23  and  C_25
REMARK    9  A    between atoms: C_25  and  O_26
REMARK   10  A    between atoms: C_29  and  O_30
REMARK   11  A    between atoms: O_31  and  C_32
REMARK   12  A    between atoms: N_34  and  C_35
REMARK   13  A    between atoms: C_39  and  S_41
REMARK   14  A    between atoms: S_41  and  C_42
REMARK                            x       y       z     vdW  Elec       q    Type
REMARK                         _______ _______ _______ _____ _____    ______ ____
ROOT
ATOM      1  C   UNL     1       2.521  -0.069   3.646  0.00  0.00    +0.012 C 
ATOM      2  C   UNL     1       2.184   1.418   3.776  0.00  0.00    -0.023 C 
ATOM      3  C   UNL     1       2.379   1.860   5.228  0.00  0.00    +0.011 C 
ATOM      4  C   UNL     1       3.834   1.629   5.640  0.00  0.00    +0.046 C 
ATOM      5  C   UNL     1       4.757   2.442   4.730  0.00  0.00    +0.186 C 
ATOM      6  C   UNL     1       4.562   2.000   3.279  0.00  0.00    +0.031 C 
ATOM      7  C   UNL     1       3.107   2.231   2.866  0.00  0.00    +0.007 C 
ATOM      8  C   UNL     1       2.770   3.718   2.996  0.00  0.00    +0.007 C 
ATOM      9  C   UNL     1       1.315   3.949   2.584  0.00  0.00    +0.032 C 
ATOM     10  C   UNL     1       0.392   3.136   3.493  0.00  0.00    +0.119 C 
ATOM     11  C   UNL     1       0.729   1.649   3.364  0.00  0.00    +0.032 C 
ATOM     12  C   UNL     1       5.485   2.813   2.369  0.00  0.00    +0.017 C 
ENDROOT
BRANCH  10  13
ATOM     13  O   UNL     1      -0.967   3.352   3.108  0.00  0.00    -0.391 OA
ATOM     14  H   UNL     1      -1.250   4.274   3.166  0.00  0.00    +0.210 HD
ENDBRANCH  10  13
BRANCH  11  15
ATOM     15  C   UNL     1       0.534   1.206   1.912  0.00  0.00    +0.102 C 
BRANCH  15  16
ATOM     16  C   UNL     1      -0.939   1.089   1.616  0.00  0.00    +0.216 C 
ATOM     17  O   UNL     1      -1.746   1.145   2.521  0.00  0.00    -0.276 OA
ATOM     18  N   UNL     1      -1.361   0.921   0.347  0.00  0.00    -0.296 N 
ATOM     19  C   UNL     1      -0.493   0.835  -0.842  0.00  0.00    +0.108 C 
ATOM     20  C   UNL     1      -1.395   1.267  -2.025  0.00  0.00    +0.021 C 
ATOM     21  C   UNL     1      -2.758   0.646  -1.621  0.00  0.00    +0.026 C 
ATOM     22  C   UNL     1      -2.763   0.792  -0.085  0.00  0.00    +0.101 C 
BRANCH  22  23
ATOM     23  C   UNL     1      -3.393  -0.447   0.554  0.00  0.00    +0.178 C 
BRANCH  23  24
ATOM     24  O   UNL     1      -2.730  -1.619   0.074  0.00  0.00    -0.393 OA
ATOM     25  H   UNL     1      -3.079  -2.444   0.438  0.00  0.00    +0.209 HD
ENDBRANCH  23  24
ENDBRANCH  22  23
ENDBRANCH  15  16
ENDBRANCH  11  15
BRANCH   6  26
ATOM     26  C   UNL     1       4.899   0.513   3.149  0.00  0.00    +0.166 C 
BRANCH  26  27
ATOM     27  O   UNL     1       6.302   0.324   3.343  0.00  0.00    -0.394 OA
ATOM     28  H   UNL     1       6.588  -0.598   3.274  0.00  0.00    +0.209 HD
ENDBRANCH  26  27
ENDBRANCH   6  26
BRANCH   5  29
ATOM     29  O   UNL     1       6.138   2.223   5.122  0.00  0.00    -0.446 OA
BRANCH  29  30
ATOM     30  C   UNL     1       6.652   3.057   6.046  0.00  0.00    +0.405 C 
ATOM     31  O   UNL     1       5.965   3.944   6.512  0.00  0.00    -0.226 OA
ATOM     32  N   UNL     1       7.928   2.908   6.453  0.00  0.00    -0.251 N 
ATOM     33  H   UNL     1       8.453   2.156   6.137  0.00  0.00    +0.158 HD
BRANCH  32  34
ATOM     34  C   UNL     1       8.495   3.838   7.331  0.00  0.00    +0.037 A 
ATOM     35  C   UNL     1       9.515   3.450   8.192  0.00  0.00    +0.023 A 
ATOM     36  C   UNL     1      10.076   4.367   9.059  0.00  0.00    +0.003 A 
ATOM     37  C   UNL     1       9.626   5.673   9.074  0.00  0.00    +0.015 A 
ATOM     38  C   UNL     1       8.606   6.068   8.217  0.00  0.00    +0.009 A 
ATOM     39  C   UNL     1       8.044   5.149   7.340  0.00  0.00    +0.038 A 
BRANCH  38  40
ATOM     40  S   UNL     1       8.032   7.734   8.236  0.00  0.00    -0.129 S 
ATOM     41  C   UNL     1       9.049   8.534   9.508  0.00  0.00    +0.090 C 
ENDBRANCH  38  40
ENDBRANCH  32  34
ENDBRANCH  29  30
ENDBRANCH   5  29
TORSDOF 11
