REMARK  Name = ZINC60113018
REMARK  8 active torsions:
REMARK  status: ('A' for Active; 'I' for Inactive)
REMARK    1  A    between atoms: C_3  and  C_23
REMARK    2  A    between atoms: C_5  and  C_7
REMARK    3  A    between atoms: N_8  and  O_9
REMARK    4  A    between atoms: O_9  and  C_10
REMARK    5  A    between atoms: C_10  and  C_11
REMARK    6  A    between atoms: N_13  and  C_14
REMARK    7  A    between atoms: C_14  and  C_15
REMARK    8  A    between atoms: C_23  and  N_24
REMARK                            x       y       z     vdW  Elec       q    Type
REMARK                         _______ _______ _______ _____ _____    ______ ____
ROOT
ATOM      1  C   UNL     1       1.248  -2.162  -0.023  0.00  0.00    +0.163 C 
ATOM      2  N   UNL     1       0.344  -2.833   0.628  0.00  0.00    -0.069 NA
ATOM      3  N   UNL     1       2.367  -2.810  -0.520  0.00  0.00    -0.340 N 
ATOM      4  H   UNL     1       3.041  -2.309  -1.005  0.00  0.00    +0.144 HD
ATOM      5  H   UNL     1       2.476  -3.764  -0.382  0.00  0.00    +0.144 HD
ENDROOT
BRANCH   1  10
ATOM      6  C   UNL     1      -0.345   1.211  -0.468  0.00  0.00    +0.001 A 
ATOM      7  C   UNL     1       0.769   2.017  -0.627  0.00  0.00    +0.002 A 
ATOM      8  C   UNL     1       2.038   1.467  -0.589  0.00  0.00    -0.063 A 
ATOM      9  C   UNL     1       2.200   0.111  -0.394  0.00  0.00    +0.013 A 
ATOM     10  C   UNL     1       1.081  -0.706  -0.233  0.00  0.00    +0.018 A 
ATOM     11  C   UNL     1      -0.196  -0.146  -0.271  0.00  0.00    +0.011 A 
BRANCH   8  12
ATOM     12  C   UNL     1       3.246   2.351  -0.763  0.00  0.00    -0.043 C 
BRANCH  12  13
ATOM     13  N   UNL     1       3.686   2.843   0.549  0.00  0.00    +0.382 N 
ATOM     14  C   UNL     1       4.137   1.711   1.368  0.00  0.00    -0.078 C 
ATOM     15  C   UNL     1       4.521   2.206   2.764  0.00  0.00    -0.019 C 
ATOM     16  C   UNL     1       5.650   3.233   2.643  0.00  0.00    -0.004 C 
ATOM     17  C   UNL     1       5.194   4.373   1.727  0.00  0.00    -0.019 C 
ATOM     18  C   UNL     1       4.786   3.797   0.369  0.00  0.00    -0.078 C 
ATOM     19  H   UNL     1       2.915   3.302   1.011  0.00  0.00    -0.081 HD
ENDBRANCH  12  13
ENDBRANCH   8  12
ENDBRANCH   1  10
BRANCH   2  20
ATOM     20  O   UNL     1      -0.727  -2.153   1.257  0.00  0.00    -0.383 OA
BRANCH  20  21
ATOM     21  C   UNL     1      -1.644  -3.013   1.935  0.00  0.00    +0.358 C 
BRANCH  21  22
ATOM     22  C   UNL     1      -2.736  -2.187   2.565  0.00  0.00    +0.254 C 
ATOM     23  O   UNL     1      -2.729  -0.981   2.445  0.00  0.00    -0.272 OA
ATOM     24  N   UNL     1      -3.720  -2.790   3.261  0.00  0.00    -0.308 N 
ATOM     25  H   UNL     1      -3.726  -3.755   3.357  0.00  0.00    +0.149 HD
BRANCH  24  26
ATOM     26  C   UNL     1      -4.782  -1.987   3.873  0.00  0.00    +0.139 C 
BRANCH  26  27
ATOM     27  C   UNL     1      -5.750  -2.894   4.588  0.00  0.00    -0.030 A 
ATOM     28  C   UNL     1      -6.840  -3.411   3.913  0.00  0.00    +0.006 A 
ATOM     29  C   UNL     1      -7.728  -4.244   4.568  0.00  0.00    +0.020 A 
ATOM     30  C   UNL     1      -7.525  -4.560   5.900  0.00  0.00    +0.041 A 
ATOM     31  C   UNL     1      -6.434  -4.042   6.575  0.00  0.00    +0.020 A 
ATOM     32  C   UNL     1      -5.543  -3.214   5.917  0.00  0.00    +0.006 A 
ATOM     33 CL   UNL     1      -8.640  -5.605   6.723  0.00  0.00    -0.084 Cl
ENDBRANCH  26  27
ENDBRANCH  24  26
ENDBRANCH  21  22
ENDBRANCH  20  21
ENDBRANCH   2  20
TORSDOF 8
