REMARK  Name = ZINC39992098
REMARK  8 active torsions:
REMARK  status: ('A' for Active; 'I' for Inactive)
REMARK    1  A    between atoms: C_1  and  N_2
REMARK    2  A    between atoms: N_2  and  C_3
REMARK    3  A    between atoms: C_3  and  C_4
REMARK    4  A    between atoms: N_6  and  C_7
REMARK    5  A    between atoms: C_7  and  C_8
REMARK    6  A    between atoms: C_14  and  C_16
REMARK    7  A    between atoms: C_16  and  C_17
REMARK    8  A    between atoms: C_17  and  C_18
REMARK                            x       y       z     vdW  Elec       q    Type
REMARK                         _______ _______ _______ _____ _____    ______ ____
ROOT
ATOM      1  C   UNL     1      -0.018   1.461   0.010  0.00  0.00    +0.132 C 
ATOM      2  N   UNL     1       0.002  -0.004   0.002  0.00  0.00    -0.296 N 
ATOM      3  C   UNL     1       0.000  -0.672  -1.169  0.00  0.00    +0.216 C 
ATOM      4  O   UNL     1       0.017  -1.884  -1.175  0.00  0.00    -0.276 OA
ENDROOT
BRANCH   2   5
ATOM      5  C   UNL     1       0.024  -0.743   1.267  0.00  0.00    +0.203 C 
BRANCH   5   6
ATOM      6  C   UNL     1      -1.389  -1.016   1.714  0.00  0.00    +0.231 C 
ATOM      7  O   UNL     1      -2.322  -0.631   1.042  0.00  0.00    -0.274 OA
ATOM      8  N   UNL     1      -1.615  -1.688   2.860  0.00  0.00    -0.310 N 
ATOM      9  H   UNL     1      -0.869  -1.996   3.397  0.00  0.00    +0.149 HD
BRANCH   8  10
ATOM     10  C   UNL     1      -2.989  -1.953   3.295  0.00  0.00    +0.149 C 
BRANCH  10  11
ATOM     11  C   UNL     1      -2.966  -2.725   4.615  0.00  0.00    +0.193 C 
ATOM     12  C   UNL     1      -4.402  -3.066   5.083  0.00  0.00    +0.076 C 
ATOM     13  C   UNL     1      -4.289  -2.878   6.586  0.00  0.00    +0.014 C 
ATOM     14  C   UNL     1      -3.178  -2.210   6.816  0.00  0.00    +0.183 C 
ATOM     15  O   UNL     1      -2.496  -1.891   5.692  0.00  0.00    -0.495 OA
ENDBRANCH  10  11
ENDBRANCH   8  10
ENDBRANCH   5   6
ENDBRANCH   2   5
BRANCH   3  16
ATOM     16  C   UNL     1      -0.023   0.089  -2.470  0.00  0.00    +0.098 C 
BRANCH  16  17
ATOM     17  C   UNL     1      -0.020  -0.899  -3.638  0.00  0.00    +0.043 C 
BRANCH  17  18
ATOM     18  C   UNL     1      -0.043  -0.127  -4.959  0.00  0.00    +0.166 C 
ATOM     19  C   UNL     1      -0.268  -1.125  -6.072  0.00  0.00    +0.240 C 
ATOM     20  O   UNL     1      -1.254  -1.835  -6.073  0.00  0.00    -0.273 OA
ATOM     21  N   UNL     1       0.631  -1.215  -7.054  0.00  0.00    -0.282 N 
ATOM     22  C   UNL     1       1.712  -0.454  -7.077  0.00  0.00    +0.057 A 
ATOM     23  C   UNL     1       2.644  -0.575  -8.132  0.00  0.00    +0.025 A 
ATOM     24  C   UNL     1       3.753   0.202  -8.160  0.00  0.00    +0.002 A 
ATOM     25  C   UNL     1       4.039   1.153  -7.167  0.00  0.00    +0.002 A 
ATOM     26  C   UNL     1       3.216   1.350  -6.114  0.00  0.00    +0.027 A 
ATOM     27  C   UNL     1       1.988   0.543  -6.012  0.00  0.00    +0.057 A 
ATOM     28  N   UNL     1       1.169   0.704  -5.014  0.00  0.00    -0.372 N 
ATOM     29  H   UNL     1       1.355   1.358  -4.321  0.00  0.00    +0.160 HD
ATOM     30  H   UNL     1       0.489  -1.855  -7.769  0.00  0.00    +0.155 HD
ENDBRANCH  17  18
ENDBRANCH  16  17
ENDBRANCH   3  16
TORSDOF 7
