REMARK  Name = ZINC09943111
REMARK  12 active torsions:
REMARK  status: ('A' for Active; 'I' for Inactive)
REMARK    1  A    between atoms: C_1  and  C_2
REMARK    2  A    between atoms: C_2  and  O_3
REMARK    3  A    between atoms: O_3  and  C_4
REMARK    4  A    between atoms: C_4  and  C_6
REMARK    5  A    between atoms: C_10  and  N_11
REMARK    6  A    between atoms: C_12  and  C_14
REMARK    7  A    between atoms: C_14  and  C_15
REMARK    8  A    between atoms: C_15  and  N_51
REMARK    9  A    between atoms: C_16  and  C_17
REMARK   10  A    between atoms: C_16  and  C_18
REMARK   11  A    between atoms: C_16  and  C_19
REMARK   12  A    between atoms: C_16  and  N_51
REMARK                            x       y       z     vdW  Elec       q    Type
REMARK                         _______ _______ _______ _____ _____    ______ ____
ROOT
ATOM      1  C   UNL     1       3.637   1.750  -0.029  0.00  0.00    +0.091 A 
ATOM      2  C   UNL     1       4.748   0.813  -0.039  0.00  0.00    -0.021 A 
ATOM      3  C   UNL     1       4.400  -0.492  -0.044  0.00  0.00    -0.004 A 
ATOM      4  S   UNL     1       2.630  -0.489  -0.026  0.00  0.00    -0.077 S 
ATOM      5  C   UNL     1       2.353   1.222  -0.014  0.00  0.00    +0.086 A 
ATOM      6  C   UNL     1       5.322  -1.672  -0.060  0.00  0.00    +0.043 C 
ATOM      7  C   UNL     1       6.725  -1.185  -0.449  0.00  0.00    +0.005 C 
ATOM      8  C   UNL     1       7.070   0.048   0.392  0.00  0.00    +0.005 C 
ATOM      9  C   UNL     1       6.213   1.235  -0.050  0.00  0.00    +0.037 C 
ENDROOT
BRANCH   5  10
ATOM     10  N   UNL     1       1.143   1.898   0.001  0.00  0.00    -0.279 N 
ATOM     11  C   UNL     1      -0.014   1.209   0.009  0.00  0.00    +0.216 C 
ATOM     12  O   UNL     1       0.002  -0.004   0.002  0.00  0.00    -0.276 OA
ATOM     13  H   UNL     1       1.130   2.868   0.007  0.00  0.00    +0.155 HD
BRANCH  11  14
ATOM     14  C   UNL     1      -1.330   1.944   0.019  0.00  0.00    +0.077 C 
BRANCH  14  15
ATOM     15  C   UNL     1      -2.479   0.934   0.019  0.00  0.00    -0.073 C 
BRANCH  15  16
ATOM     16  N   UNL     1      -3.762   1.662   0.029  0.00  0.00    +0.383 N 
ATOM     17  H   UNL     1      -3.820   2.257  -0.806  0.00  0.00    -0.085 HD
ATOM     18  H   UNL     1      -3.812   2.248   0.871  0.00  0.00    -0.085 HD
BRANCH  16  19
ATOM     19  C   UNL     1      -4.890   0.712   0.029  0.00  0.00    -0.077 C 
ATOM     20  C   UNL     1      -4.814  -0.176   1.273  0.00  0.00    -0.011 C 
ATOM     21  C   UNL     1      -6.205   1.494   0.040  0.00  0.00    -0.011 C 
ATOM     22  C   UNL     1      -4.826  -0.162  -1.225  0.00  0.00    -0.011 C 
ENDBRANCH  16  19
ENDBRANCH  15  16
ENDBRANCH  14  15
ENDBRANCH  11  14
ENDBRANCH   5  10
BRANCH   1  23
ATOM     23  C   UNL     1       3.864   3.197  -0.030  0.00  0.00    +0.342 C 
ATOM     24  O   UNL     1       3.971   3.796   1.023  0.00  0.00    -0.245 OA
BRANCH  23  25
ATOM     25  O   UNL     1       3.953   3.864  -1.199  0.00  0.00    -0.461 OA
BRANCH  25  27
ATOM     26  C   UNL     1       4.251   5.876  -2.538  0.00  0.00    +0.048 C 
ATOM     27  C   UNL     1       4.178   5.297  -1.124  0.00  0.00    +0.229 C 
ENDBRANCH  25  27
ENDBRANCH  23  25
ENDBRANCH   1  23
TORSDOF 8
