REMARK  Name = ZINC12225037
REMARK  12 active torsions:
REMARK  status: ('A' for Active; 'I' for Inactive)
REMARK    1  A    between atoms: C_1  and  C_2
REMARK    2  A    between atoms: C_2  and  N_51
REMARK    3  A    between atoms: C_3  and  C_4
REMARK    4  A    between atoms: C_3  and  N_51
REMARK    5  A    between atoms: C_5  and  C_6
REMARK    6  A    between atoms: C_5  and  N_51
REMARK    7  A    between atoms: C_6  and  S_7
REMARK    8  A    between atoms: S_7  and  C_8
REMARK    9  A    between atoms: C_13  and  N_17
REMARK   10  A    between atoms: C_14  and  N_16
REMARK   11  A    between atoms: C_18  and  C_20
REMARK   12  A    between atoms: C_23  and  C_26
REMARK                            x       y       z     vdW  Elec       q    Type
REMARK                         _______ _______ _______ _____ _____    ______ ____
ROOT
ATOM      1  C   UNL     1       1.047   2.030  -0.103  0.00  0.00    +0.171 A 
ATOM      2  N   UNL     1      -0.101   1.300  -0.192  0.00  0.00    -0.300 N 
ATOM      3  H   UNL     1      -0.954   1.751  -0.286  0.00  0.00    +0.171 HD
ATOM      4  C   UNL     1      -0.052  -0.048  -0.156  0.00  0.00    +0.275 A 
ATOM      5  O   UNL     1      -1.075  -0.709  -0.236  0.00  0.00    -0.266 OA
ATOM      6  C   UNL     1       1.196  -0.676  -0.026  0.00  0.00    +0.139 A 
ATOM      7  C   UNL     1       2.336   0.117   0.062  0.00  0.00    +0.146 A 
ATOM      8  N   UNL     1       2.222   1.449   0.020  0.00  0.00    -0.207 NA
ENDROOT
BRANCH   6   9
ATOM      9  N   UNL     1       1.292  -2.080   0.017  0.00  0.00    -0.274 N 
ATOM     10  C   UNL     1       0.625  -2.773   0.961  0.00  0.00    +0.248 C 
ATOM     11  O   UNL     1      -0.133  -2.196   1.717  0.00  0.00    -0.270 OA
ATOM     12  H   UNL     1       1.838  -2.549  -0.634  0.00  0.00    +0.155 HD
BRANCH  10  13
ATOM     13  C   UNL     1       0.814  -4.235   1.077  0.00  0.00    +0.037 A 
ATOM     14  C   UNL     1       1.679  -4.901   0.207  0.00  0.00    +0.013 A 
ATOM     15  C   UNL     1       1.855  -6.264   0.324  0.00  0.00    +0.013 A 
ATOM     16  C   UNL     1       1.169  -6.972   1.294  0.00  0.00    +0.055 A 
ATOM     17  C   UNL     1       0.306  -6.319   2.156  0.00  0.00    +0.013 A 
ATOM     18  C   UNL     1       0.125  -4.955   2.053  0.00  0.00    +0.013 A 
BRANCH  16  19
ATOM     19  C   UNL     1       1.362  -8.462   1.413  0.00  0.00    +0.417 C 
ATOM     20  F   UNL     1       0.429  -9.119   0.604  0.00  0.00    -0.166 F 
ATOM     21  F   UNL     1       2.656  -8.799   1.000  0.00  0.00    -0.166 F 
ATOM     22  F   UNL     1       1.182  -8.851   2.744  0.00  0.00    -0.166 F 
ENDBRANCH  16  19
ENDBRANCH  10  13
ENDBRANCH   6   9
BRANCH   7  23
ATOM     23  N   UNL     1       3.581  -0.470   0.192  0.00  0.00    -0.341 N 
ATOM     24  H   UNL     1       3.662  -1.437   0.222  0.00  0.00    +0.144 HD
ATOM     25  H   UNL     1       4.375   0.084   0.252  0.00  0.00    +0.144 HD
ENDBRANCH   7  23
BRANCH   1  26
ATOM     26  S   UNL     1       0.956   3.788  -0.152  0.00  0.00    -0.090 S 
BRANCH  26  27
ATOM     27  C   UNL     1       2.712   4.199   0.001  0.00  0.00    +0.059 C 
BRANCH  27  28
ATOM     28  C   UNL     1       2.884   5.719  -0.018  0.00  0.00    -0.068 C 
BRANCH  28  29
ATOM     29  N   UNL     1       4.328   6.032   0.018  0.00  0.00    +0.380 N 
ATOM     30  H   UNL     1       4.790   5.400   0.683  0.00  0.00    -0.082 HD
BRANCH  29  32
ATOM     31  C   UNL     1       6.444   5.946  -1.208  0.00  0.00    -0.017 C 
ATOM     32  C   UNL     1       4.922   5.835  -1.321  0.00  0.00    -0.082 C 
ENDBRANCH  29  32
BRANCH  29  33
ATOM     33  C   UNL     1       4.532   7.427   0.460  0.00  0.00    -0.082 C 
ATOM     34  C   UNL     1       4.300   7.502   1.971  0.00  0.00    -0.017 C 
ENDBRANCH  29  33
ENDBRANCH  28  29
ENDBRANCH  27  28
ENDBRANCH  26  27
ENDBRANCH   1  26
TORSDOF 10
