REMARK  Name = ZINC06473259
REMARK  7 active torsions:
REMARK  status: ('A' for Active; 'I' for Inactive)
REMARK    1  A    between atoms: C_1  and  C_2
REMARK    2  A    between atoms: C_2  and  O_3
REMARK    3  A    between atoms: O_3  and  C_4
REMARK    4  A    between atoms: C_7  and  N_10
REMARK    5  A    between atoms: C_11  and  C_17
REMARK    6  A    between atoms: C_20  and  O_23
REMARK    7  A    between atoms: O_23  and  C_24
REMARK                            x       y       z     vdW  Elec       q    Type
REMARK                         _______ _______ _______ _____ _____    ______ ____
ROOT
ATOM      1  N   UNL     1      -0.021   0.029  -0.020  0.00  0.00    -0.271 N 
ATOM      2  C   UNL     1       1.277  -0.420  -0.174  0.00  0.00    +0.167 A 
ATOM      3  N   UNL     1       2.080   0.605  -0.099  0.00  0.00    -0.153 NA
ATOM      4  N   UNL     1       1.302   1.752   0.108  0.00  0.00    -0.254 N 
ATOM      5  H   UNL     1       1.633   2.659   0.203  0.00  0.00    +0.191 HD
ATOM      6  C   UNL     1       0.011   1.365   0.153  0.00  0.00    +0.180 A 
ATOM      7  S   UNL     1      -1.343   2.388   0.380  0.00  0.00    -0.011 S 
ENDROOT
BRANCH   1  11
ATOM      8  C   UNL     1      -3.450  -2.346  -0.076  0.00  0.00    +0.121 A 
ATOM      9  C   UNL     1      -3.211  -1.448  -1.106  0.00  0.00    +0.047 A 
ATOM     10  C   UNL     1      -2.076  -0.662  -1.088  0.00  0.00    +0.030 A 
ATOM     11  C   UNL     1      -1.174  -0.770  -0.039  0.00  0.00    +0.051 A 
ATOM     12  C   UNL     1      -1.410  -1.673   0.990  0.00  0.00    +0.030 A 
ATOM     13  C   UNL     1      -2.548  -2.455   0.973  0.00  0.00    +0.047 A 
BRANCH   8  14
ATOM     14  O   UNL     1      -4.567  -3.120  -0.094  0.00  0.00    -0.492 OA
BRANCH  14  16
ATOM     15  C   UNL     1      -6.052  -4.802   0.805  0.00  0.00    +0.048 C 
ATOM     16  C   UNL     1      -4.750  -4.023   0.999  0.00  0.00    +0.225 C 
ENDBRANCH  14  16
ENDBRANCH   8  14
ENDBRANCH   1  11
BRANCH   2  17
ATOM     17  C   UNL     1       1.687  -1.825  -0.389  0.00  0.00    +0.020 A 
ATOM     18  C   UNL     1       3.006  -2.213  -0.153  0.00  0.00    +0.015 A 
ATOM     19  C   UNL     1       3.383  -3.524  -0.349  0.00  0.00    +0.046 A 
ATOM     20  C   UNL     1       2.453  -4.457  -0.790  0.00  0.00    +0.120 A 
ATOM     21  C   UNL     1       1.140  -4.073  -1.032  0.00  0.00    +0.046 A 
ATOM     22  C   UNL     1       0.755  -2.765  -0.833  0.00  0.00    +0.015 A 
BRANCH  20  23
ATOM     23  O   UNL     1       2.829  -5.747  -0.987  0.00  0.00    -0.495 OA
ATOM     24  C   UNL     1       4.194  -6.073  -0.720  0.00  0.00    +0.277 C 
ENDBRANCH  20  23
ENDBRANCH   2  17
TORSDOF 5
