REMARK  Name = ZINC33306457
REMARK  8 active torsions:
REMARK  status: ('A' for Active; 'I' for Inactive)
REMARK    1  A    between atoms: C_1  and  C_2
REMARK    2  A    between atoms: C_3  and  N_26
REMARK    3  A    between atoms: C_4  and  C_7
REMARK    4  A    between atoms: C_8  and  C_9
REMARK    5  A    between atoms: C_12  and  S_14
REMARK    6  A    between atoms: S_14  and  N_17
REMARK    7  A    between atoms: N_17  and  C_18
REMARK    8  A    between atoms: C_27  and  C_29
REMARK                            x       y       z     vdW  Elec       q    Type
REMARK                         _______ _______ _______ _____ _____    ______ ____
ROOT
ATOM      1  C   UNL     1       2.377   6.165  -1.884  0.00  0.00    +0.014 A 
ATOM      2  C   UNL     1       1.451   6.320  -2.905  0.00  0.00    +0.017 A 
ATOM      3  C   UNL     1       0.643   5.254  -3.220  0.00  0.00    +0.037 A 
ATOM      4  C   UNL     1       0.766   4.095  -2.520  0.00  0.00    +0.148 A 
ATOM      5  S   UNL     1       2.077   4.481  -1.371  0.00  0.00    -0.069 S 
ENDROOT
BRANCH   4   6
ATOM      6  S   UNL     1      -0.133   2.591  -2.705  0.00  0.00    +0.098 S 
ATOM      7  O   UNL     1      -1.327   2.916  -3.404  0.00  0.00    -0.148 OA
ATOM      8  O   UNL     1      -0.143   1.964  -1.430  0.00  0.00    -0.148 OA
BRANCH   6   9
ATOM      9  N   UNL     1       0.750   1.613  -3.707  0.00  0.00    -0.097 NA
BRANCH   9  10
ATOM     10  C   UNL     1       2.016   1.168  -3.312  0.00  0.00    +0.076 A 
ATOM     11  C   UNL     1       3.156   1.736  -3.865  0.00  0.00    +0.029 A 
ATOM     12  C   UNL     1       4.406   1.292  -3.478  0.00  0.00    +0.042 A 
ATOM     13  C   UNL     1       4.522   0.281  -2.540  0.00  0.00    +0.142 A 
ATOM     14  C   UNL     1       3.386  -0.288  -1.987  0.00  0.00    +0.078 A 
ATOM     15  C   UNL     1       2.134   0.154  -2.372  0.00  0.00    +0.049 A 
ATOM     16 CL   UNL     1       3.535  -1.556  -0.810  0.00  0.00    -0.081 Cl
ATOM     17  F   UNL     1       5.745  -0.152  -2.162  0.00  0.00    -0.204 F 
ENDBRANCH   9  10
ENDBRANCH   6   9
ENDBRANCH   4   6
BRANCH   1  19
ATOM     18  C   UNL     1       4.173   6.778  -0.352  0.00  0.00    +0.052 C 
ATOM     19  C   UNL     1       3.348   7.128  -1.365  0.00  0.00    +0.019 C 
BRANCH  18  23
ATOM     20  C   UNL     1       7.877   8.920   2.381  0.00  0.00    +0.071 C 
ATOM     21  C   UNL     1       6.782   8.706   1.368  0.00  0.00    +0.102 A 
ATOM     22  C   UNL     1       6.044   7.523   1.193  0.00  0.00    +0.103 A 
ATOM     23  C   UNL     1       5.142   7.740   0.167  0.00  0.00    +0.182 A 
ATOM     24  O   UNL     1       5.327   9.004  -0.269  0.00  0.00    -0.353 OA
ATOM     25  N   UNL     1       6.357   9.588   0.506  0.00  0.00    -0.081 NA
BRANCH  22  26
ATOM     26  N   UNL     1       6.196   6.336   1.926  0.00  0.00    -0.281 N 
ATOM     27  C   UNL     1       7.427   5.833   2.146  0.00  0.00    +0.214 C 
ATOM     28  O   UNL     1       8.408   6.452   1.791  0.00  0.00    -0.276 OA
ATOM     29  C   UNL     1       7.584   4.502   2.834  0.00  0.00    +0.109 C 
ATOM     30  H   UNL     1       5.311   5.816   2.320  0.00  0.00    +0.155 HD
ENDBRANCH  22  26
ENDBRANCH  18  23
ENDBRANCH   1  19
TORSDOF 6
