REMARK  Name = ZINC67527556
REMARK  8 active torsions:
REMARK  status: ('A' for Active; 'I' for Inactive)
REMARK    1  A    between atoms: C_1  and  C_2
REMARK    2  A    between atoms: C_3  and  C_9
REMARK    3  A    between atoms: C_4  and  C_8
REMARK    4  A    between atoms: N_5  and  C_7
REMARK    5  A    between atoms: C_9  and  C_11
REMARK    6  A    between atoms: C_9  and  N_12
REMARK    7  A    between atoms: N_15  and  C_16
REMARK    8  A    between atoms: C_20  and  C_22
REMARK                            x       y       z     vdW  Elec       q    Type
REMARK                         _______ _______ _______ _____ _____    ______ ____
ROOT
ATOM      1  N   UNL     1       1.469   0.504  -2.548  0.00  0.00    -0.292 N 
ATOM      2  C   UNL     1       2.015   0.754  -3.755  0.00  0.00    +0.304 C 
ATOM      3  O   UNL     1       2.181  -0.154  -4.547  0.00  0.00    -0.252 OA
ATOM      4  N   UNL     1       2.377   2.010  -4.083  0.00  0.00    -0.269 N 
ATOM      5  H   UNL     1       1.337   1.228  -1.916  0.00  0.00    +0.151 HD
ATOM      6  H   UNL     1       2.184   2.744  -3.479  0.00  0.00    +0.156 HD
ENDROOT
BRANCH   4   7
ATOM      7  C   UNL     1       3.032   2.255  -5.296  0.00  0.00    +0.035 A 
ATOM      8  C   UNL     1       2.703   1.515  -6.425  0.00  0.00    +0.023 A 
ATOM      9  C   UNL     1       3.347   1.754  -7.624  0.00  0.00    +0.002 A 
ATOM     10  C   UNL     1       4.322   2.728  -7.707  0.00  0.00    +0.010 A 
ATOM     11  C   UNL     1       4.658   3.475  -6.579  0.00  0.00    +0.001 A 
ATOM     12  C   UNL     1       4.005   3.239  -5.372  0.00  0.00    +0.033 A 
BRANCH  11  13
ATOM     13  C   UNL     1       5.705   4.523  -6.666  0.00  0.00    +0.064 A 
ATOM     14  C   UNL     1       6.132   5.316  -5.647  0.00  0.00    +0.113 A 
ATOM     15  N   UNL     1       7.096   6.127  -6.163  0.00  0.00    -0.335 N 
ATOM     16  C   UNL     1       7.235   5.815  -7.475  0.00  0.00    +0.087 A 
ATOM     17  N   UNL     1       6.409   4.855  -7.769  0.00  0.00    -0.343 N 
ATOM     18  C   UNL     1       8.210   6.498  -8.406  0.00  0.00    +0.072 C 
ATOM     19  C   UNL     1       8.676   7.800  -7.742  0.00  0.00    +0.009 C 
ATOM     20  C   UNL     1       9.101   7.507  -6.300  0.00  0.00    +0.022 C 
ATOM     21  C   UNL     1       7.866   7.159  -5.463  0.00  0.00    +0.123 C 
ATOM     22  H   UNL     1       6.312   4.444  -8.642  0.00  0.00    +0.167 HD
ENDBRANCH  11  13
ENDBRANCH   4   7
BRANCH   1  23
ATOM     23  C   UNL     1       1.076  -0.862  -2.191  0.00  0.00    +0.105 C 
ATOM     24  C   UNL     1      -0.331  -1.142  -2.723  0.00  0.00    +0.033 C 
BRANCH  23  27
ATOM     25  C   UNL     1      -0.128   1.199  -0.106  0.00  0.00    +0.068 C 
ATOM     26  C   UNL     1       0.554  -0.103   0.230  0.00  0.00    +0.065 A 
ATOM     27  C   UNL     1       1.085  -1.011  -0.692  0.00  0.00    +0.016 A 
ATOM     28  C   UNL     1       1.609  -2.049   0.002  0.00  0.00    +0.041 A 
ATOM     29  N   UNL     1       1.416  -1.805   1.315  0.00  0.00    -0.271 N 
ATOM     30  N   UNL     1       0.756  -0.575   1.433  0.00  0.00    -0.176 NA
ATOM     31  C   UNL     1       1.828  -2.672   2.422  0.00  0.00    +0.172 C 
ATOM     32  C   UNL     1       2.286  -3.259  -0.587  0.00  0.00    +0.065 C 
ENDBRANCH  23  27
ENDBRANCH   1  23
TORSDOF 4
