REMARK  Name = ZINC12564251
REMARK  8 active torsions:
REMARK  status: ('A' for Active; 'I' for Inactive)
REMARK    1  A    between atoms: C_1  and  C_2
REMARK    2  A    between atoms: C_3  and  C_21
REMARK    3  A    between atoms: C_5  and  C_20
REMARK    4  A    between atoms: C_6  and  C_8
REMARK    5  A    between atoms: N_9  and  N_10
REMARK    6  A    between atoms: C_13  and  C_19
REMARK    7  A    between atoms: N_22  and  N_23
REMARK    8  A    between atoms: C_26  and  C_32
REMARK                            x       y       z     vdW  Elec       q    Type
REMARK                         _______ _______ _______ _____ _____    ______ ____
ROOT
ATOM      1  C   UNL     1       0.439   1.462  -0.285  0.00  0.00    +0.044 C 
ATOM      2  C   UNL     1       0.223  -0.023  -0.139  0.00  0.00    -0.041 A 
ATOM      3  C   UNL     1      -0.157  -0.786  -1.248  0.00  0.00    -0.002 A 
ATOM      4  C   UNL     1      -0.358  -2.164  -1.113  0.00  0.00    +0.013 A 
ATOM      5  C   UNL     1      -0.182  -2.764   0.101  0.00  0.00    -0.041 A 
ATOM      6  C   UNL     1       0.199  -2.001   1.209  0.00  0.00    -0.002 A 
ATOM      7  C   UNL     1       0.404  -0.623   1.074  0.00  0.00    +0.013 A 
ATOM      8  C   UNL     1      -0.399  -4.248   0.246  0.00  0.00    +0.044 C 
ENDROOT
BRANCH   6   9
ATOM      9  C   UNL     1       0.388  -2.648   2.519  0.00  0.00    +0.138 C 
ATOM     10  N   UNL     1       0.314  -3.940   2.621  0.00  0.00    -0.188 NA
BRANCH  10  11
ATOM     11  N   UNL     1       0.494  -4.556   3.867  0.00  0.00    -0.207 N 
ATOM     12  C   UNL     1       0.415  -5.920   3.975  0.00  0.00    +0.216 A 
ATOM     13  N   UNL     1       0.175  -6.642   2.898  0.00  0.00    -0.220 NA
ATOM     14  C   UNL     1       0.092  -7.969   2.959  0.00  0.00    +0.047 A 
ATOM     15  C   UNL     1       0.255  -8.611   4.153  0.00  0.00    +0.093 A 
ATOM     16  C   UNL     1       0.511  -7.849   5.306  0.00  0.00    +0.253 A 
ATOM     17  O   UNL     1       0.662  -8.390   6.389  0.00  0.00    -0.268 OA
ATOM     18  N   UNL     1       0.592  -6.506   5.191  0.00  0.00    -0.294 N 
ATOM     19  H   UNL     1       0.772  -5.960   5.973  0.00  0.00    +0.172 HD
ATOM     20  C   UNL     1      -0.184  -8.763   1.709  0.00  0.00    +0.066 C 
ATOM     21  H   UNL     1       0.674  -4.017   4.653  0.00  0.00    +0.177 HD
ENDBRANCH  10  11
ENDBRANCH   6   9
BRANCH   3  22
ATOM     22  C   UNL     1      -0.347  -0.139  -2.558  0.00  0.00    +0.138 C 
ATOM     23  N   UNL     1      -0.065   1.120  -2.707  0.00  0.00    -0.188 NA
BRANCH  23  24
ATOM     24  N   UNL     1      -0.245   1.736  -3.952  0.00  0.00    -0.207 N 
ATOM     25  C   UNL     1       0.052   3.064  -4.109  0.00  0.00    +0.216 A 
ATOM     26  N   UNL     1       0.513   3.751  -3.083  0.00  0.00    -0.220 NA
ATOM     27  C   UNL     1       0.814   5.042  -3.192  0.00  0.00    +0.047 A 
ATOM     28  C   UNL     1       0.649   5.685  -4.385  0.00  0.00    +0.093 A 
ATOM     29  C   UNL     1       0.159   4.960  -5.486  0.00  0.00    +0.253 A 
ATOM     30  O   UNL     1      -0.000   5.503  -6.567  0.00  0.00    -0.268 OA
ATOM     31  N   UNL     1      -0.127   3.651  -5.325  0.00  0.00    -0.294 N 
ATOM     32  H   UNL     1      -0.463   3.131  -6.072  0.00  0.00    +0.172 HD
ATOM     33  C   UNL     1       1.339   5.796  -1.998  0.00  0.00    +0.066 C 
ATOM     34  H   UNL     1      -0.581   1.222  -4.703  0.00  0.00    +0.177 HD
ENDBRANCH  23  24
ENDBRANCH   3  22
TORSDOF 4
