REMARK  Name = ZINC36920175
REMARK  6 active torsions:
REMARK  status: ('A' for Active; 'I' for Inactive)
REMARK    1  A    between atoms: C_1  and  C_2
REMARK    2  A    between atoms: C_2  and  C_4
REMARK    3  A    between atoms: C_2  and  N_10
REMARK    4  A    between atoms: N_10  and  C_11
REMARK    5  A    between atoms: C_14  and  C_17
REMARK    6  A    between atoms: C_17  and  N_18
REMARK                            x       y       z     vdW  Elec       q    Type
REMARK                         _______ _______ _______ _____ _____    ______ ____
ROOT
ATOM      1  C   UNL     1       0.027  -0.639   2.398  0.00  0.00    +0.028 A 
ATOM      2  C   UNL     1      -1.326  -0.333   2.475  0.00  0.00    +0.023 A 
ATOM      3  C   UNL     1      -1.998  -0.482   3.672  0.00  0.00    +0.007 A 
ATOM      4  C   UNL     1      -1.327  -0.935   4.793  0.00  0.00    -0.026 A 
ATOM      5  C   UNL     1       0.020  -1.240   4.719  0.00  0.00    +0.007 A 
ATOM      6  C   UNL     1       0.698  -1.099   3.524  0.00  0.00    +0.023 A 
ENDROOT
BRANCH   1   7
ATOM      7  N   UNL     1       0.711  -0.489   1.189  0.00  0.00    -0.337 N 
ATOM      8  H   UNL     1       1.654  -0.707   1.135  0.00  0.00    +0.147 HD
BRANCH   7  10
ATOM      9  C   UNL     1      -0.019   1.526   0.010  0.00  0.00    +0.033 C 
ATOM     10  C   UNL     1       0.002  -0.004   0.002  0.00  0.00    +0.098 C 
BRANCH  10  11
ATOM     11  C   UNL     1       0.707  -0.490  -1.238  0.00  0.00    -0.025 A 
ATOM     12  C   UNL     1       2.092  -0.518  -1.302  0.00  0.00    +0.025 A 
ATOM     13  C   UNL     1       2.704  -0.970  -2.456  0.00  0.00    +0.111 A 
ATOM     14  N   UNL     1       1.987  -1.371  -3.487  0.00  0.00    -0.263 NA
ATOM     15  C   UNL     1       0.668  -1.358  -3.461  0.00  0.00    +0.111 A 
ATOM     16  C   UNL     1      -0.013  -0.925  -2.340  0.00  0.00    +0.025 A 
ENDBRANCH  10  11
ENDBRANCH   7  10
ENDBRANCH   1   7
BRANCH   4  17
ATOM     17  C   UNL     1      -2.064  -1.096   6.097  0.00  0.00    +0.180 C 
BRANCH  17  18
ATOM     18  N   UNL     1      -2.617  -2.450   6.182  0.00  0.00    -0.248 N 
ATOM     19  C   UNL     1      -2.421  -3.339   7.171  0.00  0.00    +0.219 A 
ATOM     20  N   UNL     1      -3.084  -4.428   6.875  0.00  0.00    -0.223 NA
ATOM     21  C   UNL     1      -3.713  -4.271   5.711  0.00  0.00    +0.245 A 
ATOM     22  N   UNL     1      -3.462  -3.074   5.250  0.00  0.00    -0.158 NA
ENDBRANCH  17  18
ENDBRANCH   4  17
TORSDOF 5
