REMARK  Name = ZINC08582754
REMARK  11 active torsions:
REMARK  status: ('A' for Active; 'I' for Inactive)
REMARK    1  A    between atoms: C_1  and  O_2
REMARK    2  A    between atoms: O_2  and  C_3
REMARK    3  A    between atoms: C_8  and  C_14
REMARK    4  A    between atoms: C_14  and  N_15
REMARK    5  A    between atoms: N_15  and  C_16
REMARK    6  A    between atoms: N_15  and  S_23
REMARK    7  A    between atoms: C_16  and  C_17
REMARK    8  A    between atoms: S_23  and  C_26
REMARK    9  A    between atoms: C_31  and  C_32
REMARK   10  A    between atoms: C_32  and  O_34
REMARK   11  A    between atoms: O_34  and  C_35
REMARK                            x       y       z     vdW  Elec       q    Type
REMARK                         _______ _______ _______ _____ _____    ______ ____
ROOT
ATOM      1  N   UNL     1      -6.978  -3.700  -0.646  0.00  0.00    -0.170 NA
ENDROOT
BRANCH   1   2
ATOM      2  S   UNL     1      -7.383  -3.371  -2.218  0.00  0.00    +0.062 S 
ATOM      3  O   UNL     1      -7.835  -2.024  -2.248  0.00  0.00    -0.153 OA
ATOM      4  O   UNL     1      -6.303  -3.830  -3.020  0.00  0.00    -0.153 OA
BRANCH   2   5
ATOM      5  C   UNL     1      -8.772  -4.378  -2.619  0.00  0.00    +0.119 A 
ATOM      6  C   UNL     1     -10.049  -3.942  -2.330  0.00  0.00    +0.029 A 
ATOM      7  C   UNL     1     -11.140  -4.731  -2.645  0.00  0.00    +0.002 A 
ATOM      8  C   UNL     1     -10.960  -5.962  -3.251  0.00  0.00    +0.001 A 
ATOM      9  C   UNL     1      -9.690  -6.410  -3.545  0.00  0.00    +0.017 A 
ATOM     10  C   UNL     1      -8.584  -5.617  -3.236  0.00  0.00    +0.085 A 
BRANCH  10  11
ATOM     11  C   UNL     1      -7.220  -6.088  -3.553  0.00  0.00    +0.341 C 
ATOM     12  O   UNL     1      -6.274  -5.694  -2.901  0.00  0.00    -0.245 OA
BRANCH  11  13
ATOM     13  O   UNL     1      -7.025  -6.954  -4.566  0.00  0.00    -0.464 OA
ATOM     14  C   UNL     1      -5.672  -7.273  -4.896  0.00  0.00    +0.280 C 
ENDBRANCH  11  13
ENDBRANCH  10  11
ENDBRANCH   2   5
ENDBRANCH   1   2
BRANCH   1  15
ATOM     15  C   UNL     1      -7.771  -3.136   0.448  0.00  0.00    +0.150 C 
BRANCH  15  21
ATOM     16  C   UNL     1      -4.990   2.369   2.479  0.00  0.00    +0.122 A 
ATOM     17  C   UNL     1      -5.837   2.662   1.410  0.00  0.00    +0.046 A 
ATOM     18  C   UNL     1      -6.547   1.671   0.798  0.00  0.00    +0.013 A 
ATOM     19  C   UNL     1      -6.425   0.349   1.244  0.00  0.00    -0.001 A 
ATOM     20  C   UNL     1      -7.173  -0.735   0.608  0.00  0.00    +0.020 A 
ATOM     21  C   UNL     1      -7.016  -1.996   1.082  0.00  0.00    +0.033 A 
ATOM     22  C   UNL     1      -6.149  -2.246   2.165  0.00  0.00    +0.254 A 
ATOM     23  N   UNL     1      -5.457  -1.256   2.757  0.00  0.00    -0.322 N 
ATOM     24  C   UNL     1      -5.572   0.048   2.323  0.00  0.00    +0.053 A 
ATOM     25  C   UNL     1      -4.852   1.068   2.932  0.00  0.00    +0.072 A 
ATOM     26  O   UNL     1      -6.023  -3.386   2.576  0.00  0.00    -0.268 OA
ATOM     27  H   UNL     1      -4.869  -1.463   3.501  0.00  0.00    +0.169 HD
BRANCH  16  29
ATOM     28  C   UNL     1      -4.477   4.687   2.563  0.00  0.00    +0.277 C 
ATOM     29  O   UNL     1      -4.291   3.367   3.076  0.00  0.00    -0.495 OA
ENDBRANCH  16  29
ENDBRANCH  15  21
ENDBRANCH   1  15
BRANCH   1  30
ATOM     30  C   UNL     1      -5.825  -4.554  -0.350  0.00  0.00    +0.141 C 
BRANCH  30  31
ATOM     31  C   UNL     1      -6.313  -5.941   0.073  0.00  0.00    +0.134 C 
ATOM     32  C   UNL     1      -5.211  -6.662   0.877  0.00  0.00    +0.035 C 
ATOM     33  C   UNL     1      -5.329  -8.123   0.363  0.00  0.00    +0.031 C 
ATOM     34  C   UNL     1      -5.729  -7.882  -1.115  0.00  0.00    +0.160 C 
ATOM     35  O   UNL     1      -6.593  -6.733  -1.088  0.00  0.00    -0.375 OA
ENDBRANCH  30  31
ENDBRANCH   1  30
TORSDOF 9
