REMARK  Name = ZINC08130318
REMARK  11 active torsions:
REMARK  status: ('A' for Active; 'I' for Inactive)
REMARK    1  A    between atoms: C_1  and  C_2
REMARK    2  A    between atoms: C_5  and  O_27
REMARK    3  A    between atoms: C_6  and  C_8
REMARK    4  A    between atoms: C_8  and  C_10
REMARK    5  A    between atoms: C_8  and  N_11
REMARK    6  A    between atoms: C_12  and  C_14
REMARK    7  A    between atoms: C_14  and  N_15
REMARK    8  A    between atoms: C_16  and  C_18
REMARK    9  A    between atoms: C_18  and  N_19
REMARK   10  A    between atoms: C_20  and  C_22
REMARK   11  A    between atoms: O_27  and  C_28
REMARK                            x       y       z     vdW  Elec       q    Type
REMARK                         _______ _______ _______ _____ _____    ______ ____
ROOT
ATOM      1  N   UNL     1      -1.161   1.760  -0.252  0.00  0.00    -0.307 N 
ATOM      2  C   UNL     1      -0.059   1.007  -0.441  0.00  0.00    +0.231 C 
ATOM      3  O   UNL     1      -0.134  -0.202  -0.387  0.00  0.00    -0.274 OA
ATOM      4  H   UNL     1      -1.101   2.727  -0.295  0.00  0.00    +0.149 HD
ENDROOT
BRANCH   1   5
ATOM      5  C   UNL     1      -2.449   1.117   0.020  0.00  0.00    +0.104 C 
ATOM      6  C   UNL     1      -2.593   0.878   1.524  0.00  0.00    +0.033 C 
BRANCH   5  12
ATOM      7  C   UNL     1      -4.202   5.689  -1.011  0.00  0.00    +0.044 C 
ATOM      8  C   UNL     1      -4.406   4.197  -0.950  0.00  0.00    -0.050 A 
ATOM      9  C   UNL     1      -5.617   3.650  -1.330  0.00  0.00    +0.007 A 
ATOM     10  C   UNL     1      -5.807   2.283  -1.276  0.00  0.00    +0.046 A 
ATOM     11  C   UNL     1      -4.779   1.458  -0.842  0.00  0.00    +0.125 A 
ATOM     12  C   UNL     1      -3.566   2.010  -0.456  0.00  0.00    +0.014 A 
ATOM     13  C   UNL     1      -3.381   3.378  -0.513  0.00  0.00    +0.012 A 
BRANCH  11  14
ATOM     14  O   UNL     1      -4.961   0.112  -0.792  0.00  0.00    -0.495 OA
ATOM     15  C   UNL     1      -6.236  -0.386  -1.205  0.00  0.00    +0.277 C 
ENDBRANCH  11  14
ENDBRANCH   5  12
ENDBRANCH   1   5
BRANCH   2  16
ATOM     16  C   UNL     1       1.265   1.668  -0.727  0.00  0.00    +0.200 C 
BRANCH  16  17
ATOM     17  N   UNL     1       2.296   0.642  -0.899  0.00  0.00    -0.305 N 
ATOM     18  C   UNL     1       3.567   1.002  -1.165  0.00  0.00    +0.231 C 
ATOM     19  O   UNL     1       3.858   2.175  -1.261  0.00  0.00    -0.274 OA
ATOM     20  H   UNL     1       2.063  -0.297  -0.822  0.00  0.00    +0.149 HD
BRANCH  18  21
ATOM     21  C   UNL     1       4.628  -0.054  -1.342  0.00  0.00    +0.200 C 
BRANCH  21  22
ATOM     22  N   UNL     1       5.915   0.589  -1.619  0.00  0.00    -0.300 N 
ATOM     23  C   UNL     1       7.016  -0.164  -1.814  0.00  0.00    +0.280 C 
ATOM     24  O   UNL     1       6.941  -1.378  -1.760  0.00  0.00    -0.267 OA
ATOM     25  H   UNL     1       5.975   1.556  -1.663  0.00  0.00    +0.150 HD
BRANCH  23  26
ATOM     26  C   UNL     1       8.304   0.479  -2.092  0.00  0.00    +0.189 A 
ATOM     27  C   UNL     1       9.491  -0.161  -2.308  0.00  0.00    +0.054 A 
ATOM     28  C   UNL     1      10.452   0.836  -2.533  0.00  0.00    +0.042 A 
ATOM     29  C   UNL     1       9.819   2.026  -2.446  0.00  0.00    +0.196 A 
ATOM     30  O   UNL     1       8.524   1.807  -2.185  0.00  0.00    -0.458 OA
ENDBRANCH  23  26
ENDBRANCH  21  22
ENDBRANCH  18  21
ENDBRANCH  16  17
ENDBRANCH   2  16
TORSDOF 8
