REMARK  Name = ZINC40824467
REMARK  7 active torsions:
REMARK  status: ('A' for Active; 'I' for Inactive)
REMARK    1  A    between atoms: C_1  and  C_2
REMARK    2  A    between atoms: C_6  and  C_7
REMARK    3  A    between atoms: N_9  and  C_10
REMARK    4  A    between atoms: C_12  and  C_17
REMARK    5  A    between atoms: N_25  and  N_26
REMARK    6  A    between atoms: N_26  and  C_27
REMARK    7  A    between atoms: C_27  and  N_29
REMARK                            x       y       z     vdW  Elec       q    Type
REMARK                         _______ _______ _______ _____ _____    ______ ____
ROOT
ATOM      1  C   UNL     1      -0.005   1.502   0.010  0.00  0.00    +0.048 C 
ATOM      2  C   UNL     1       0.021  -0.004   0.002  0.00  0.00    +0.009 A 
ATOM      3  C   UNL     1       0.039  -0.839  -1.123  0.00  0.00    +0.042 A 
ATOM      4  C   UNL     1       0.059  -2.138  -0.673  0.00  0.00    +0.115 A 
ATOM      5  O   UNL     1       0.057  -2.112   0.658  0.00  0.00    -0.454 OA
ATOM      6  C   UNL     1       0.039  -0.831   1.091  0.00  0.00    +0.193 A 
ATOM      7  C   UNL     1       0.077  -3.327  -1.599  0.00  0.00    +0.075 C 
ATOM      8  C   UNL     1      -0.440  -2.905  -2.978  0.00  0.00    +0.014 C 
ATOM      9  C   UNL     1       0.330  -1.685  -3.493  0.00  0.00    +0.058 C 
ATOM     10  C   UNL     1       0.041  -0.513  -2.567  0.00  0.00    +0.070 C 
ATOM     11  N   UNL     1      -0.188   0.685  -3.010  0.00  0.00    -0.185 NA
ENDROOT
BRANCH   6  12
ATOM     12  C   UNL     1       0.035  -0.400   2.493  0.00  0.00    +0.284 C 
ATOM     13  O   UNL     1       0.015   0.786   2.765  0.00  0.00    -0.266 OA
ATOM     14  N   UNL     1       0.054  -1.318   3.480  0.00  0.00    -0.278 N 
ATOM     15  H   UNL     1      -0.011  -2.261   3.266  0.00  0.00    +0.155 HD
BRANCH  14  16
ATOM     16  C   UNL     1       0.167  -0.909   4.813  0.00  0.00    +0.053 A 
ATOM     17  C   UNL     1       0.759   0.309   5.120  0.00  0.00    +0.037 A 
ATOM     18  C   UNL     1       0.869   0.710   6.437  0.00  0.00    +0.057 A 
ATOM     19  C   UNL     1       0.390  -0.100   7.450  0.00  0.00    +0.014 A 
ATOM     20  C   UNL     1      -0.199  -1.314   7.150  0.00  0.00    +0.022 A 
ATOM     21  C   UNL     1      -0.318  -1.718   5.833  0.00  0.00    +0.062 A 
ATOM     22 CL   UNL     1      -1.066  -3.239   5.455  0.00  0.00    -0.082 Cl
BRANCH  18  23
ATOM     23  C   UNL     1       1.512   2.032   6.770  0.00  0.00    +0.417 C 
ATOM     24  F   UNL     1       0.535   3.033   6.791  0.00  0.00    -0.166 F 
ATOM     25  F   UNL     1       2.123   1.950   8.026  0.00  0.00    -0.166 F 
ATOM     26  F   UNL     1       2.474   2.339   5.802  0.00  0.00    -0.166 F 
ENDBRANCH  18  23
ENDBRANCH  14  16
ENDBRANCH   6  12
BRANCH  11  27
ATOM     27  N   UNL     1      -0.174   0.936  -4.388  0.00  0.00    -0.218 N 
ATOM     28  H   UNL     1       0.007   0.215  -5.011  0.00  0.00    +0.176 HD
BRANCH  27  29
ATOM     29  C   UNL     1      -0.412   2.180  -4.848  0.00  0.00    +0.147 C 
ATOM     30  S   UNL     1      -0.395   2.488  -6.532  0.00  0.00    -0.017 S 
BRANCH  29  31
ATOM     31  N   UNL     1      -0.663   3.183  -3.983  0.00  0.00    -0.339 N 
ATOM     32  H   UNL     1      -0.673   3.009  -3.029  0.00  0.00    +0.144 HD
ATOM     33  H   UNL     1      -0.835   4.078  -4.314  0.00  0.00    +0.144 HD
ENDBRANCH  29  31
ENDBRANCH  27  29
ENDBRANCH  11  27
TORSDOF 6
