REMARK  Name = ZINC64320551
REMARK  8 active torsions:
REMARK  status: ('A' for Active; 'I' for Inactive)
REMARK    1  A    between atoms: C_1  and  C_2
REMARK    2  A    between atoms: C_2  and  O_3
REMARK    3  A    between atoms: O_3  and  C_4
REMARK    4  A    between atoms: C_7  and  N_10
REMARK    5  A    between atoms: C_11  and  C_13
REMARK    6  A    between atoms: C_13  and  N_14
REMARK    7  A    between atoms: C_15  and  C_17
REMARK    8  A    between atoms: C_21  and  N_27
REMARK                            x       y       z     vdW  Elec       q    Type
REMARK                         _______ _______ _______ _____ _____    ______ ____
ROOT
ATOM      1  N   UNL     1       2.879  -8.257   4.053  0.00  0.00    -0.302 N 
ATOM      2  C   UNL     1       3.199  -9.534   4.345  0.00  0.00    +0.261 C 
ATOM      3  O   UNL     1       2.817 -10.436   3.625  0.00  0.00    -0.269 OA
ATOM      4  H   UNL     1       3.184  -7.537   4.627  0.00  0.00    +0.150 HD
ENDROOT
BRANCH   2   5
ATOM      5  C   UNL     1       4.011  -9.835   5.533  0.00  0.00    +0.103 A 
ATOM      6  C   UNL     1       4.402 -11.075   5.927  0.00  0.00    +0.041 A 
ATOM      7  C   UNL     1       5.164 -10.932   7.112  0.00  0.00    +0.003 A 
ATOM      8  C   UNL     1       5.814 -11.843   7.954  0.00  0.00    +0.042 A 
ATOM      9  C   UNL     1       6.486 -11.392   9.052  0.00  0.00    +0.127 A 
ATOM     10  C   UNL     1       6.534 -10.035   9.345  0.00  0.00    +0.035 A 
ATOM     11  C   UNL     1       5.903  -9.120   8.532  0.00  0.00    +0.028 A 
ATOM     12  C   UNL     1       5.211  -9.555   7.406  0.00  0.00    +0.047 A 
ATOM     13  N   UNL     1       4.504  -8.901   6.424  0.00  0.00    -0.351 N 
ATOM     14  H   UNL     1       4.372  -7.942   6.368  0.00  0.00    +0.166 HD
BRANCH   9  15
ATOM     15  N   UNL     1       7.172 -12.358   9.940  0.00  0.00    +0.056 N 
ATOM     16  O   UNL     1       7.134 -13.540   9.691  0.00  0.00    -0.126 OA
ATOM     17  O   UNL     1       7.769 -11.964  10.914  0.00  0.00    -0.126 OA
ENDBRANCH   9  15
ENDBRANCH   2   5
BRANCH   1  18
ATOM     18  C   UNL     1       2.070  -7.957   2.869  0.00  0.00    +0.200 C 
BRANCH  18  20
ATOM     19  N   UNL     1       1.135  -5.957   1.754  0.00  0.00    -0.284 N 
ATOM     20  C   UNL     1       1.856  -6.469   2.771  0.00  0.00    +0.234 C 
ATOM     21  O   UNL     1       2.332  -5.731   3.608  0.00  0.00    -0.274 OA
ATOM     22  H   UNL     1       0.691  -6.550   1.128  0.00  0.00    +0.155 HD
BRANCH  19  26
ATOM     23  C   UNL     1       0.817  -1.825   1.294  0.00  0.00    +0.121 A 
ATOM     24  C   UNL     1       1.984  -2.378   1.801  0.00  0.00    +0.047 A 
ATOM     25  C   UNL     1       2.090  -3.747   1.954  0.00  0.00    +0.027 A 
ATOM     26  C   UNL     1       1.028  -4.569   1.600  0.00  0.00    +0.034 A 
ATOM     27  C   UNL     1      -0.139  -4.014   1.093  0.00  0.00    +0.027 A 
ATOM     28  C   UNL     1      -0.246  -2.645   0.946  0.00  0.00    +0.047 A 
BRANCH  23  29
ATOM     29  O   UNL     1       0.714  -0.477   1.145  0.00  0.00    -0.492 OA
BRANCH  29  31
ATOM     30  C   UNL     1       1.545   1.787   1.285  0.00  0.00    +0.048 C 
ATOM     31  C   UNL     1       1.847   0.306   1.523  0.00  0.00    +0.225 C 
ENDBRANCH  29  31
ENDBRANCH  23  29
ENDBRANCH  19  26
ENDBRANCH  18  20
ENDBRANCH   1  18
TORSDOF 7
