REMARK  Name = ZINC66791334
REMARK  5 active torsions:
REMARK  status: ('A' for Active; 'I' for Inactive)
REMARK    1  A    between atoms: C_8  and  C_13
REMARK    2  A    between atoms: N_15  and  N_16
REMARK    3  A    between atoms: C_17  and  C_19
REMARK    4  A    between atoms: C_19  and  C_20
REMARK    5  A    between atoms: C_20  and  C_21
REMARK                            x       y       z     vdW  Elec       q    Type
REMARK                         _______ _______ _______ _____ _____    ______ ____
ROOT
ATOM      1  C   UNL     1       2.585  -4.212  -0.047  0.00  0.00    +0.277 C 
ATOM      2  O   UNL     1       1.560  -4.867  -0.040  0.00  0.00    -0.267 OA
ATOM      3  N   UNL     1       3.781  -4.832  -0.062  0.00  0.00    -0.229 N 
ATOM      4  H   UNL     1       4.598  -4.310  -0.068  0.00  0.00    +0.173 HD
ENDROOT
BRANCH   1  12
ATOM      5  C   UNL     1      -0.017   1.374   0.010  0.00  0.00    +0.001 A 
ATOM      6  C   UNL     1       1.167   2.099   0.002  0.00  0.00    +0.001 A 
ATOM      7  C   UNL     1       2.387   1.456  -0.013  0.00  0.00    +0.014 A 
ATOM      8  C   UNL     1       2.431   0.064  -0.021  0.00  0.00    +0.046 A 
ATOM      9  C   UNL     1       1.226  -0.676  -0.013  0.00  0.00    -0.011 A 
ATOM     10  C   UNL     1       0.002  -0.004   0.002  0.00  0.00    +0.009 A 
ATOM     11  C   UNL     1       1.303  -2.137  -0.022  0.00  0.00    +0.039 A 
ATOM     12  C   UNL     1       2.518  -2.739  -0.038  0.00  0.00    +0.106 A 
ATOM     13  N   UNL     1       3.692  -2.018  -0.045  0.00  0.00    -0.318 N 
ATOM     14  H   UNL     1       4.536  -2.495  -0.056  0.00  0.00    +0.169 HD
ATOM     15  C   UNL     1       3.704  -0.670  -0.038  0.00  0.00    +0.257 A 
ATOM     16  O   UNL     1       4.761  -0.066  -0.045  0.00  0.00    -0.267 OA
ENDBRANCH   1  12
BRANCH   3  17
ATOM     17  N   UNL     1       3.845  -6.232  -0.071  0.00  0.00    -0.234 N 
ATOM     18  C   UNL     1       5.041  -6.852  -0.087  0.00  0.00    +0.229 C 
ATOM     19  O   UNL     1       6.063  -6.199  -0.093  0.00  0.00    -0.274 OA
ATOM     20  H   UNL     1       3.027  -6.755  -0.066  0.00  0.00    +0.173 HD
BRANCH  18  21
ATOM     21  C   UNL     1       5.109  -8.358  -0.096  0.00  0.00    +0.097 C 
BRANCH  21  22
ATOM     22  C   UNL     1       6.573  -8.802  -0.113  0.00  0.00    +0.013 C 
BRANCH  22  23
ATOM     23  C   UNL     1       6.642 -10.330  -0.122  0.00  0.00    -0.011 C 
ATOM     24  C   UNL     1       6.070 -10.875   1.188  0.00  0.00    +0.003 C 
ATOM     25  C   UNL     1       6.139 -12.403   1.178  0.00  0.00    +0.000 C 
ATOM     26  C   UNL     1       7.596 -12.847   1.035  0.00  0.00    +0.000 C 
ATOM     27  C   UNL     1       8.169 -12.302  -0.275  0.00  0.00    +0.000 C 
ATOM     28  C   UNL     1       8.100 -10.774  -0.266  0.00  0.00    +0.003 C 
ENDBRANCH  22  23
ENDBRANCH  21  22
ENDBRANCH  18  21
ENDBRANCH   3  17
TORSDOF 5
