REMARK  Name = ZINC13655854
REMARK  7 active torsions:
REMARK  status: ('A' for Active; 'I' for Inactive)
REMARK    1  A    between atoms: C_1  and  C_2
REMARK    2  A    between atoms: C_4  and  C_15
REMARK    3  A    between atoms: C_5  and  C_14
REMARK    4  A    between atoms: N_6  and  C_7
REMARK    5  A    between atoms: C_12  and  O_13
REMARK    6  A    between atoms: N_22  and  C_25
REMARK    7  A    between atoms: C_25  and  C_26
REMARK                            x       y       z     vdW  Elec       q    Type
REMARK                         _______ _______ _______ _____ _____    ______ ____
ROOT
ATOM      1  C   UNL     1       0.041  -3.336  -1.422  0.00  0.00    +0.028 C 
ATOM      2  C   UNL     1      -0.655  -3.365  -2.625  0.00  0.00    +0.102 C 
ATOM      3  C   UNL     1      -0.760  -4.595  -3.421  0.00  0.00    +0.276 C 
ATOM      4  O   UNL     1      -0.180  -5.740  -3.004  0.00  0.00    -0.268 OA
ATOM      5  N   UNL     1      -1.437  -4.555  -4.557  0.00  0.00    -0.123 NA
ATOM      6  C   UNL     1      -2.020  -3.442  -4.993  0.00  0.00    +0.336 C 
ATOM      7  O   UNL     1      -2.627  -3.484  -6.049  0.00  0.00    -0.250 OA
ATOM      8  N   UNL     1      -1.976  -2.275  -4.334  0.00  0.00    -0.213 N 
ATOM      9  C   UNL     1      -1.326  -2.164  -3.156  0.00  0.00    +0.260 C 
ATOM     10  O   UNL     1      -1.290  -1.106  -2.554  0.00  0.00    -0.269 OA
ENDROOT
BRANCH   1  14
ATOM     11  C   UNL     1       1.262   1.485  -0.564  0.00  0.00    +0.064 C 
ATOM     12  C   UNL     1       0.828   0.051  -0.402  0.00  0.00    +0.022 A 
ATOM     13  C   UNL     1       0.741  -0.851  -1.392  0.00  0.00    +0.031 A 
ATOM     14  C   UNL     1       0.281  -2.104  -0.774  0.00  0.00    -0.003 A 
ATOM     15  C   UNL     1       0.130  -1.825   0.578  0.00  0.00    +0.028 A 
ATOM     16  N   UNL     1       0.467  -0.539   0.779  0.00  0.00    -0.314 N 
ATOM     17  C   UNL     1      -0.325  -2.796   1.637  0.00  0.00    +0.064 C 
BRANCH  16  18
ATOM     18  C   UNL     1       0.447   0.109   2.022  0.00  0.00    +0.088 A 
ATOM     19  C   UNL     1      -0.706   0.749   2.455  0.00  0.00    +0.030 A 
ATOM     20  C   UNL     1      -0.724   1.386   3.681  0.00  0.00    +0.002 A 
ATOM     21  C   UNL     1       0.405   1.388   4.479  0.00  0.00    +0.004 A 
ATOM     22  C   UNL     1       1.558   0.753   4.056  0.00  0.00    +0.047 A 
ATOM     23  C   UNL     1       1.582   0.107   2.830  0.00  0.00    +0.141 A 
BRANCH  23  24
ATOM     24  O   UNL     1       2.712  -0.523   2.414  0.00  0.00    -0.505 OA
ATOM     25  H   UNL     1       3.314   0.041   1.909  0.00  0.00    +0.292 HD
ENDBRANCH  23  24
ENDBRANCH  16  18
ENDBRANCH   1  14
BRANCH   8  26
ATOM     26  C   UNL     1      -2.651  -1.103  -4.897  0.00  0.00    +0.192 C 
BRANCH  26  27
ATOM     27  C   UNL     1      -4.071  -1.050  -4.395  0.00  0.00    +0.123 A 
ATOM     28  C   UNL     1      -4.488  -0.420  -3.282  0.00  0.00    +0.046 A 
ATOM     29  C   UNL     1      -5.884  -0.626  -3.194  0.00  0.00    +0.041 A 
ATOM     30  C   UNL     1      -6.236  -1.370  -4.259  0.00  0.00    +0.195 A 
ATOM     31  O   UNL     1      -5.134  -1.618  -4.986  0.00  0.00    -0.466 OA
ENDBRANCH  26  27
ENDBRANCH   8  26
TORSDOF 5
