REMARK  Name = ZINC10242361
REMARK  8 active torsions:
REMARK  status: ('A' for Active; 'I' for Inactive)
REMARK    1  A    between atoms: C_1  and  N_2
REMARK    2  A    between atoms: C_6  and  C_8
REMARK    3  A    between atoms: C_8  and  C_10
REMARK    4  A    between atoms: C_8  and  O_16
REMARK    5  A    between atoms: O_16  and  C_17
REMARK    6  A    between atoms: C_17  and  C_19
REMARK    7  A    between atoms: C_23  and  S_25
REMARK    8  A    between atoms: S_25  and  C_28
REMARK                            x       y       z     vdW  Elec       q    Type
REMARK                         _______ _______ _______ _____ _____    ______ ____
ROOT
ATOM      1  C   UNL     1      -2.526  -2.789   0.010  0.00  0.00    +0.292 C 
ENDROOT
BRANCH   1   7
ATOM      2  C   UNL     1      -4.269  -8.210   2.280  0.00  0.00    +0.129 C 
ATOM      3  N   UNL     1      -4.404  -6.921   1.597  0.00  0.00    -0.302 N 
ATOM      4  C   UNL     1      -3.334  -6.111   1.469  0.00  0.00    +0.306 C 
ATOM      5  O   UNL     1      -2.257  -6.451   1.919  0.00  0.00    -0.252 OA
ATOM      6  N   UNL     1      -3.458  -4.925   0.841  0.00  0.00    -0.237 N 
ATOM      7  C   UNL     1      -2.388  -4.116   0.712  0.00  0.00    +0.266 C 
ATOM      8  O   UNL     1      -1.314  -4.455   1.161  0.00  0.00    -0.271 OA
ATOM      9  H   UNL     1      -5.263  -6.650   1.238  0.00  0.00    +0.150 HD
ATOM     10  H   UNL     1      -4.317  -4.654   0.481  0.00  0.00    +0.159 HD
ENDBRANCH   1   7
BRANCH   1  11
ATOM     11  C   UNL     1      -2.983  -3.017  -1.408  0.00  0.00    +0.002 A 
ATOM     12  C   UNL     1      -2.070  -3.389  -2.377  0.00  0.00    +0.008 A 
ATOM     13  C   UNL     1      -2.490  -3.602  -3.676  0.00  0.00    +0.000 A 
ATOM     14  C   UNL     1      -3.821  -3.434  -4.009  0.00  0.00    +0.000 A 
ATOM     15  C   UNL     1      -4.733  -3.057  -3.041  0.00  0.00    +0.000 A 
ATOM     16  C   UNL     1      -4.314  -2.848  -1.741  0.00  0.00    +0.008 A 
ENDBRANCH   1  11
BRANCH   1  17
ATOM     17  O   UNL     1      -1.243  -2.110   0.002  0.00  0.00    -0.444 OA
BRANCH  17  18
ATOM     18  C   UNL     1      -1.265  -0.763   0.010  0.00  0.00    +0.340 C 
ATOM     19  O   UNL     1      -2.326  -0.172   0.022  0.00  0.00    -0.245 OA
BRANCH  18  20
ATOM     20  C   UNL     1       0.002  -0.004   0.002  0.00  0.00    +0.061 A 
ATOM     21  C   UNL     1       1.224  -0.680  -0.013  0.00  0.00    +0.016 A 
ATOM     22  C   UNL     1       2.404   0.034  -0.021  0.00  0.00    +0.023 A 
ATOM     23  C   UNL     1       2.378   1.419  -0.013  0.00  0.00    +0.066 A 
ATOM     24  C   UNL     1       1.170   2.095   0.002  0.00  0.00    +0.107 A 
ATOM     25  C   UNL     1      -0.017   1.392   0.010  0.00  0.00    +0.043 A 
ATOM     26 CL   UNL     1       3.868   2.311  -0.022  0.00  0.00    -0.082 Cl
BRANCH  24  27
ATOM     27  S   UNL     1       1.148   3.857   0.011  0.00  0.00    -0.004 S 
ATOM     28  O   UNL     1       1.998   4.236  -1.063  0.00  0.00    -0.170 OA
ATOM     29  O   UNL     1      -0.230   4.203   0.001  0.00  0.00    -0.170 OA
ATOM     30  C   UNL     1       1.898   4.324   1.595  0.00  0.00    +0.200 C 
ENDBRANCH  24  27
ENDBRANCH  18  20
ENDBRANCH  17  18
ENDBRANCH   1  17
TORSDOF 6
