REMARK  Name = ZINC36619428
REMARK  10 active torsions:
REMARK  status: ('A' for Active; 'I' for Inactive)
REMARK    1  A    between atoms: C_1  and  C_2
REMARK    2  A    between atoms: C_4  and  C_17
REMARK    3  A    between atoms: C_6  and  C_11
REMARK    4  A    between atoms: N_14  and  C_16
REMARK    5  A    between atoms: N_19  and  C_20
REMARK    6  A    between atoms: C_20  and  C_22
REMARK    7  A    between atoms: C_20  and  C_23
REMARK    8  A    between atoms: C_26  and  C_29
REMARK    9  A    between atoms: C_29  and  C_30
REMARK   10  A    between atoms: C_29  and  C_31
REMARK                            x       y       z     vdW  Elec       q    Type
REMARK                         _______ _______ _______ _____ _____    ______ ____
ROOT
ATOM      1  C   UNL     1      -1.637   1.321  -0.393  0.00  0.00    +0.070 C 
ATOM      2  C   UNL     1      -1.337  -0.155  -0.332  0.00  0.00    +0.091 A 
ATOM      3  C   UNL     1      -0.700  -0.953  -1.378  0.00  0.00    +0.076 A 
ATOM      4  C   UNL     1      -0.201  -0.659  -2.664  0.00  0.00    +0.053 A 
ATOM      5  C   UNL     1       0.354  -1.701  -3.401  0.00  0.00    +0.042 A 
ATOM      6  C   UNL     1       0.393  -2.982  -2.844  0.00  0.00    +0.079 A 
ATOM      7  N   UNL     1      -0.085  -3.223  -1.633  0.00  0.00    -0.210 NA
ATOM      8  C   UNL     1      -0.623  -2.268  -0.890  0.00  0.00    +0.260 A 
ATOM      9  O   UNL     1      -1.167  -2.261   0.344  0.00  0.00    -0.334 OA
ATOM     10  N   UNL     1      -1.592  -0.951   0.662  0.00  0.00    -0.080 NA
ENDROOT
BRANCH   6  11
ATOM     11  C   UNL     1       0.982  -4.095  -3.625  0.00  0.00    +0.038 A 
ATOM     12  C   UNL     1       1.536  -4.004  -4.919  0.00  0.00    +0.144 A 
ATOM     13  N   UNL     1       1.950  -5.193  -5.267  0.00  0.00    -0.179 NA
ATOM     14  N   UNL     1       1.679  -6.083  -4.221  0.00  0.00    -0.274 N 
ATOM     15  C   UNL     1       1.093  -5.396  -3.222  0.00  0.00    +0.118 A 
ATOM     16  C   UNL     1       1.987  -7.515  -4.211  0.00  0.00    +0.172 C 
ENDBRANCH   6  11
BRANCH   4  17
ATOM     17  C   UNL     1      -0.265   0.714  -3.213  0.00  0.00    +0.245 C 
ATOM     18  O   UNL     1      -0.115   1.670  -2.477  0.00  0.00    -0.270 OA
ATOM     19  N   UNL     1      -0.489   0.905  -4.528  0.00  0.00    -0.305 N 
ATOM     20  H   UNL     1      -0.608   0.142  -5.115  0.00  0.00    +0.150 HD
BRANCH  19  21
ATOM     21  C   UNL     1      -0.552   2.264  -5.071  0.00  0.00    +0.100 C 
ATOM     22  C   UNL     1       0.862   2.752  -5.391  0.00  0.00    +0.033 C 
BRANCH  21  23
ATOM     23  C   UNL     1      -1.380   2.264  -6.330  0.00  0.00    -0.027 A 
ATOM     24  C   UNL     1      -1.268   1.222  -7.231  0.00  0.00    +0.006 A 
ATOM     25  C   UNL     1      -2.028   1.222  -8.386  0.00  0.00    +0.004 A 
ATOM     26  C   UNL     1      -2.900   2.263  -8.639  0.00  0.00    -0.045 A 
ATOM     27  C   UNL     1      -3.013   3.305  -7.738  0.00  0.00    +0.004 A 
ATOM     28  C   UNL     1      -2.257   3.303  -6.581  0.00  0.00    +0.006 A 
BRANCH  26  29
ATOM     29  C   UNL     1      -3.728   2.264  -9.899  0.00  0.00    +0.013 C 
ATOM     30  C   UNL     1      -5.213   2.276  -9.533  0.00  0.00    +0.012 C 
ATOM     31  C   UNL     1      -3.396   3.507 -10.726  0.00  0.00    +0.012 C 
ENDBRANCH  26  29
ENDBRANCH  21  23
ENDBRANCH  19  21
ENDBRANCH   4  17
TORSDOF 5
