REMARK  Name = ZINC37404743
REMARK  5 active torsions:
REMARK  status: ('A' for Active; 'I' for Inactive)
REMARK    1  A    between atoms: C_1  and  C_2
REMARK    2  A    between atoms: C_3  and  C_20
REMARK    3  A    between atoms: C_4  and  S_10
REMARK    4  A    between atoms: S_10  and  C_11
REMARK    5  A    between atoms: C_11  and  C_12
REMARK                            x       y       z     vdW  Elec       q    Type
REMARK                         _______ _______ _______ _____ _____    ______ ____
ROOT
ATOM      1  C   UNL     1      -0.018   1.503   0.010  0.00  0.00    +0.064 C 
ATOM      2  C   UNL     1       0.002  -0.004   0.002  0.00  0.00    +0.034 A 
ATOM      3  C   UNL     1      -1.182  -0.724   0.004  0.00  0.00    +0.114 A 
ATOM      4  C   UNL     1      -1.095  -2.191  -0.005  0.00  0.00    +0.118 A 
ATOM      5  N   UNL     1       0.104  -2.757  -0.013  0.00  0.00    -0.186 NA
ATOM      6  C   UNL     1       1.209  -2.015  -0.015  0.00  0.00    +0.347 A 
ATOM      7  O   UNL     1       2.293  -2.574  -0.023  0.00  0.00    -0.245 OA
ATOM      8  N   UNL     1       1.173  -0.673  -0.013  0.00  0.00    -0.310 N 
ATOM      9  H   UNL     1       2.005  -0.175  -0.018  0.00  0.00    +0.170 HD
ENDROOT
BRANCH   3  10
ATOM     10  C   UNL     1      -2.482  -0.042   0.014  0.00  0.00    +0.391 C 
ATOM     11  O   UNL     1      -2.532   1.180   0.021  0.00  0.00    -0.240 OA
ATOM     12  O   UNL     1      -3.516  -0.697   0.015  0.00  0.00    -0.240 OA
ENDBRANCH   3  10
BRANCH   4  13
ATOM     13  S   UNL     1      -2.555  -3.177  -0.003  0.00  0.00    -0.100 S 
BRANCH  13  14
ATOM     14  C   UNL     1      -1.934  -4.881  -0.015  0.00  0.00    +0.112 C 
BRANCH  14  15
ATOM     15  C   UNL     1      -3.096  -5.840  -0.014  0.00  0.00    -0.021 A 
ATOM     16  C   UNL     1      -3.627  -6.282   1.183  0.00  0.00    +0.044 A 
ATOM     17  C   UNL     1      -4.694  -7.163   1.184  0.00  0.00    +0.124 A 
ATOM     18  C   UNL     1      -5.230  -7.601  -0.016  0.00  0.00    +0.039 A 
ATOM     19  C   UNL     1      -4.699  -7.159  -1.212  0.00  0.00    +0.018 A 
ATOM     20  C   UNL     1      -3.635  -6.274  -1.212  0.00  0.00    +0.022 A 
ATOM     21 BR   UNL     1      -2.914  -5.662  -2.849  0.00  0.00    -0.050 Br
ATOM     22  F   UNL     1      -5.213  -7.595   2.354  0.00  0.00    -0.205 F 
ENDBRANCH  14  15
ENDBRANCH  13  14
ENDBRANCH   4  13
TORSDOF 4
