REMARK  Name = ZINC19875088
REMARK  4 active torsions:
REMARK  status: ('A' for Active; 'I' for Inactive)
REMARK    1  A    between atoms: C_1  and  C_2
REMARK    2  A    between atoms: C_8  and  C_23
REMARK    3  A    between atoms: C_9  and  C_17
REMARK    4  A    between atoms: C_11  and  C_15
REMARK                            x       y       z     vdW  Elec       q    Type
REMARK                         _______ _______ _______ _____ _____    ______ ____
ROOT
ATOM      1  C   UNL     1      -3.805   6.602  -1.149  0.00  0.00    +0.040 C 
ATOM      2  C   UNL     1      -2.781   5.575  -0.663  0.00  0.00    +0.146 C 
ATOM      3  C   UNL     1      -2.739   5.547   0.878  0.00  0.00    +0.196 C 
ATOM      4  O   UNL     1      -3.121   4.201   1.238  0.00  0.00    -0.327 OA
ATOM      5  C   UNL     1      -2.828   3.418   0.071  0.00  0.00    +0.295 C 
ATOM      6  O   UNL     1      -3.183   4.243  -1.050  0.00  0.00    -0.324 OA
ATOM      7  C   UNL     1      -3.653   2.125   0.069  0.00  0.00    +0.167 C 
ATOM      8  C   UNL     1      -3.475   1.141   1.227  0.00  0.00    +0.077 C 
ATOM      9  C   UNL     1      -2.571   1.028  -0.001  0.00  0.00    +0.146 C 
ATOM     10  C   UNL     1      -1.256   1.765  -0.014  0.00  0.00    +0.116 C 
ATOM     11  N   UNL     1      -1.424   3.037   0.030  0.00  0.00    -0.211 NA
ATOM     12  N   UNL     1      -0.031   1.153  -0.060  0.00  0.00    -0.345 N 
ATOM     13  H   UNL     1       0.887   1.758  -0.067  0.00  0.00    +0.143 HD
ATOM     14  H   UNL     1       0.034   0.055  -0.092  0.00  0.00    +0.143 HD
ENDROOT
BRANCH   8  15
ATOM     15  C   UNL     1      -2.859   1.667   2.497  0.00  0.00    -0.041 A 
ATOM     16  C   UNL     1      -1.569   1.308   2.840  0.00  0.00    +0.004 A 
ATOM     17  C   UNL     1      -1.002   1.795   4.003  0.00  0.00    +0.000 A 
ATOM     18  C   UNL     1      -1.728   2.633   4.828  0.00  0.00    +0.000 A 
ATOM     19  C   UNL     1      -3.020   2.988   4.488  0.00  0.00    +0.000 A 
ATOM     20  C   UNL     1      -3.586   2.505   3.323  0.00  0.00    +0.004 A 
ENDBRANCH   8  15
BRANCH   9  21
ATOM     21  C   UNL     1      -2.699  -0.143  -0.884  0.00  0.00    +0.079 C 
ATOM     22  N   UNL     1      -2.798  -1.047  -1.565  0.00  0.00    -0.195 NA
ENDBRANCH   9  21
BRANCH   7  23
ATOM     23  C   UNL     1      -4.878   2.083  -0.746  0.00  0.00    +0.080 C 
ATOM     24  N   UNL     1      -5.823   2.050  -1.375  0.00  0.00    -0.196 NA
ENDBRANCH   7  23
TORSDOF 3
