REMARK  Name = ZINC09805023
REMARK  12 active torsions:
REMARK  status: ('A' for Active; 'I' for Inactive)
REMARK    1  A    between atoms: C_1  and  C_2
REMARK    2  A    between atoms: C_3  and  C_33
REMARK    3  A    between atoms: C_4  and  C_23
REMARK    4  A    between atoms: C_10  and  C_15
REMARK    5  A    between atoms: C_20  and  O_21
REMARK    6  A    between atoms: O_21  and  C_22
REMARK    7  A    between atoms: C_26  and  C_29
REMARK    8  A    between atoms: C_29  and  O_31
REMARK    9  A    between atoms: O_31  and  C_32
REMARK   10  A    between atoms: C_33  and  O_35
REMARK   11  A    between atoms: O_35  and  C_36
REMARK   12  A    between atoms: C_36  and  C_37
REMARK                            x       y       z     vdW  Elec       q    Type
REMARK                         _______ _______ _______ _____ _____    ______ ____
ROOT
ATOM      1  C   UNL     1       2.451   0.143  -0.263  0.00  0.00    +0.061 C 
ATOM      2  C   UNL     1       1.175  -0.648  -0.126  0.00  0.00    +0.031 C 
ATOM      3  C   UNL     1       0.001  -0.005  -0.003  0.00  0.00    +0.154 C 
ATOM      4  C   UNL     1      -1.290  -0.758   0.120  0.00  0.00    +0.073 C 
ATOM      5  C   UNL     1      -1.045  -2.193   0.514  0.00  0.00    +0.025 C 
ATOM      6  C   UNL     1       0.179  -2.749   0.374  0.00  0.00    +0.049 C 
ATOM      7  N   UNL     1       1.220  -2.014  -0.128  0.00  0.00    -0.260 NA
ATOM      8  C   UNL     1       0.426  -4.187   0.749  0.00  0.00    +0.064 C 
ATOM      9  C   UNL     1      -0.497  -4.583   1.902  0.00  0.00    +0.036 C 
ATOM     10  C   UNL     1      -1.948  -4.365   1.460  0.00  0.00    +0.088 C 
ATOM     11  C   UNL     1      -2.121  -2.933   1.034  0.00  0.00    +0.162 C 
ATOM     12  O   UNL     1      -3.210  -2.405   1.143  0.00  0.00    -0.292 OA
ENDROOT
BRANCH   9  13
ATOM     13  C   UNL     1      -0.282  -6.033   2.250  0.00  0.00    -0.002 A 
ATOM     14  C   UNL     1      -0.507  -7.012   1.302  0.00  0.00    +0.007 A 
ATOM     15  C   UNL     1      -0.305  -8.343   1.618  0.00  0.00    +0.001 A 
ATOM     16  C   UNL     1       0.114  -8.698   2.888  0.00  0.00    +0.004 A 
ATOM     17  C   UNL     1       0.336  -7.723   3.841  0.00  0.00    +0.046 A 
ATOM     18  C   UNL     1       0.139  -6.386   3.524  0.00  0.00    +0.124 A 
BRANCH  18  19
ATOM     19  O   UNL     1       0.357  -5.426   4.460  0.00  0.00    -0.495 OA
ATOM     20  C   UNL     1       0.788  -5.863   5.750  0.00  0.00    +0.277 C 
ENDBRANCH  18  19
ENDBRANCH   9  13
BRANCH   4  21
ATOM     21  C   UNL     1      -2.004  -0.726  -1.207  0.00  0.00    -0.039 A 
ATOM     22  C   UNL     1      -1.394  -1.256  -2.330  0.00  0.00    +0.005 A 
ATOM     23  C   UNL     1      -2.044  -1.234  -3.547  0.00  0.00    +0.015 A 
ATOM     24  C   UNL     1      -3.315  -0.665  -3.646  0.00  0.00    +0.059 A 
ATOM     25  C   UNL     1      -3.922  -0.126  -2.509  0.00  0.00    +0.015 A 
ATOM     26  C   UNL     1      -3.263  -0.160  -1.298  0.00  0.00    +0.005 A 
BRANCH  24  27
ATOM     27  C   UNL     1      -4.015  -0.633  -4.946  0.00  0.00    +0.339 C 
ATOM     28  O   UNL     1      -5.121  -0.137  -5.029  0.00  0.00    -0.245 OA
BRANCH  27  29
ATOM     29  O   UNL     1      -3.426  -1.153  -6.040  0.00  0.00    -0.464 OA
ATOM     30  C   UNL     1      -4.172  -1.087  -7.284  0.00  0.00    +0.280 C 
ENDBRANCH  27  29
ENDBRANCH  24  27
ENDBRANCH   4  21
BRANCH   3  31
ATOM     31  C   UNL     1      -0.018   1.409   0.007  0.00  0.00    +0.317 C 
ATOM     32  O   UNL     1       1.028   2.032   0.012  0.00  0.00    -0.250 OA
BRANCH  31  33
ATOM     33  O   UNL     1      -1.196   2.068   0.007  0.00  0.00    -0.462 OA
BRANCH  33  34
ATOM     34  C   UNL     1      -1.140   3.496   0.018  0.00  0.00    +0.263 C 
BRANCH  34  35
ATOM     35  C   UNL     1      -2.561   4.062   0.016  0.00  0.00    +0.156 C 
ATOM     36  C   UNL     1      -2.512   5.602  -0.088  0.00  0.00    +0.037 C 
ATOM     37  C   UNL     1      -3.654   6.034   0.871  0.00  0.00    +0.031 C 
ATOM     38  C   UNL     1      -3.558   4.933   1.957  0.00  0.00    +0.160 C 
ATOM     39  O   UNL     1      -3.218   3.732   1.245  0.00  0.00    -0.373 OA
ENDBRANCH  34  35
ENDBRANCH  33  34
ENDBRANCH  31  33
ENDBRANCH   3  31
TORSDOF 9
