REMARK  Name = ZINC05894350
REMARK  5 active torsions:
REMARK  status: ('A' for Active; 'I' for Inactive)
REMARK    1  A    between atoms: C_10  and  N_12
REMARK    2  A    between atoms: N_12  and  C_13
REMARK    3  A    between atoms: C_16  and  S_22
REMARK    4  A    between atoms: C_18  and  N_19
REMARK    5  A    between atoms: S_22  and  N_25
REMARK                            x       y       z     vdW  Elec       q    Type
REMARK                         _______ _______ _______ _____ _____    ______ ____
ROOT
ATOM      1  C   UNL     1       1.174   3.138   0.023  0.00  0.00    +0.058 A 
ATOM      2  C   UNL     1      -0.022   3.845   0.004  0.00  0.00    +0.027 A 
ATOM      3  C   UNL     1      -1.224   3.166  -0.004  0.00  0.00    +0.030 A 
ATOM      4  C   UNL     1      -1.238   1.783   0.003  0.00  0.00    +0.108 A 
ATOM      5  C   UNL     1      -0.051   1.076   0.028  0.00  0.00    +0.063 A 
ATOM      6  C   UNL     1       1.156   1.749   0.035  0.00  0.00    +0.149 A 
ENDROOT
BRANCH   6   7
ATOM      7  N   UNL     1       2.427   0.992   0.056  0.00  0.00    +0.058 N 
ATOM      8  O   UNL     1       2.412  -0.220   0.175  0.00  0.00    -0.126 OA
ATOM      9  O   UNL     1       3.488   1.580  -0.047  0.00  0.00    -0.126 OA
ENDBRANCH   6   7
BRANCH   4  10
ATOM     10  S   UNL     1      -2.775   0.920  -0.013  0.00  0.00    +0.061 S 
ATOM     11  O   UNL     1      -3.730   1.802  -0.587  0.00  0.00    -0.153 OA
ATOM     12  O   UNL     1      -2.510  -0.370  -0.549  0.00  0.00    -0.153 OA
BRANCH  10  13
ATOM     13  N   UNL     1      -3.226   0.694   1.564  0.00  0.00    -0.177 NA
ATOM     14  C   UNL     1      -2.880  -0.468   2.396  0.00  0.00    +0.109 C 
ATOM     15  C   UNL     1      -3.536  -0.254   3.776  0.00  0.00    +0.018 C 
ATOM     16  C   UNL     1      -4.688   0.737   3.462  0.00  0.00    +0.018 C 
ATOM     17  C   UNL     1      -4.047   1.621   2.364  0.00  0.00    +0.109 C 
ENDBRANCH  10  13
ENDBRANCH   4  10
BRANCH   1  18
ATOM     18  N   UNL     1       2.392   3.822   0.030  0.00  0.00    -0.335 N 
ATOM     19  H   UNL     1       3.224   3.331  -0.055  0.00  0.00    +0.147 HD
BRANCH  18  29
ATOM     20  C   UNL     1       2.169   6.223   4.332  0.00  0.00    +0.000 A 
ATOM     21  C   UNL     1       1.397   5.213   3.788  0.00  0.00    +0.000 A 
ATOM     22  C   UNL     1       1.493   4.926   2.443  0.00  0.00    +0.006 A 
ATOM     23  C   UNL     1       2.361   5.643   1.628  0.00  0.00    -0.024 A 
ATOM     24  C   UNL     1       3.133   6.645   2.171  0.00  0.00    -0.042 A 
ATOM     25  C   UNL     1       3.032   6.935   3.525  0.00  0.00    +0.004 A 
ATOM     26  C   UNL     1       4.106   7.452   1.351  0.00  0.00    +0.035 C 
ATOM     27  C   UNL     1       3.792   7.320  -0.138  0.00  0.00    +0.007 C 
ATOM     28  C   UNL     1       3.682   5.829  -0.478  0.00  0.00    +0.027 C 
ATOM     29  C   UNL     1       2.412   5.280   0.167  0.00  0.00    +0.101 C 
ENDBRANCH  18  29
ENDBRANCH   1  18
TORSDOF 5
