REMARK  Name = ZINC45540866
REMARK  9 active torsions:
REMARK  status: ('A' for Active; 'I' for Inactive)
REMARK    1  A    between atoms: C_4  and  C_7
REMARK    2  A    between atoms: C_8  and  C_17
REMARK    3  A    between atoms: C_17  and  C_19
REMARK    4  A    between atoms: C_19  and  O_20
REMARK    5  A    between atoms: O_20  and  C_21
REMARK    6  A    between atoms: C_21  and  C_23
REMARK    7  A    between atoms: C_28  and  O_29
REMARK    8  A    between atoms: O_29  and  C_30
REMARK    9  A    between atoms: C_30  and  C_31
REMARK                            x       y       z     vdW  Elec       q    Type
REMARK                         _______ _______ _______ _____ _____    ______ ____
ROOT
ATOM      1  C   UNL     1       3.159  -2.384  -1.805  0.00  0.00    +0.203 C 
ATOM      2  O   UNL     1       2.031  -1.967  -1.976  0.00  0.00    -0.288 OA
ENDROOT
BRANCH   1   4
ATOM      3  C   UNL     1       3.694  -0.682  -0.038  0.00  0.00    +0.058 A 
ATOM      4  C   UNL     1       4.004  -1.768  -0.854  0.00  0.00    +0.054 A 
ATOM      5  C   UNL     1       5.391  -2.146  -0.524  0.00  0.00    +0.011 A 
ATOM      6  C   UNL     1       6.254  -3.136  -0.989  0.00  0.00    +0.011 A 
ATOM      7  C   UNL     1       7.525  -3.233  -0.466  0.00  0.00    +0.001 A 
ATOM      8  C   UNL     1       7.945  -2.351   0.519  0.00  0.00    +0.002 A 
ATOM      9  C   UNL     1       7.101  -1.368   0.988  0.00  0.00    +0.026 A 
ATOM     10  C   UNL     1       5.814  -1.252   0.472  0.00  0.00    +0.048 A 
ATOM     11  N   UNL     1       4.773  -0.384   0.736  0.00  0.00    -0.354 N 
ATOM     12  H   UNL     1       4.806   0.336   1.385  0.00  0.00    +0.166 HD
BRANCH   3  16
ATOM     13  C   UNL     1      -0.017   1.380   0.010  0.00  0.00    +0.000 A 
ATOM     14  C   UNL     1       1.168   2.094   0.002  0.00  0.00    +0.001 A 
ATOM     15  C   UNL     1       2.377   1.431  -0.013  0.00  0.00    +0.010 A 
ATOM     16  C   UNL     1       2.404   0.034  -0.021  0.00  0.00    -0.001 A 
ATOM     17  C   UNL     1       1.204  -0.681  -0.013  0.00  0.00    +0.010 A 
ATOM     18  C   UNL     1       0.002  -0.004   0.002  0.00  0.00    +0.001 A 
ENDBRANCH   3  16
ENDBRANCH   1   4
BRANCH   1  19
ATOM     19  C   UNL     1       3.658  -3.558  -2.608  0.00  0.00    +0.312 C 
BRANCH  19  20
ATOM     20  O   UNL     1       2.629  -4.000  -3.494  0.00  0.00    -0.453 OA
BRANCH  20  21
ATOM     21  C   UNL     1       2.916  -5.050  -4.289  0.00  0.00    +0.343 C 
ATOM     22  O   UNL     1       4.010  -5.575  -4.231  0.00  0.00    -0.245 OA
BRANCH  21  23
ATOM     23  C   UNL     1       1.902  -5.562  -5.229  0.00  0.00    +0.101 A 
ATOM     24  C   UNL     1       0.644  -4.957  -5.304  0.00  0.00    +0.018 A 
ATOM     25  C   UNL     1      -0.299  -5.440  -6.185  0.00  0.00    +0.001 A 
ATOM     26  C   UNL     1      -0.006  -6.524  -6.997  0.00  0.00    +0.004 A 
ATOM     27  C   UNL     1       1.232  -7.130  -6.934  0.00  0.00    +0.046 A 
ATOM     28  C   UNL     1       2.196  -6.654  -6.058  0.00  0.00    +0.135 A 
BRANCH  28  29
ATOM     29  O   UNL     1       3.415  -7.245  -5.998  0.00  0.00    -0.482 OA
BRANCH  29  30
ATOM     30  C   UNL     1       3.642  -8.353  -6.873  0.00  0.00    +0.324 C 
BRANCH  30  31
ATOM     31  C   UNL     1       5.040  -8.876  -6.667  0.00  0.00    +0.248 C 
ATOM     32  O   UNL     1       5.770  -8.353  -5.853  0.00  0.00    -0.272 OA
ATOM     33  N   UNL     1       5.479  -9.927  -7.389  0.00  0.00    -0.327 N 
ATOM     34  H   UNL     1       4.895 -10.345  -8.041  0.00  0.00    +0.145 HD
ATOM     35  H   UNL     1       6.379 -10.264  -7.257  0.00  0.00    +0.145 HD
ENDBRANCH  30  31
ENDBRANCH  29  30
ENDBRANCH  28  29
ENDBRANCH  21  23
ENDBRANCH  20  21
ENDBRANCH  19  20
ENDBRANCH   1  19
TORSDOF 9
