REMARK  Name = ZINC21523796
REMARK  7 active torsions:
REMARK  status: ('A' for Active; 'I' for Inactive)
REMARK    1  A    between atoms: C_1  and  C_2
REMARK    2  A    between atoms: C_4  and  C_32
REMARK    3  A    between atoms: C_11  and  C_13
REMARK    4  A    between atoms: C_14  and  C_21
REMARK    5  A    between atoms: C_24  and  O_27
REMARK    6  A    between atoms: O_27  and  C_28
REMARK    7  A    between atoms: C_28  and  C_29
REMARK                            x       y       z     vdW  Elec       q    Type
REMARK                         _______ _______ _______ _____ _____    ______ ____
ROOT
ATOM      1  C   UNL     1       4.414  -5.611  10.083  0.00  0.00    +0.066 C 
ATOM      2  C   UNL     1       3.204  -5.669   9.187  0.00  0.00    +0.044 A 
ATOM      3  C   UNL     1       2.463  -6.836   9.083  0.00  0.00    +0.046 A 
ATOM      4  C   UNL     1       1.357  -6.846   8.247  0.00  0.00    +0.044 A 
ATOM      5  N   UNL     1       1.044  -5.748   7.579  0.00  0.00    -0.216 NA
ATOM      6  C   UNL     1       1.773  -4.651   7.701  0.00  0.00    +0.253 A 
ATOM      7  N   UNL     1       2.838  -4.609   8.486  0.00  0.00    -0.216 NA
ATOM      8  N   UNL     1       1.414  -3.512   6.981  0.00  0.00    -0.183 N 
ATOM      9  C   UNL     1       2.135  -2.338   6.912  0.00  0.00    +0.137 A 
ATOM     10  C   UNL     1       1.444  -1.498   6.111  0.00  0.00    +0.033 A 
ATOM     11  C   UNL     1       0.276  -2.169   5.687  0.00  0.00    +0.067 A 
ATOM     12  N   UNL     1       0.264  -3.363   6.207  0.00  0.00    -0.167 NA
ATOM     13  C   UNL     1      -0.783  -1.597   4.780  0.00  0.00    +0.068 C 
ATOM     14  C   UNL     1       1.755  -0.099   5.679  0.00  0.00    +0.112 C 
ATOM     15  S   UNL     1       3.512   0.205   5.473  0.00  0.00    -0.138 S 
ATOM     16  C   UNL     1       4.229   0.112   7.119  0.00  0.00    +0.166 C 
ATOM     17  C   UNL     1       4.219  -1.257   7.676  0.00  0.00    +0.228 C 
ATOM     18  O   UNL     1       5.205  -1.555   8.316  0.00  0.00    -0.275 OA
ATOM     19  N   UNL     1       3.321  -2.192   7.588  0.00  0.00    -0.269 N 
ATOM     20  C   UNL     1       0.521  -8.092   8.102  0.00  0.00    +0.066 C 
ATOM     21  H   UNL     1       3.687  -3.001   8.237  0.00  0.00    +0.156 HD
ENDROOT
BRANCH  14  22
ATOM     22  C   UNL     1       1.060   0.169   4.370  0.00  0.00    -0.030 A 
ATOM     23  C   UNL     1       1.362  -0.597   3.259  0.00  0.00    +0.008 A 
ATOM     24  C   UNL     1       0.726  -0.353   2.057  0.00  0.00    +0.046 A 
ATOM     25  C   UNL     1      -0.216   0.661   1.965  0.00  0.00    +0.121 A 
ATOM     26  C   UNL     1      -0.513   1.432   3.080  0.00  0.00    +0.046 A 
ATOM     27  C   UNL     1       0.122   1.181   4.281  0.00  0.00    +0.008 A 
BRANCH  25  28
ATOM     28  O   UNL     1      -0.843   0.903   0.783  0.00  0.00    -0.483 OA
BRANCH  28  29
ATOM     29  C   UNL     1      -1.801   1.963   0.763  0.00  0.00    +0.324 C 
BRANCH  29  30
ATOM     30  C   UNL     1      -2.388   2.082  -0.620  0.00  0.00    +0.248 C 
ATOM     31  O   UNL     1      -2.022   1.334  -1.501  0.00  0.00    -0.272 OA
ATOM     32  N   UNL     1      -3.320   3.021  -0.878  0.00  0.00    -0.327 N 
ATOM     33  H   UNL     1      -3.748   3.108  -1.887  0.00  0.00    +0.145 HD
ATOM     34  H   UNL     1      -3.652   3.700  -0.079  0.00  0.00    +0.145 HD
ENDBRANCH  29  30
ENDBRANCH  28  29
ENDBRANCH  25  28
ENDBRANCH  14  22
TORSDOF 4
