REMARK  Name = ZINC43667141
REMARK  4 active torsions:
REMARK  status: ('A' for Active; 'I' for Inactive)
REMARK    1  A    between atoms: C_1  and  C_2
REMARK    2  A    between atoms: N_11  and  C_12
REMARK    3  A    between atoms: C_16  and  S_18
REMARK    4  A    between atoms: S_18  and  N_21
REMARK                            x       y       z     vdW  Elec       q    Type
REMARK                         _______ _______ _______ _____ _____    ______ ____
ROOT
ATOM      1  C   UNL     1       2.775  -4.855   1.752  0.00  0.00    +0.037 A 
ATOM      2  C   UNL     1       4.010  -4.245   1.930  0.00  0.00    +0.023 A 
ATOM      3  C   UNL     1       5.135  -5.018   2.143  0.00  0.00    +0.004 A 
ATOM      4  C   UNL     1       5.032  -6.396   2.179  0.00  0.00    +0.029 A 
ATOM      5  C   UNL     1       3.804  -7.006   2.001  0.00  0.00    +0.114 A 
ATOM      6  C   UNL     1       2.674  -6.239   1.794  0.00  0.00    +0.052 A 
ENDROOT
BRANCH   1  16
ATOM      7  C   UNL     1      -0.267   0.722  -1.596  0.00  0.00    +0.009 C 
ATOM      8  C   UNL     1      -0.281  -0.692  -1.011  0.00  0.00    +0.003 C 
ATOM      9  C   UNL     1      -1.666  -0.992  -0.434  0.00  0.00    +0.006 C 
ATOM     10  C   UNL     1      -1.690  -2.418   0.123  0.00  0.00    +0.019 C 
ATOM     11  C   UNL     1      -0.660  -2.539   1.250  0.00  0.00    +0.109 C 
ATOM     12  N   UNL     1       0.651  -2.112   0.741  0.00  0.00    -0.285 N 
ATOM     13  C   UNL     1       0.766  -0.794   0.103  0.00  0.00    +0.112 C 
ATOM     14  C   UNL     1       1.727  -2.915   0.857  0.00  0.00    +0.306 C 
ATOM     15  O   UNL     1       2.784  -2.593   0.348  0.00  0.00    -0.252 OA
ATOM     16  N   UNL     1       1.633  -4.075   1.536  0.00  0.00    -0.269 N 
ATOM     17  H   UNL     1       0.773  -4.370   1.876  0.00  0.00    +0.156 HD
ENDBRANCH   1  16
BRANCH   5  18
ATOM     18  S   UNL     1       3.679  -8.763   2.047  0.00  0.00    +0.100 S 
ATOM     19  O   UNL     1       2.513  -9.106   1.312  0.00  0.00    -0.146 OA
ATOM     20  O   UNL     1       4.965  -9.270   1.717  0.00  0.00    -0.146 OA
BRANCH  18  21
ATOM     21  N   UNL     1       3.390  -9.193   3.620  0.00  0.00    -0.118 NA
ATOM     22  C   UNL     1       3.255 -10.440   3.935  0.00  0.00    +0.117 C 
ATOM     23  C   UNL     1       3.367 -11.518   2.860  0.00  0.00    +0.073 C 
ATOM     24  C   UNL     1       4.649 -12.280   3.119  0.00  0.00    +0.008 C 
ATOM     25  C   UNL     1       4.474 -13.457   4.081  0.00  0.00    +0.002 C 
ATOM     26  C   UNL     1       3.594 -13.121   5.285  0.00  0.00    +0.019 C 
ATOM     27  C   UNL     1       3.890 -11.761   5.880  0.00  0.00    +0.102 C 
ATOM     28  N   UNL     1       3.025 -10.784   5.187  0.00  0.00    -0.331 N 
ATOM     29  H   UNL     1       2.276 -10.391   5.662  0.00  0.00    +0.147 HD
ENDBRANCH  18  21
ENDBRANCH   5  18
TORSDOF 3
