REMARK  Name = ZINC02857154
REMARK  11 active torsions:
REMARK  status: ('A' for Active; 'I' for Inactive)
REMARK    1  A    between atoms: C_1  and  C_2
REMARK    2  A    between atoms: C_9  and  N_15
REMARK    3  A    between atoms: C_10  and  C_11
REMARK    4  A    between atoms: C_11  and  O_13
REMARK    5  A    between atoms: O_13  and  C_14
REMARK    6  A    between atoms: N_15  and  C_16
REMARK    7  A    between atoms: C_16  and  N_18
REMARK    8  A    between atoms: N_18  and  C_19
REMARK    9  A    between atoms: C_19  and  C_20
REMARK   10  A    between atoms: C_23  and  S_26
REMARK   11  A    between atoms: S_26  and  N_29
REMARK                            x       y       z     vdW  Elec       q    Type
REMARK                         _______ _______ _______ _____ _____    ______ ____
ROOT
ATOM      1  C   UNL     1       2.227  -6.105  -3.027  0.00  0.00    +0.135 C 
ATOM      2  S   UNL     1       2.185  -4.846  -4.187  0.00  0.00    -0.019 S 
ENDROOT
BRANCH   1   3
ATOM      3  N   UNL     1       1.930  -5.844  -1.738  0.00  0.00    -0.291 N 
ATOM      4  H   UNL     1       1.954  -6.557  -1.081  0.00  0.00    +0.154 HD
BRANCH   3  12
ATOM      5  C   UNL     1      -0.019   1.526   0.010  0.00  0.00    +0.008 C 
ATOM      6  C   UNL     1       0.002  -0.004   0.002  0.00  0.00    -0.009 C 
ATOM      7  C   UNL     1       0.742  -0.514   1.242  0.00  0.00    +0.008 C 
ATOM      8  C   UNL     1       0.557  -2.027   1.372  0.00  0.00    +0.037 C 
ATOM      9  C   UNL     1       0.942  -2.684   0.053  0.00  0.00    -0.021 A 
ATOM     10  C   UNL     1       1.008  -1.966  -1.089  0.00  0.00    -0.004 A 
ATOM     11  S   UNL     1       1.484  -3.133  -2.332  0.00  0.00    -0.077 S 
ATOM     12  C   UNL     1       1.593  -4.558  -1.352  0.00  0.00    +0.086 A 
ATOM     13  C   UNL     1       1.259  -4.096  -0.085  0.00  0.00    +0.091 A 
ATOM     14  C   UNL     1       0.736  -0.502  -1.252  0.00  0.00    +0.046 C 
BRANCH  13  15
ATOM     15  C   UNL     1       1.227  -4.998   1.068  0.00  0.00    +0.342 C 
ATOM     16  O   UNL     1       0.200  -5.582   1.355  0.00  0.00    -0.245 OA
BRANCH  15  17
ATOM     17  O   UNL     1       2.338  -5.181   1.811  0.00  0.00    -0.464 OA
ATOM     18  C   UNL     1       2.234  -6.089   2.939  0.00  0.00    +0.280 C 
ENDBRANCH  15  17
ENDBRANCH  13  15
ENDBRANCH   3  12
ENDBRANCH   1   3
BRANCH   1  19
ATOM     19  N   UNL     1       2.555  -7.357  -3.403  0.00  0.00    -0.322 N 
ATOM     20  H   UNL     1       2.578  -8.070  -2.746  0.00  0.00    +0.148 HD
BRANCH  19  21
ATOM     21  C   UNL     1       2.877  -7.641  -4.804  0.00  0.00    +0.138 C 
BRANCH  21  22
ATOM     22  C   UNL     1       3.207  -9.103  -4.957  0.00  0.00    -0.030 A 
ATOM     23  C   UNL     1       4.512  -9.535  -4.816  0.00  0.00    +0.007 A 
ATOM     24  C   UNL     1       4.814 -10.877  -4.953  0.00  0.00    +0.029 A 
ATOM     25  C   UNL     1       3.813 -11.786  -5.239  0.00  0.00    +0.105 A 
ATOM     26  C   UNL     1       2.508 -11.352  -5.385  0.00  0.00    +0.029 A 
ATOM     27  C   UNL     1       2.205 -10.011  -5.244  0.00  0.00    +0.007 A 
BRANCH  25  28
ATOM     28  S   UNL     1       4.198 -13.496  -5.417  0.00  0.00    +0.056 S 
ATOM     29  O   UNL     1       5.402 -13.718  -4.695  0.00  0.00    -0.153 OA
ATOM     30  O   UNL     1       3.002 -14.212  -5.144  0.00  0.00    -0.153 OA
BRANCH  28  31
ATOM     31  N   UNL     1       4.551 -13.754  -7.015  0.00  0.00    -0.204 NA
ATOM     32  H   UNL     1       4.517 -13.017  -7.644  0.00  0.00    +0.144 HD
ATOM     33  H   UNL     1       4.791 -14.643  -7.321  0.00  0.00    +0.144 HD
ENDBRANCH  28  31
ENDBRANCH  25  28
ENDBRANCH  21  22
ENDBRANCH  19  21
ENDBRANCH   1  19
TORSDOF 9
