REMARK  Name = ZINC35370228
REMARK  6 active torsions:
REMARK  status: ('A' for Active; 'I' for Inactive)
REMARK    1  A    between atoms: C_1  and  N_2
REMARK    2  A    between atoms: N_2  and  C_3
REMARK    3  A    between atoms: C_13  and  C_17
REMARK    4  A    between atoms: N_19  and  C_20
REMARK    5  A    between atoms: C_20  and  C_21
REMARK    6  A    between atoms: C_21  and  C_22
REMARK                            x       y       z     vdW  Elec       q    Type
REMARK                         _______ _______ _______ _____ _____    ______ ____
ROOT
ATOM      1  C   UNL     1       1.044  -0.149  -0.662  0.00  0.00    +0.133 C 
ATOM      2  N   UNL     1      -0.393  -0.210  -0.943  0.00  0.00    -0.292 N 
ATOM      3  C   UNL     1      -0.863  -0.501  -2.300  0.00  0.00    +0.133 C 
ATOM      4  C   UNL     1      -1.282   0.001   0.048  0.00  0.00    +0.304 C 
ATOM      5  O   UNL     1      -0.912   0.469   1.107  0.00  0.00    -0.252 OA
ATOM      6  N   UNL     1      -2.581  -0.307  -0.136  0.00  0.00    -0.286 N 
ATOM      7  C   UNL     1      -2.984  -1.260  -1.180  0.00  0.00    +0.109 C 
ATOM      8  C   UNL     1      -4.029  -0.591  -2.080  0.00  0.00    +0.017 C 
ATOM      9  C   UNL     1      -5.165  -0.051  -1.223  0.00  0.00    -0.016 C 
ATOM     10  C   UNL     1      -4.663   0.965  -0.207  0.00  0.00    +0.017 C 
ATOM     11  C   UNL     1      -3.620   0.301   0.707  0.00  0.00    +0.109 C 
ATOM     12  N   UNL     1      -5.899  -1.143  -0.563  0.00  0.00    +0.397 N 
ATOM     13  C   UNL     1      -7.273  -1.359  -1.030  0.00  0.00    +0.028 C 
ATOM     14  C   UNL     1      -7.917  -0.019  -1.495  0.00  0.00    +0.061 C 
ATOM     15  S   UNL     1      -6.431   0.732  -2.302  0.00  0.00    -0.174 S 
ATOM     16  H   UNL     1      -5.382  -1.998  -0.700  0.00  0.00    -0.083 HD
ATOM     17  H   UNL     1      -5.929  -0.950   0.426  0.00  0.00    -0.083 HD
ENDROOT
BRANCH  13  18
ATOM     18  C   UNL     1      -8.093  -1.938   0.094  0.00  0.00    +0.200 C 
ATOM     19  O   UNL     1      -7.581  -2.147   1.173  0.00  0.00    -0.278 OA
ATOM     20  N   UNL     1      -9.396  -2.222  -0.100  0.00  0.00    -0.316 N 
ATOM     21  H   UNL     1      -9.806  -2.055  -0.963  0.00  0.00    +0.149 HD
BRANCH  20  22
ATOM     22  C   UNL     1     -10.194  -2.785   0.993  0.00  0.00    +0.109 C 
BRANCH  22  23
ATOM     23  C   UNL     1     -11.628  -3.012   0.513  0.00  0.00    +0.055 C 
BRANCH  23  24
ATOM     24  C   UNL     1     -12.449  -3.591   1.637  0.00  0.00    -0.027 A 
ATOM     25  C   UNL     1     -12.611  -4.960   1.741  0.00  0.00    +0.006 A 
ATOM     26  C   UNL     1     -13.363  -5.491   2.771  0.00  0.00    +0.020 A 
ATOM     27  C   UNL     1     -13.954  -4.653   3.700  0.00  0.00    +0.042 A 
ATOM     28  C   UNL     1     -13.791  -3.283   3.597  0.00  0.00    +0.040 A 
ATOM     29  C   UNL     1     -13.034  -2.752   2.568  0.00  0.00    +0.046 A 
ATOM     30 CL   UNL     1     -12.825  -1.033   2.442  0.00  0.00    -0.083 Cl
ATOM     31 CL   UNL     1     -14.899  -5.320   4.995  0.00  0.00    -0.083 Cl
ENDBRANCH  23  24
ENDBRANCH  22  23
ENDBRANCH  20  22
ENDBRANCH  13  18
TORSDOF 4
