REMARK  Name = ZINC63887860
REMARK  7 active torsions:
REMARK  status: ('A' for Active; 'I' for Inactive)
REMARK    1  A    between atoms: C_1  and  C_2
REMARK    2  A    between atoms: C_2  and  C_3
REMARK    3  A    between atoms: C_7  and  C_24
REMARK    4  A    between atoms: C_8  and  N_9
REMARK    5  A    between atoms: C_10  and  C_12
REMARK    6  A    between atoms: C_13  and  C_14
REMARK    7  A    between atoms: C_19  and  N_20
REMARK                            x       y       z     vdW  Elec       q    Type
REMARK                         _______ _______ _______ _____ _____    ______ ____
ROOT
ATOM      1  N   UNL     1      -1.623   0.455  -2.551  0.00  0.00    -0.282 N 
ATOM      2  C   UNL     1      -2.188   0.180  -3.743  0.00  0.00    +0.241 C 
ATOM      3  O   UNL     1      -3.378  -0.066  -3.810  0.00  0.00    -0.270 OA
ATOM      4  H   UNL     1      -0.686   0.699  -2.503  0.00  0.00    +0.155 HD
ENDROOT
BRANCH   1  10
ATOM      5  C   UNL     1      -2.311   1.406  -0.440  0.00  0.00    -0.026 A 
ATOM      6  C   UNL     1      -3.072   1.339   0.710  0.00  0.00    +0.005 A 
ATOM      7  C   UNL     1      -3.907   0.258   0.927  0.00  0.00    +0.001 A 
ATOM      8  C   UNL     1      -3.982  -0.759  -0.006  0.00  0.00    +0.005 A 
ATOM      9  C   UNL     1      -3.224  -0.699  -1.159  0.00  0.00    -0.029 A 
ATOM     10  C   UNL     1      -2.389   0.388  -1.382  0.00  0.00    +0.040 A 
ATOM     11  C   UNL     1      -3.307  -1.808  -2.175  0.00  0.00    +0.045 C 
BRANCH   5  13
ATOM     12  C   UNL     1      -2.130   3.627  -1.527  0.00  0.00    +0.009 C 
ATOM     13  C   UNL     1      -1.402   2.584  -0.676  0.00  0.00    +0.033 C 
ENDBRANCH   5  13
ENDBRANCH   1  10
BRANCH   2  14
ATOM     14  C   UNL     1      -1.371   0.178  -4.957  0.00  0.00    +0.068 C 
ATOM     15  C   UNL     1      -1.937  -0.097  -6.150  0.00  0.00    +0.015 C 
BRANCH  15  16
ATOM     16  C   UNL     1      -1.115  -0.099  -7.370  0.00  0.00    +0.006 A 
ATOM     17  C   UNL     1       0.153   0.492  -7.364  0.00  0.00    +0.013 A 
ATOM     18  C   UNL     1       0.918   0.486  -8.510  0.00  0.00    +0.039 A 
ATOM     19  C   UNL     1       0.432  -0.103  -9.668  0.00  0.00    +0.126 A 
ATOM     20  C   UNL     1      -0.824  -0.689  -9.681  0.00  0.00    +0.071 A 
ATOM     21  C   UNL     1      -1.596  -0.696  -8.540  0.00  0.00    +0.136 A 
ATOM     22  F   UNL     1       1.187  -0.104 -10.789  0.00  0.00    -0.205 F 
BRANCH  21  23
ATOM     23  N   UNL     1      -2.935  -1.327  -8.554  0.00  0.00    +0.057 N 
ATOM     24  O   UNL     1      -3.326  -1.936  -7.585  0.00  0.00    -0.126 OA
ATOM     25  O   UNL     1      -3.637  -1.235  -9.534  0.00  0.00    -0.126 OA
ENDBRANCH  21  23
ENDBRANCH  15  16
ENDBRANCH   2  14
TORSDOF 5
