REMARK  Name = ZINC01408997
REMARK  8 active torsions:
REMARK  status: ('A' for Active; 'I' for Inactive)
REMARK    1  A    between atoms: C_1  and  C_2
REMARK    2  A    between atoms: C_5  and  C_8
REMARK    3  A    between atoms: C_13  and  C_32
REMARK    4  A    between atoms: C_25  and  C_27
REMARK    5  A    between atoms: C_27  and  C_28
REMARK    6  A    between atoms: C_28  and  C_29
REMARK    7  A    between atoms: C_35  and  O_38
REMARK    8  A    between atoms: O_38  and  C_39
REMARK                            x       y       z     vdW  Elec       q    Type
REMARK                         _______ _______ _______ _____ _____    ______ ____
ROOT
ATOM      1  C   UNL     1      -2.264  -1.802  -5.613  0.00  0.00    +0.032 C 
ATOM      2  C   UNL     1      -3.315  -0.701  -5.434  0.00  0.00    +0.088 C 
ATOM      3  C   UNL     1      -2.654   0.518  -4.864  0.00  0.00    +0.163 C 
ATOM      4  C   UNL     1      -1.547   0.463  -4.095  0.00  0.00    +0.037 C 
ATOM      5  C   UNL     1      -1.001   1.753  -3.599  0.00  0.00    +0.147 C 
ATOM      6  N   UNL     1      -0.362   1.678  -2.310  0.00  0.00    -0.258 N 
ATOM      7  C   UNL     1       0.912   1.157  -2.164  0.00  0.00    +0.058 A 
ATOM      8  C   UNL     1       1.952   1.885  -1.626  0.00  0.00    +0.025 A 
ATOM      9  C   UNL     1       3.216   1.331  -1.532  0.00  0.00    +0.002 A 
ATOM     10  C   UNL     1       3.438   0.041  -1.983  0.00  0.00    +0.002 A 
ATOM     11  C   UNL     1       2.409  -0.705  -2.511  0.00  0.00    +0.025 A 
ATOM     12  C   UNL     1       1.116  -0.174  -2.602  0.00  0.00    +0.053 A 
ATOM     13  N   UNL     1       0.107  -0.934  -3.044  0.00  0.00    -0.316 N 
ATOM     14  C   UNL     1      -0.935  -0.771  -3.776  0.00  0.00    +0.017 C 
ATOM     15  C   UNL     1      -1.603  -2.052  -4.259  0.00  0.00    +0.059 C 
ATOM     16  C   UNL     1      -1.022   2.119  -1.221  0.00  0.00    +0.221 C 
ATOM     17  O   UNL     1      -2.139   2.578  -1.333  0.00  0.00    -0.275 OA
ATOM     18  O   UNL     1      -3.191   1.727  -5.134  0.00  0.00    -0.292 OA
ATOM     19  H   UNL     1       0.328  -1.922  -2.613  0.00  0.00    +0.152 HD
ENDROOT
BRANCH   1  24
ATOM     20  C   UNL     1      -4.809  -6.648  -7.466  0.00  0.00    +0.044 C 
ATOM     21  C   UNL     1      -4.145  -5.385  -6.982  0.00  0.00    -0.050 A 
ATOM     22  C   UNL     1      -3.145  -4.798  -7.735  0.00  0.00    +0.003 A 
ATOM     23  C   UNL     1      -2.536  -3.638  -7.292  0.00  0.00    +0.004 A 
ATOM     24  C   UNL     1      -2.928  -3.066  -6.096  0.00  0.00    -0.043 A 
ATOM     25  C   UNL     1      -3.924  -3.656  -5.341  0.00  0.00    +0.004 A 
ATOM     26  C   UNL     1      -4.535  -4.813  -5.786  0.00  0.00    +0.003 A 
ENDBRANCH   1  24
BRANCH   5  27
ATOM     27  C   UNL     1       0.002   2.262  -4.602  0.00  0.00    -0.022 A 
ATOM     28  C   UNL     1       0.778   3.367  -4.302  0.00  0.00    +0.009 A 
ATOM     29  C   UNL     1       1.702   3.832  -5.217  0.00  0.00    +0.046 A 
ATOM     30  C   UNL     1       1.843   3.197  -6.443  0.00  0.00    +0.120 A 
ATOM     31  C   UNL     1       1.059   2.093  -6.744  0.00  0.00    +0.046 A 
ATOM     32  C   UNL     1       0.140   1.628  -5.823  0.00  0.00    +0.009 A 
BRANCH  30  33
ATOM     33  O   UNL     1       2.748   3.656  -7.347  0.00  0.00    -0.495 OA
ATOM     34  C   UNL     1       3.521   4.797  -6.969  0.00  0.00    +0.277 C 
ENDBRANCH  30  33
ENDBRANCH   5  27
BRANCH  16  35
ATOM     35  C   UNL     1      -0.371   2.043   0.137  0.00  0.00    +0.107 C 
BRANCH  35  36
ATOM     36  C   UNL     1      -1.326   2.605   1.192  0.00  0.00    +0.134 C 
BRANCH  36  37
ATOM     37  C   UNL     1      -0.676   2.528   2.549  0.00  0.00    +0.356 C 
ATOM     38  O   UNL     1       0.437   2.071   2.661  0.00  0.00    -0.246 OA
ATOM     39  O   UNL     1      -1.333   2.968   3.634  0.00  0.00    -0.246 OA
ENDBRANCH  36  37
ENDBRANCH  35  36
ENDBRANCH  16  35
TORSDOF 6
