REMARK  Name = ZINC39638248
REMARK  10 active torsions:
REMARK  status: ('A' for Active; 'I' for Inactive)
REMARK    1  A    between atoms: C_1  and  C_2
REMARK    2  A    between atoms: C_2  and  C_3
REMARK    3  A    between atoms: C_3  and  C_5
REMARK    4  A    between atoms: C_3  and  N_8
REMARK    5  A    between atoms: C_5  and  O_6
REMARK    6  A    between atoms: O_6  and  C_7
REMARK    7  A    between atoms: C_9  and  C_11
REMARK    8  A    between atoms: C_22  and  C_24
REMARK    9  A    between atoms: C_31  and  C_35
REMARK   10  A    between atoms: N_33  and  C_34
REMARK                            x       y       z     vdW  Elec       q    Type
REMARK                         _______ _______ _______ _____ _____    ______ ____
ROOT
ATOM      1  C   UNL     1      -0.482   1.374   4.844  0.00  0.00    +0.100 C 
ATOM      2  C   UNL     1      -1.926   1.457   4.300  0.00  0.00    +0.121 C 
ATOM      3  N   UNL     1      -2.489   2.682   4.916  0.00  0.00    -0.296 N 
ATOM      4  C   UNL     1      -1.371   3.655   4.888  0.00  0.00    +0.115 C 
ATOM      5  C   UNL     1      -0.121   2.819   5.228  0.00  0.00    -0.004 C 
ATOM      6  C   UNL     1       1.073   3.300   4.411  0.00  0.00    -0.010 C 
ATOM      7  C   UNL     1       1.450   4.718   4.851  0.00  0.00    -0.082 C 
ATOM      8  N   UNL     1       1.779   4.716   6.282  0.00  0.00    +0.379 N 
ATOM      9  C   UNL     1       0.597   4.341   7.067  0.00  0.00    -0.082 C 
ATOM     10  C   UNL     1       0.184   2.908   6.720  0.00  0.00    -0.010 C 
ATOM     11  C   UNL     1      -3.735   2.868   5.394  0.00  0.00    +0.250 C 
ATOM     12  O   UNL     1      -4.078   3.967   5.787  0.00  0.00    -0.270 OA
ATOM     13  H   UNL     1       2.520   4.053   6.455  0.00  0.00    -0.086 HD
ATOM     14  H   UNL     1       2.085   5.637   6.556  0.00  0.00    -0.086 HD
ENDROOT
BRANCH  11  15
ATOM     15  C   UNL     1      -4.684   1.738   5.442  0.00  0.00    +0.074 A 
ATOM     16  C   UNL     1      -4.677   0.763   4.436  0.00  0.00    +0.127 A 
ATOM     17  N   UNL     1      -5.511  -0.249   4.460  0.00  0.00    -0.235 NA
ATOM     18  C   UNL     1      -6.403  -0.402   5.434  0.00  0.00    +0.160 A 
ATOM     19  C   UNL     1      -6.474   0.536   6.484  0.00  0.00    +0.060 A 
ATOM     20  C   UNL     1      -5.596   1.625   6.494  0.00  0.00    +0.067 A 
ATOM     21 CL   UNL     1      -5.643   2.801   7.770  0.00  0.00    -0.082 Cl
ATOM     22  C   UNL     1      -7.540   0.083   7.373  0.00  0.00    +0.071 A 
ATOM     23  N   UNL     1      -8.029  -1.014   6.871  0.00  0.00    -0.174 NA
ATOM     24  N   UNL     1      -7.361  -1.342   5.688  0.00  0.00    -0.249 N 
ATOM     25  C   UNL     1      -7.644  -2.511   4.850  0.00  0.00    +0.174 C 
ATOM     26  C   UNL     1      -7.991   0.761   8.640  0.00  0.00    +0.068 C 
ENDBRANCH  11  15
BRANCH   1  28
ATOM     27  N   UNL     1       1.559   0.179   4.121  0.00  0.00    -0.310 N 
ATOM     28  C   UNL     1       0.452   0.866   3.776  0.00  0.00    +0.218 C 
ATOM     29  O   UNL     1       0.208   1.076   2.607  0.00  0.00    -0.275 OA
ATOM     30  H   UNL     1       1.754   0.011   5.056  0.00  0.00    +0.149 HD
BRANCH  27  31
ATOM     31  C   UNL     1       2.468  -0.315   3.084  0.00  0.00    +0.098 C 
BRANCH  31  33
ATOM     32  C   UNL     1       0.619  -1.478   1.870  0.00  0.00    +0.006 C 
ATOM     33  C   UNL     1       1.967  -1.666   2.568  0.00  0.00    +0.021 C 
ENDBRANCH  31  33
BRANCH  31  34
ATOM     34  C   UNL     1       3.870  -0.481   3.671  0.00  0.00    +0.181 C 
BRANCH  34  35
ATOM     35  O   UNL     1       3.850  -1.501   4.672  0.00  0.00    -0.381 OA
ATOM     36  C   UNL     1       5.118  -1.736   5.288  0.00  0.00    +0.194 C 
ENDBRANCH  34  35
ENDBRANCH  31  34
ENDBRANCH  27  31
ENDBRANCH   1  28
TORSDOF 6
