REMARK  Name = ZINC05198502
REMARK  5 active torsions:
REMARK  status: ('A' for Active; 'I' for Inactive)
REMARK    1  A    between atoms: C_5  and  C_7
REMARK    2  A    between atoms: C_10  and  C_12
REMARK    3  A    between atoms: C_12  and  S_13
REMARK    4  A    between atoms: S_13  and  C_14
REMARK    5  A    between atoms: C_18  and  N_20
REMARK                            x       y       z     vdW  Elec       q    Type
REMARK                         _______ _______ _______ _____ _____    ______ ____
ROOT
ATOM      1  C   UNL     1      -1.244   2.213   0.020  0.00  0.00    +0.175 C 
ENDROOT
BRANCH   1   5
ATOM      2  C   UNL     1       1.300  -0.366  -0.012  0.00  0.00    +0.249 A 
ATOM      3  N   UNL     1       2.012   0.737  -0.013  0.00  0.00    -0.107 NA
ATOM      4  N   UNL     1       1.221   1.752  -0.000  0.00  0.00    -0.111 NA
ATOM      5  C   UNL     1      -0.016   1.340   0.009  0.00  0.00    +0.228 A 
ATOM      6  O   UNL     1       0.002  -0.004   0.002  0.00  0.00    -0.419 OA
BRANCH   2  11
ATOM      7  C   UNL     1       1.442  -4.119  -0.030  0.00  0.00    +0.001 A 
ATOM      8  C   UNL     1       2.809  -4.337  -0.044  0.00  0.00    +0.001 A 
ATOM      9  C   UNL     1       3.686  -3.268  -0.049  0.00  0.00    +0.016 A 
ATOM     10  C   UNL     1       3.203  -1.975  -0.038  0.00  0.00    +0.030 A 
ATOM     11  C   UNL     1       1.825  -1.748  -0.024  0.00  0.00    +0.052 A 
ATOM     12  C   UNL     1       0.946  -2.832  -0.015  0.00  0.00    +0.014 A 
ATOM     13 BR   UNL     1       4.404  -0.514  -0.043  0.00  0.00    -0.050 Br
ENDBRANCH   2  11
ENDBRANCH   1   5
BRANCH   1  14
ATOM     14  S   UNL     1      -1.745   2.572  -1.682  0.00  0.00    -0.076 S 
BRANCH  14  15
ATOM     15  C   UNL     1      -3.160   3.577  -1.379  0.00  0.00    +0.192 A 
ATOM     16  N   UNL     1      -3.520   3.825  -0.129  0.00  0.00    -0.207 NA
ATOM     17  C   UNL     1      -4.580   4.584   0.138  0.00  0.00    +0.122 A 
ATOM     18  C   UNL     1      -5.319   5.111  -0.918  0.00  0.00    +0.086 A 
ATOM     19  C   UNL     1      -4.913   4.825  -2.218  0.00  0.00    +0.122 A 
ATOM     20  N   UNL     1      -3.839   4.062  -2.409  0.00  0.00    -0.207 NA
ATOM     21  N   UNL     1      -4.947   4.843   1.449  0.00  0.00    -0.343 N 
ATOM     22  H   UNL     1      -5.723   5.394   1.636  0.00  0.00    +0.144 HD
ATOM     23  H   UNL     1      -4.428   4.473   2.180  0.00  0.00    +0.144 HD
BRANCH  19  24
ATOM     24  N   UNL     1      -5.617   5.329  -3.301  0.00  0.00    -0.343 N 
ATOM     25  H   UNL     1      -5.329   5.125  -4.204  0.00  0.00    +0.144 HD
ATOM     26  H   UNL     1      -6.399   5.884  -3.155  0.00  0.00    +0.144 HD
ENDBRANCH  19  24
ENDBRANCH  14  15
ENDBRANCH   1  14
TORSDOF 5
