REMARK  Name = ZINC09451920
REMARK  9 active torsions:
REMARK  status: ('A' for Active; 'I' for Inactive)
REMARK    1  A    between atoms: C_1  and  C_2
REMARK    2  A    between atoms: C_5  and  N_8
REMARK    3  A    between atoms: N_8  and  C_9
REMARK    4  A    between atoms: C_10  and  C_29
REMARK    5  A    between atoms: C_15  and  S_18
REMARK    6  A    between atoms: S_18  and  C_19
REMARK    7  A    between atoms: C_19  and  C_20
REMARK    8  A    between atoms: C_25  and  C_27
REMARK    9  A    between atoms: C_25  and  C_28
REMARK                            x       y       z     vdW  Elec       q    Type
REMARK                         _______ _______ _______ _____ _____    ______ ____
ROOT
ATOM      1  C   UNL     1      -2.638  -4.107  -0.209  0.00  0.00    +0.129 A 
ATOM      2  C   UNL     1      -2.754  -2.960  -0.983  0.00  0.00    +0.094 A 
ATOM      3  C   UNL     1      -1.601  -2.184  -1.285  0.00  0.00    -0.015 A 
ATOM      4  C   UNL     1      -0.394  -2.566  -0.811  0.00  0.00    +0.027 A 
ATOM      5  C   UNL     1      -0.292  -3.740  -0.026  0.00  0.00    +0.169 A 
ATOM      6  N   UNL     1      -1.413  -4.488   0.260  0.00  0.00    -0.256 N 
ATOM      7  C   UNL     1      -0.977  -5.537   1.022  0.00  0.00    +0.198 A 
ATOM      8  N   UNL     1       0.321  -5.398   1.166  0.00  0.00    -0.122 NA
ATOM      9  N   UNL     1       0.729  -4.345   0.552  0.00  0.00    -0.128 NA
ATOM     10  C   UNL     1       0.855  -1.771  -1.089  0.00  0.00    +0.199 C 
ATOM     11  O   UNL     1       0.638  -0.861  -2.166  0.00  0.00    -0.369 OA
ATOM     12  C   UNL     1      -0.532  -0.053  -1.989  0.00  0.00    +0.068 C 
ATOM     13  C   UNL     1      -1.763  -0.950  -2.134  0.00  0.00    +0.071 C 
ATOM     14  C   UNL     1      -0.566   1.045  -3.054  0.00  0.00    +0.041 C 
ATOM     15  C   UNL     1      -0.516   0.580  -0.596  0.00  0.00    +0.041 C 
ENDROOT
BRANCH   1  16
ATOM     16  N   UNL     1      -3.751  -4.857   0.083  0.00  0.00    -0.299 N 
ATOM     17  H   UNL     1      -4.278  -4.656   0.872  0.00  0.00    +0.154 HD
BRANCH  16  22
ATOM     18  C   UNL     1      -5.270  -9.126  -3.328  0.00  0.00    +0.044 C 
ATOM     19  C   UNL     1      -4.866  -7.992  -2.422  0.00  0.00    -0.050 A 
ATOM     20  C   UNL     1      -5.679  -7.633  -1.362  0.00  0.00    +0.005 A 
ATOM     21  C   UNL     1      -5.312  -6.594  -0.530  0.00  0.00    +0.023 A 
ATOM     22  C   UNL     1      -4.125  -5.909  -0.758  0.00  0.00    +0.032 A 
ATOM     23  C   UNL     1      -3.313  -6.269  -1.826  0.00  0.00    +0.023 A 
ATOM     24  C   UNL     1      -3.683  -7.313  -2.651  0.00  0.00    +0.005 A 
ENDBRANCH  16  22
ENDBRANCH   1  16
BRANCH   2  25
ATOM     25  C   UNL     1      -4.037  -2.557  -1.477  0.00  0.00    +0.103 C 
ATOM     26  N   UNL     1      -5.054  -2.237  -1.869  0.00  0.00    -0.191 NA
ENDBRANCH   2  25
BRANCH   7  27
ATOM     27  S   UNL     1      -1.972  -6.830   1.688  0.00  0.00    -0.076 S 
BRANCH  27  28
ATOM     28  C   UNL     1      -0.772  -7.956   2.453  0.00  0.00    +0.172 C 
BRANCH  28  29
ATOM     29  C   UNL     1      -1.488  -9.179   2.965  0.00  0.00    +0.221 C 
ATOM     30  O   UNL     1      -2.671  -9.328   2.742  0.00  0.00    -0.275 OA
ATOM     31  N   UNL     1      -0.814 -10.108   3.672  0.00  0.00    -0.329 N 
ATOM     32  H   UNL     1       0.132  -9.989   3.850  0.00  0.00    +0.145 HD
ATOM     33  H   UNL     1      -1.274 -10.895   4.001  0.00  0.00    +0.145 HD
ENDBRANCH  28  29
ENDBRANCH  27  28
ENDBRANCH   7  27
TORSDOF 6
