REMARK  Name = ZINC40446655
REMARK  5 active torsions:
REMARK  status: ('A' for Active; 'I' for Inactive)
REMARK    1  A    between atoms: C_1  and  C_2
REMARK    2  A    between atoms: C_3  and  N_11
REMARK    3  A    between atoms: C_5  and  C_9
REMARK    4  A    between atoms: N_11  and  S_12
REMARK    5  A    between atoms: S_12  and  C_15
REMARK                            x       y       z     vdW  Elec       q    Type
REMARK                         _______ _______ _______ _____ _____    ______ ____
ROOT
ATOM      1  N   UNL     1      -0.010   0.017  -2.411  0.00  0.00    -0.097 NA
ENDROOT
BRANCH   1   4
ATOM      2  C   UNL     1      -0.018   1.503   0.010  0.00  0.00    +0.049 C 
ATOM      3  C   UNL     1       0.002  -0.004   0.002  0.00  0.00    +0.009 A 
ATOM      4  C   UNL     1       0.006  -0.690  -1.207  0.00  0.00    +0.081 A 
ATOM      5  C   UNL     1       0.025  -2.076  -1.218  0.00  0.00    +0.046 A 
ATOM      6  C   UNL     1       0.040  -2.780  -0.012  0.00  0.00    +0.056 A 
ATOM      7  C   UNL     1       0.037  -2.083   1.198  0.00  0.00    +0.057 A 
ATOM      8  C   UNL     1       0.023  -0.700   1.198  0.00  0.00    +0.129 A 
ATOM      9  F   UNL     1       0.024  -0.027   2.369  0.00  0.00    -0.205 F 
BRANCH   6  10
ATOM     10  C   UNL     1       0.059  -4.212  -0.016  0.00  0.00    +0.099 C 
ATOM     11  N   UNL     1       0.074  -5.347  -0.020  0.00  0.00    -0.191 NA
ENDBRANCH   6  10
ENDBRANCH   1   4
BRANCH   1  12
ATOM     12  S   UNL     1      -0.005  -0.800  -3.852  0.00  0.00    +0.093 S 
ATOM     13  O   UNL     1       1.249  -1.462  -3.939  0.00  0.00    -0.148 OA
ATOM     14  O   UNL     1      -1.242  -1.497  -3.927  0.00  0.00    -0.148 OA
BRANCH  12  15
ATOM     15  C   UNL     1      -0.029   0.407  -5.135  0.00  0.00    +0.124 A 
ATOM     16  C   UNL     1       1.048   0.523  -5.994  0.00  0.00    +0.030 A 
ATOM     17  C   UNL     1       1.030   1.469  -7.002  0.00  0.00    +0.002 A 
ATOM     18  C   UNL     1      -0.065   2.300  -7.151  0.00  0.00    +0.001 A 
ATOM     19  C   UNL     1      -1.142   2.185  -6.292  0.00  0.00    +0.017 A 
ATOM     20  C   UNL     1      -1.126   1.234  -5.287  0.00  0.00    +0.045 A 
ATOM     21 BR   UNL     1      -2.603   1.071  -4.117  0.00  0.00    -0.048 Br
ENDBRANCH  12  15
ENDBRANCH   1  12
TORSDOF 4
