REMARK  Name = ZINC37630601
REMARK  10 active torsions:
REMARK  status: ('A' for Active; 'I' for Inactive)
REMARK    1  A    between atoms: C_1  and  C_2
REMARK    2  A    between atoms: C_2  and  C_3
REMARK    3  A    between atoms: C_2  and  C_4
REMARK    4  A    between atoms: C_2  and  C_5
REMARK    5  A    between atoms: C_5  and  C_7
REMARK    6  A    between atoms: C_5  and  N_14
REMARK    7  A    between atoms: C_15  and  C_17
REMARK    8  A    between atoms: C_17  and  N_18
REMARK    9  A    between atoms: C_19  and  C_21
REMARK   10  A    between atoms: C_21  and  N_22
REMARK                            x       y       z     vdW  Elec       q    Type
REMARK                         _______ _______ _______ _____ _____    ______ ____
ROOT
ATOM      1  N   UNL     1       0.010  -0.012  -2.444  0.00  0.00    -0.307 N 
ATOM      2  C   UNL     1      -1.042  -0.701  -2.929  0.00  0.00    +0.231 C 
ATOM      3  O   UNL     1      -1.403  -1.722  -2.383  0.00  0.00    -0.274 OA
ATOM      4  H   UNL     1       0.298   0.805  -2.880  0.00  0.00    +0.149 HD
ENDROOT
BRANCH   1   5
ATOM      5  C   UNL     1       0.718  -0.497  -1.257  0.00  0.00    +0.109 C 
BRANCH   5   6
ATOM      6  C   UNL     1       2.132   0.024  -1.268  0.00  0.00    -0.027 A 
ATOM      7  C   UNL     1       2.386   1.323  -1.667  0.00  0.00    +0.008 A 
ATOM      8  C   UNL     1       3.682   1.803  -1.677  0.00  0.00    +0.038 A 
ATOM      9  C   UNL     1       4.726   0.982  -1.286  0.00  0.00    +0.123 A 
ATOM     10  C   UNL     1       4.471  -0.319  -0.886  0.00  0.00    +0.038 A 
ATOM     11  C   UNL     1       3.173  -0.795  -0.872  0.00  0.00    +0.008 A 
ATOM     12  F   UNL     1       5.994   1.449  -1.296  0.00  0.00    -0.205 F 
ENDBRANCH   5   6
BRANCH   5  14
ATOM     13  C   UNL     1      -0.019   1.526   0.010  0.00  0.00    +0.013 C 
ATOM     14  C   UNL     1       0.002  -0.004   0.002  0.00  0.00    -0.015 C 
ATOM     15  C   UNL     1       0.742  -0.511   1.242  0.00  0.00    +0.013 C 
ATOM     16  C   UNL     1      -1.433  -0.534   0.013  0.00  0.00    +0.013 C 
ENDBRANCH   5  14
ENDBRANCH   1   5
BRANCH   2  17
ATOM     17  C   UNL     1      -1.771  -0.201  -4.150  0.00  0.00    +0.200 C 
BRANCH  17  18
ATOM     18  N   UNL     1      -2.867  -1.119  -4.473  0.00  0.00    -0.308 N 
ATOM     19  C   UNL     1      -3.661  -0.872  -5.534  0.00  0.00    +0.196 C 
ATOM     20  O   UNL     1      -3.469   0.109  -6.221  0.00  0.00    -0.278 OA
ATOM     21  H   UNL     1      -3.021  -1.903  -3.924  0.00  0.00    +0.149 HD
BRANCH  19  22
ATOM     22  C   UNL     1      -4.788  -1.815  -5.867  0.00  0.00    +0.011 C 
BRANCH  22  23
ATOM     23  N   UNL     1      -5.499  -1.329  -7.057  0.00  0.00    +0.384 N 
ATOM     24  H   UNL     1      -5.872  -0.410  -6.873  0.00  0.00    -0.089 HD
ATOM     25  H   UNL     1      -4.858  -1.282  -7.835  0.00  0.00    -0.089 HD
ATOM     26  H   UNL     1      -6.253  -1.960  -7.280  0.00  0.00    -0.089 HD
ENDBRANCH  22  23
ENDBRANCH  19  22
ENDBRANCH  17  18
ENDBRANCH   2  17
TORSDOF 7
