REMARK  Name = ZINC19913712
REMARK  4 active torsions:
REMARK  status: ('A' for Active; 'I' for Inactive)
REMARK    1  A    between atoms: C_1  and  C_2
REMARK    2  A    between atoms: C_5  and  C_8
REMARK    3  A    between atoms: N_21  and  C_22
REMARK    4  A    between atoms: C_22  and  C_23
REMARK                            x       y       z     vdW  Elec       q    Type
REMARK                         _______ _______ _______ _____ _____    ______ ____
ROOT
ATOM      1  C   UNL     1       0.059  -4.275  -0.021  0.00  0.00    +0.211 C 
ATOM      2  N   UNL     1       0.750  -4.749  -1.223  0.00  0.00    -0.335 N 
ATOM      3  C   UNL     1       2.018  -5.057  -1.192  0.00  0.00    +0.194 C 
ATOM      4  N   UNL     1       2.728  -5.037  -0.050  0.00  0.00    -0.186 NA
ATOM      5  C   UNL     1       2.124  -4.932   1.113  0.00  0.00    +0.199 C 
ATOM      6  N   UNL     1       0.764  -4.762   1.169  0.00  0.00    -0.215 N 
ATOM      7  C   UNL     1       0.064  -5.046   2.325  0.00  0.00    +0.249 C 
ATOM      8  O   UNL     1      -1.290  -5.010   2.318  0.00  0.00    -0.270 OA
ATOM      9  C   UNL     1       0.722  -5.359   3.462  0.00  0.00    +0.090 C 
ATOM     10  C   UNL     1       2.194  -5.427   3.435  0.00  0.00    +0.031 C 
ATOM     11  N   UNL     1       2.847  -4.963   2.279  0.00  0.00    -0.287 N 
ATOM     12  C   UNL     1       2.886  -5.913   4.476  0.00  0.00    +0.033 C 
ATOM     13  N   UNL     1       2.649  -5.416  -2.367  0.00  0.00    -0.311 N 
ATOM     14  H   UNL     1       2.151  -5.435  -3.199  0.00  0.00    +0.149 HD
ATOM     15  H   UNL     1       3.773  -4.676   2.304  0.00  0.00    +0.155 HD
ATOM     16  H   UNL     1       0.258  -4.834  -2.055  0.00  0.00    +0.164 HD
ENDROOT
BRANCH   1  21
ATOM     17  C   UNL     1      -0.018   1.503   0.010  0.00  0.00    +0.044 C 
ATOM     18  C   UNL     1       0.002  -0.004   0.002  0.00  0.00    -0.050 A 
ATOM     19  C   UNL     1       0.006  -0.689  -1.199  0.00  0.00    +0.004 A 
ATOM     20  C   UNL     1       0.025  -2.071  -1.206  0.00  0.00    +0.007 A 
ATOM     21  C   UNL     1       0.040  -2.768  -0.013  0.00  0.00    -0.007 A 
ATOM     22  C   UNL     1       0.037  -2.084   1.188  0.00  0.00    +0.007 A 
ATOM     23  C   UNL     1       0.023  -0.702   1.195  0.00  0.00    +0.004 A 
ENDBRANCH   1  21
BRANCH  13  24
ATOM     24  C   UNL     1       4.071  -5.767  -2.357  0.00  0.00    +0.139 C 
BRANCH  24  25
ATOM     25  C   UNL     1       4.512  -6.117  -3.755  0.00  0.00    -0.030 A 
ATOM     26  C   UNL     1       4.425  -7.422  -4.200  0.00  0.00    +0.005 A 
ATOM     27  C   UNL     1       4.830  -7.743  -5.483  0.00  0.00    +0.000 A 
ATOM     28  C   UNL     1       5.321  -6.758  -6.319  0.00  0.00    +0.000 A 
ATOM     29  C   UNL     1       5.407  -5.452  -5.874  0.00  0.00    +0.000 A 
ATOM     30  C   UNL     1       4.999  -5.131  -4.593  0.00  0.00    +0.005 A 
ENDBRANCH  24  25
ENDBRANCH  13  24
TORSDOF 3
