REMARK  Name = ZINC59862833
REMARK  6 active torsions:
REMARK  status: ('A' for Active; 'I' for Inactive)
REMARK    1  A    between atoms: C_1  and  C_2
REMARK    2  A    between atoms: C_7  and  N_8
REMARK    3  A    between atoms: C_12  and  C_13
REMARK    4  A    between atoms: C_16  and  C_18
REMARK    5  A    between atoms: C_22  and  C_25
REMARK    6  A    between atoms: C_23  and  C_24
REMARK                            x       y       z     vdW  Elec       q    Type
REMARK                         _______ _______ _______ _____ _____    ______ ____
ROOT
ATOM      1  N   UNL     1       0.004   0.539   2.170  0.00  0.00    -0.188 N 
ATOM      2  C   UNL     1      -1.124   0.537   2.913  0.00  0.00    +0.264 C 
ATOM      3  O   UNL     1      -2.101  -0.102   2.569  0.00  0.00    -0.269 OA
ATOM      4  C   UNL     1      -1.135   1.332   4.151  0.00  0.00    +0.105 C 
ATOM      5  C   UNL     1      -2.264   1.379   4.972  0.00  0.00    +0.064 C 
ATOM      6  C   UNL     1       0.048   2.050   4.482  0.00  0.00    +0.277 C 
ATOM      7  O   UNL     1       0.104   2.797   5.605  0.00  0.00    -0.268 OA
ATOM      8  N   UNL     1       1.093   1.974   3.675  0.00  0.00    -0.123 NA
ATOM      9  C   UNL     1       1.077   1.244   2.563  0.00  0.00    +0.340 C 
ATOM     10  O   UNL     1       2.079   1.217   1.869  0.00  0.00    -0.250 OA
ENDROOT
BRANCH   1  17
ATOM     11  C   UNL     1      -0.781   1.811  -0.252  0.00  0.00    +0.045 C 
ATOM     12  C   UNL     1      -0.317   0.378  -0.220  0.00  0.00    -0.029 A 
ATOM     13  C   UNL     1      -0.258  -0.356  -1.389  0.00  0.00    +0.005 A 
ATOM     14  C   UNL     1       0.167  -1.672  -1.360  0.00  0.00    +0.000 A 
ATOM     15  C   UNL     1       0.534  -2.257  -0.162  0.00  0.00    +0.002 A 
ATOM     16  C   UNL     1       0.477  -1.528   1.010  0.00  0.00    +0.024 A 
ATOM     17  C   UNL     1       0.057  -0.205   0.984  0.00  0.00    +0.049 A 
ENDBRANCH   1  17
BRANCH   5  18
ATOM     18  C   UNL     1      -2.187   1.976   6.234  0.00  0.00    +0.129 A 
ATOM     19  C   UNL     1      -3.148   2.804   6.807  0.00  0.00    +0.050 A 
ATOM     20  C   UNL     1      -2.667   3.170   8.060  0.00  0.00    +0.050 A 
ATOM     21  C   UNL     1      -1.437   2.561   8.217  0.00  0.00    +0.136 A 
ATOM     22  O   UNL     1      -1.168   1.845   7.112  0.00  0.00    -0.455 OA
BRANCH  21  23
ATOM     23  C   UNL     1      -0.565   2.675   9.401  0.00  0.00    +0.020 A 
ATOM     24  C   UNL     1      -0.265   3.932   9.934  0.00  0.00    +0.013 A 
ATOM     25  C   UNL     1       0.550   4.030  11.042  0.00  0.00    +0.016 A 
ATOM     26  C   UNL     1       1.071   2.888  11.626  0.00  0.00    +0.021 A 
ATOM     27  C   UNL     1       0.777   1.639  11.104  0.00  0.00    -0.033 A 
ATOM     28  C   UNL     1      -0.041   1.526  10.000  0.00  0.00    -0.036 A 
ATOM     29  C   UNL     1      -0.364   0.166   9.436  0.00  0.00    +0.045 C 
ATOM     30  C   UNL     1       1.348   0.402  11.747  0.00  0.00    +0.045 C 
ATOM     31 BR   UNL     1       2.188   3.033  13.145  0.00  0.00    -0.050 Br
ENDBRANCH  21  23
ENDBRANCH   5  18
TORSDOF 3
