REMARK  Name = ZINC04965943
REMARK  4 active torsions:
REMARK  status: ('A' for Active; 'I' for Inactive)
REMARK    1  A    between atoms: C_1  and  C_2
REMARK    2  A    between atoms: C_2  and  C_14
REMARK    3  A    between atoms: N_3  and  N_4
REMARK    4  A    between atoms: C_23  and  O_24
REMARK                            x       y       z     vdW  Elec       q    Type
REMARK                         _______ _______ _______ _____ _____    ______ ____
ROOT
ATOM      1  C   UNL     1      -0.018   1.503   0.010  0.00  0.00    +0.068 C 
ATOM      2  C   UNL     1       0.002  -0.004   0.002  0.00  0.00    +0.067 C 
ATOM      3  N   UNL     1       0.022  -0.659   1.123  0.00  0.00    -0.183 NA
ENDROOT
BRANCH   3   4
ATOM      4  N   UNL     1       0.024   0.035   2.340  0.00  0.00    -0.190 N 
ATOM      5  C   UNL     1       0.044  -0.660   3.528  0.00  0.00    +0.309 A 
ATOM      6  N   UNL     1       0.069  -1.965   3.635  0.00  0.00    -0.194 NA
ATOM      7  C   UNL     1       0.084  -2.295   4.954  0.00  0.00    +0.111 A 
ATOM      8  C   UNL     1       0.110  -3.508   5.644  0.00  0.00    +0.031 A 
ATOM      9  C   UNL     1       0.119  -3.511   7.021  0.00  0.00    +0.002 A 
ATOM     10  C   UNL     1       0.102  -2.317   7.726  0.00  0.00    +0.004 A 
ATOM     11  C   UNL     1       0.075  -1.110   7.056  0.00  0.00    +0.048 A 
ATOM     12  C   UNL     1       0.067  -1.089   5.671  0.00  0.00    +0.157 A 
ATOM     13  O   UNL     1       0.048  -0.098   4.750  0.00  0.00    -0.423 OA
ATOM     14  H   UNL     1       0.011   1.004   2.345  0.00  0.00    +0.179 HD
ENDBRANCH   3   4
BRANCH   2  15
ATOM     15  C   UNL     1      -0.000  -0.734  -1.278  0.00  0.00    +0.039 A 
ATOM     16  C   UNL     1      -0.015  -0.019  -2.490  0.00  0.00    +0.014 A 
ATOM     17  C   UNL     1      -0.018  -0.669  -3.681  0.00  0.00    +0.009 A 
ATOM     18  C   UNL     1      -0.005  -2.076  -3.720  0.00  0.00    -0.014 A 
ATOM     19  C   UNL     1      -0.007  -2.766  -4.944  0.00  0.00    +0.008 A 
ATOM     20  C   UNL     1       0.006  -4.127  -4.951  0.00  0.00    +0.001 A 
ATOM     21  C   UNL     1       0.022  -4.851  -3.760  0.00  0.00    +0.001 A 
ATOM     22  C   UNL     1       0.024  -4.217  -2.556  0.00  0.00    +0.012 A 
ATOM     23  C   UNL     1       0.011  -2.812  -2.509  0.00  0.00    +0.024 A 
ATOM     24  C   UNL     1       0.019  -2.125  -1.280  0.00  0.00    +0.133 A 
BRANCH  24  25
ATOM     25  O   UNL     1       0.039  -2.813  -0.111  0.00  0.00    -0.506 OA
ATOM     26  H   UNL     1      -0.839  -3.024   0.236  0.00  0.00    +0.292 HD
ENDBRANCH  24  25
ENDBRANCH   2  15
TORSDOF 3
