REMARK  Name = ZINC50704088
REMARK  2 active torsions:
REMARK  status: ('A' for Active; 'I' for Inactive)
REMARK    1  A    between atoms: C_3  and  N_21
REMARK    2  A    between atoms: C_6  and  C_7
REMARK                            x       y       z     vdW  Elec       q    Type
REMARK                         _______ _______ _______ _____ _____    ______ ____
ROOT
ATOM      1  C   UNL     1      -1.267  -0.763   0.011  0.00  0.00    +0.267 C 
ATOM      2  O   UNL     1      -2.327  -0.168   0.032  0.00  0.00    -0.268 OA
ATOM      3  N   UNL     1      -1.250  -2.106  -0.099  0.00  0.00    -0.293 N 
ATOM      4  C   UNL     1       0.021  -2.843  -0.111  0.00  0.00    +0.108 C 
ATOM      5  C   UNL     1       0.068  -3.733  -1.357  0.00  0.00    +0.019 C 
ATOM      6  C   UNL     1      -1.178  -4.621  -1.396  0.00  0.00    +0.007 C 
ATOM      7  C   UNL     1      -2.427  -3.741  -1.464  0.00  0.00    +0.010 C 
ATOM      8  C   UNL     1      -2.504  -2.870  -0.202  0.00  0.00    +0.079 C 
ATOM      9  C   UNL     1      -2.636  -3.762   1.034  0.00  0.00    +0.023 C 
ATOM     10  C   UNL     1      -3.898  -4.617   0.921  0.00  0.00    +0.002 C 
ATOM     11  C   UNL     1      -3.802  -5.500  -0.325  0.00  0.00    +0.000 C 
ATOM     12  C   UNL     1      -3.678  -4.612  -1.557  0.00  0.00    +0.005 C 
ENDROOT
BRANCH   1  18
ATOM     13  C   UNL     1       0.043   1.346  -0.234  0.00  0.00    +0.038 A 
ATOM     14  C   UNL     1       1.254   2.006  -0.130  0.00  0.00    +0.047 A 
ATOM     15  C   UNL     1       2.363   1.278   0.304  0.00  0.00    +0.139 A 
ATOM     16  N   UNL     1       2.233  -0.010   0.603  0.00  0.00    -0.134 NA
ATOM     17  N   UNL     1       1.110  -0.624   0.508  0.00  0.00    -0.143 NA
ATOM     18  C   UNL     1       0.004  -0.012   0.104  0.00  0.00    +0.148 A 
BRANCH  15  19
ATOM     19  N   UNL     1       3.596   1.897   0.422  0.00  0.00    -0.342 N 
ATOM     20  H   UNL     1       3.690   2.837   0.203  0.00  0.00    +0.144 HD
ATOM     21  H   UNL     1       4.366   1.390   0.724  0.00  0.00    +0.144 HD
ENDBRANCH  15  19
ENDBRANCH   1  18
TORSDOF 2
