REMARK  Name = ZINC00608572
REMARK  5 active torsions:
REMARK  status: ('A' for Active; 'I' for Inactive)
REMARK    1  A    between atoms: C_1  and  C_2
REMARK    2  A    between atoms: C_5  and  N_8
REMARK    3  A    between atoms: C_9  and  C_11
REMARK    4  A    between atoms: C_11  and  C_16
REMARK    5  A    between atoms: C_19  and  N_22
REMARK                            x       y       z     vdW  Elec       q    Type
REMARK                         _______ _______ _______ _____ _____    ______ ____
ROOT
ATOM      1  C   UNL     1       0.309  -6.349   1.121  0.00  0.00    +0.072 C 
ATOM      2  C   UNL     1       1.647  -7.004   0.722  0.00  0.00    +0.021 C 
ATOM      3  C   UNL     1       2.440  -7.089   2.050  0.00  0.00    +0.001 C 
ATOM      4  C   UNL     1       1.340  -7.442   3.082  0.00  0.00    +0.001 C 
ATOM      5  C   UNL     1       0.113  -6.628   2.622  0.00  0.00    +0.021 C 
ENDROOT
BRANCH   1   6
ATOM      6  C   UNL     1      -0.821  -6.959   0.332  0.00  0.00    -0.032 A 
ATOM      7  C   UNL     1      -0.846  -8.322   0.101  0.00  0.00    +0.007 A 
ATOM      8  C   UNL     1      -1.882  -8.881  -0.623  0.00  0.00    +0.033 A 
ATOM      9  C   UNL     1      -2.893  -8.078  -1.117  0.00  0.00    +0.126 A 
ATOM     10  C   UNL     1      -2.868  -6.715  -0.886  0.00  0.00    +0.033 A 
ATOM     11  C   UNL     1      -1.834  -6.156  -0.158  0.00  0.00    +0.007 A 
BRANCH   9  12
ATOM     12  N   UNL     1      -4.002  -8.677  -1.893  0.00  0.00    +0.056 N 
ATOM     13  O   UNL     1      -4.024  -9.868  -2.096  0.00  0.00    -0.126 OA
ATOM     14  O   UNL     1      -4.886  -7.974  -2.325  0.00  0.00    -0.126 OA
ENDBRANCH   9  12
ENDBRANCH   1   6
BRANCH   1  16
ATOM     15  N   UNL     1       0.701  -4.395  -0.343  0.00  0.00    -0.285 N 
ATOM     16  C   UNL     1       0.367  -4.864   0.875  0.00  0.00    +0.228 C 
ATOM     17  O   UNL     1       0.114  -4.090   1.774  0.00  0.00    -0.275 OA
ATOM     18  H   UNL     1       0.805  -5.009  -1.087  0.00  0.00    +0.155 HD
BRANCH  15  23
ATOM     19  C   UNL     1       1.491   1.168  -1.125  0.00  0.00    +0.044 C 
ATOM     20  C   UNL     1       1.281  -0.310  -0.917  0.00  0.00    -0.050 A 
ATOM     21  C   UNL     1       2.039  -1.221  -1.629  0.00  0.00    +0.005 A 
ATOM     22  C   UNL     1       1.849  -2.576  -1.441  0.00  0.00    +0.023 A 
ATOM     23  C   UNL     1       0.896  -3.023  -0.536  0.00  0.00    +0.033 A 
ATOM     24  C   UNL     1       0.136  -2.105   0.178  0.00  0.00    +0.023 A 
ATOM     25  C   UNL     1       0.334  -0.751  -0.011  0.00  0.00    +0.005 A 
ENDBRANCH  15  23
ENDBRANCH   1  16
TORSDOF 4
