REMARK  Name = ZINC05031568
REMARK  6 active torsions:
REMARK  status: ('A' for Active; 'I' for Inactive)
REMARK    1  A    between atoms: C_1  and  C_2
REMARK    2  A    between atoms: C_5  and  S_8
REMARK    3  A    between atoms: S_8  and  N_11
REMARK    4  A    between atoms: N_11  and  N_12
REMARK    5  A    between atoms: C_21  and  C_22
REMARK    6  A    between atoms: C_21  and  C_23
REMARK                            x       y       z     vdW  Elec       q    Type
REMARK                         _______ _______ _______ _____ _____    ______ ____
ROOT
ATOM      1  N   UNL     1       0.002  -0.004   0.002  0.00  0.00    -0.137 N 
ATOM      2  H   UNL     1      -0.418  -0.491  -0.724  0.00  0.00    +0.197 HD
ENDROOT
BRANCH   1   3
ATOM      3  N   UNL     1       0.628  -0.702   1.043  0.00  0.00    -0.175 NA
ATOM      4  C   UNL     1       0.646  -1.983   1.036  0.00  0.00    +0.042 C 
ATOM      5  C   UNL     1       1.302  -2.802   2.137  0.00  0.00    +0.053 C 
ATOM      6  C   UNL     1       1.993  -4.007   1.487  0.00  0.00    +0.010 C 
ATOM      7  C   UNL     1       1.198  -4.491   0.272  0.00  0.00    -0.004 C 
ATOM      8  C   UNL     1      -0.311  -4.227   0.447  0.00  0.00    +0.014 C 
ATOM      9  C   UNL     1       0.003  -2.811  -0.077  0.00  0.00    +0.041 C 
ATOM     10  C   UNL     1       1.132  -3.490  -0.888  0.00  0.00    -0.024 C 
ATOM     11  C   UNL     1       0.660  -4.100  -2.213  0.00  0.00    +0.012 C 
ATOM     12  C   UNL     1       2.379  -2.622  -1.064  0.00  0.00    +0.012 C 
ENDBRANCH   1   3
BRANCH   1  13
ATOM     13  S   UNL     1      -0.020   1.652   0.011  0.00  0.00    +0.086 S 
ATOM     14  O   UNL     1      -0.589   2.057  -1.227  0.00  0.00    -0.149 OA
ATOM     15  O   UNL     1      -0.565   2.044   1.264  0.00  0.00    -0.149 OA
BRANCH  13  20
ATOM     16  C   UNL     1       5.718   3.514  -0.034  0.00  0.00    +0.044 C 
ATOM     17  C   UNL     1       4.285   3.049  -0.022  0.00  0.00    -0.050 A 
ATOM     18  C   UNL     1       3.616   2.842  -1.214  0.00  0.00    +0.005 A 
ATOM     19  C   UNL     1       2.301   2.415  -1.204  0.00  0.00    +0.029 A 
ATOM     20  C   UNL     1       1.655   2.196  -0.002  0.00  0.00    +0.110 A 
ATOM     21  C   UNL     1       2.323   2.408   1.190  0.00  0.00    +0.029 A 
ATOM     22  C   UNL     1       3.639   2.830   1.180  0.00  0.00    +0.005 A 
ENDBRANCH  13  20
ENDBRANCH   1  13
TORSDOF 3
