REMARK  Name = ZINC34993708
REMARK  5 active torsions:
REMARK  status: ('A' for Active; 'I' for Inactive)
REMARK    1  A    between atoms: C_1  and  C_2
REMARK    2  A    between atoms: C_2  and  C_4
REMARK    3  A    between atoms: C_2  and  N_12
REMARK    4  A    between atoms: N_12  and  C_13
REMARK    5  A    between atoms: C_18  and  N_19
REMARK                            x       y       z     vdW  Elec       q    Type
REMARK                         _______ _______ _______ _____ _____    ______ ____
ROOT
ATOM      1  N   UNL     1       0.679  -0.585   1.161  0.00  0.00    -0.336 N 
ATOM      2  H   UNL     1       1.576  -0.942   1.068  0.00  0.00    +0.147 HD
ENDROOT
BRANCH   1   3
ATOM      3  C   UNL     1       0.011  -0.686   2.385  0.00  0.00    +0.058 A 
ATOM      4  C   UNL     1      -1.314  -0.283   2.490  0.00  0.00    +0.028 A 
ATOM      5  C   UNL     1      -1.972  -0.384   3.700  0.00  0.00    +0.040 A 
ATOM      6  C   UNL     1      -1.312  -0.887   4.809  0.00  0.00    +0.126 A 
ATOM      7  C   UNL     1       0.009  -1.290   4.707  0.00  0.00    +0.073 A 
ATOM      8  C   UNL     1       0.669  -1.196   3.497  0.00  0.00    +0.150 A 
ATOM      9  F   UNL     1      -1.958  -0.986   5.991  0.00  0.00    -0.205 F 
BRANCH   8  10
ATOM     10  N   UNL     1       2.079  -1.632   3.387  0.00  0.00    +0.058 N 
ATOM     11  O   UNL     1       2.460  -2.605   3.996  0.00  0.00    -0.126 OA
ATOM     12  O   UNL     1       2.850  -1.016   2.688  0.00  0.00    -0.126 OA
ENDBRANCH   8  10
ENDBRANCH   1   3
BRANCH   1  14
ATOM     13  C   UNL     1       0.241   1.573   0.098  0.00  0.00    +0.033 C 
ATOM     14  C   UNL     1       0.024   0.061   0.021  0.00  0.00    +0.098 C 
BRANCH  14  15
ATOM     15  C   UNL     1       0.615  -0.467  -1.262  0.00  0.00    -0.026 A 
ATOM     16  C   UNL     1       1.975  -0.697  -1.353  0.00  0.00    +0.007 A 
ATOM     17  C   UNL     1       2.517  -1.180  -2.529  0.00  0.00    +0.022 A 
ATOM     18  C   UNL     1       1.699  -1.434  -3.615  0.00  0.00    +0.059 A 
ATOM     19  C   UNL     1       0.337  -1.204  -3.523  0.00  0.00    +0.060 A 
ATOM     20  C   UNL     1      -0.205  -0.725  -2.344  0.00  0.00    +0.027 A 
ATOM     21 CL   UNL     1      -0.691  -1.522  -4.885  0.00  0.00    -0.082 Cl
ATOM     22 CL   UNL     1       2.380  -2.041  -5.092  0.00  0.00    -0.082 Cl
ENDBRANCH  14  15
ENDBRANCH   1  14
TORSDOF 4
