REMARK  Name = ZINC37759456
REMARK  5 active torsions:
REMARK  status: ('A' for Active; 'I' for Inactive)
REMARK    1  A    between atoms: C_1  and  C_2
REMARK    2  A    between atoms: C_5  and  S_7
REMARK    3  A    between atoms: S_7  and  C_8
REMARK    4  A    between atoms: C_9  and  C_15
REMARK    5  A    between atoms: C_11  and  N_14
REMARK                            x       y       z     vdW  Elec       q    Type
REMARK                         _______ _______ _______ _____ _____    ______ ____
ROOT
ATOM      1  C   UNL     1       0.069  -5.212  -0.693  0.00  0.00    +0.121 A 
ATOM      2  C   UNL     1       0.082  -6.617  -0.693  0.00  0.00    +0.086 A 
ATOM      3  C   UNL     1       0.086  -7.292  -1.919  0.00  0.00    +0.045 A 
ATOM      4  C   UNL     1       0.078  -6.537  -3.086  0.00  0.00    +0.044 A 
ATOM      5  C   UNL     1       0.066  -5.151  -3.001  0.00  0.00    +0.134 A 
ATOM      6  N   UNL     1       0.056  -4.540  -1.832  0.00  0.00    -0.245 NA
ENDROOT
BRANCH   4   7
ATOM      7  N   UNL     1       0.083  -7.168  -4.336  0.00  0.00    -0.357 N 
ATOM      8  H   UNL     1       0.092  -8.137  -4.390  0.00  0.00    +0.142 HD
ATOM      9  H   UNL     1       0.077  -6.637  -5.148  0.00  0.00    +0.142 HD
ENDBRANCH   4   7
BRANCH   2  10
ATOM     10  C   UNL     1       0.090  -7.346   0.539  0.00  0.00    +0.102 C 
ATOM     11  N   UNL     1       0.097  -7.925   1.517  0.00  0.00    -0.191 NA
ENDBRANCH   2  10
BRANCH   1  12
ATOM     12  S   UNL     1       0.063  -4.338   0.838  0.00  0.00    -0.040 S 
BRANCH  12  17
ATOM     13  C   UNL     1      -0.018   1.503   0.010  0.00  0.00    +0.075 C 
ATOM     14  C   UNL     1       0.002  -0.004   0.002  0.00  0.00    +0.100 A 
ATOM     15  N   UNL     1       0.010  -0.845  -1.012  0.00  0.00    -0.146 NA
ATOM     16  N   UNL     1       0.027  -2.096  -0.849  0.00  0.00    -0.134 NA
ATOM     17  C   UNL     1       0.039  -2.642   0.360  0.00  0.00    +0.165 A 
ATOM     18  S   UNL     1       0.031  -1.162   1.368  0.00  0.00    -0.044 S 
ENDBRANCH  12  17
ENDBRANCH   1  12
TORSDOF 4
