REMARK  Name = ZINC33816043
REMARK  10 active torsions:
REMARK  status: ('A' for Active; 'I' for Inactive)
REMARK    1  A    between atoms: C_3  and  O_17
REMARK    2  A    between atoms: C_6  and  C_7
REMARK    3  A    between atoms: C_8  and  C_9
REMARK    4  A    between atoms: C_11  and  O_16
REMARK    5  A    between atoms: C_13  and  O_15
REMARK    6  A    between atoms: O_17  and  C_18
REMARK    7  A    between atoms: C_20  and  O_34
REMARK    8  A    between atoms: C_22  and  O_33
REMARK    9  A    between atoms: C_24  and  O_32
REMARK   10  A    between atoms: C_26  and  C_29
REMARK                            x       y       z     vdW  Elec       q    Type
REMARK                         _______ _______ _______ _____ _____    ______ ____
ROOT
ATOM      1  C   UNL     1      -0.017   1.394   0.010  0.00  0.00    +0.011 A 
ATOM      2  C   UNL     1       1.168   2.096   0.002  0.00  0.00    +0.046 A 
ATOM      3  C   UNL     1       2.380   1.419  -0.013  0.00  0.00    +0.124 A 
ATOM      4  C   UNL     1       2.404   0.030  -0.021  0.00  0.00    +0.046 A 
ATOM      5  C   UNL     1       1.224  -0.682  -0.014  0.00  0.00    +0.011 A 
ATOM      6  C   UNL     1       0.002  -0.004   0.002  0.00  0.00    -0.025 A 
ENDROOT
BRANCH   6   7
ATOM      7  C   UNL     1      -1.262  -0.760   0.011  0.00  0.00    +0.008 C 
ATOM      8  C   UNL     1      -1.242  -2.103   0.003  0.00  0.00    +0.009 C 
BRANCH   8   9
ATOM      9  C   UNL     1      -2.507  -2.860   0.012  0.00  0.00    -0.018 A 
ATOM     10  C   UNL     1      -3.728  -2.182   0.022  0.00  0.00    +0.053 A 
ATOM     11  C   UNL     1      -4.914  -2.897   0.030  0.00  0.00    +0.121 A 
ATOM     12  C   UNL     1      -4.890  -4.285   0.028  0.00  0.00    +0.090 A 
ATOM     13  C   UNL     1      -3.679  -4.962   0.018  0.00  0.00    +0.121 A 
ATOM     14  C   UNL     1      -2.488  -4.256   0.004  0.00  0.00    +0.053 A 
BRANCH  13  15
ATOM     15  O   UNL     1      -3.662  -6.321   0.017  0.00  0.00    -0.507 OA
ATOM     16  H   UNL     1      -3.663  -6.714  -0.866  0.00  0.00    +0.292 HD
ENDBRANCH  13  15
BRANCH  11  17
ATOM     17  O   UNL     1      -6.103  -2.240   0.040  0.00  0.00    -0.507 OA
ATOM     18  H   UNL     1      -6.454  -2.048  -0.841  0.00  0.00    +0.292 HD
ENDBRANCH  11  17
ENDBRANCH   8   9
ENDBRANCH   6   7
BRANCH   3  19
ATOM     19  O   UNL     1       3.546   2.116  -0.020  0.00  0.00    -0.461 OA
BRANCH  19  20
ATOM     20  C   UNL     1       4.756   1.356  -0.036  0.00  0.00    +0.340 C 
ATOM     21  C   UNL     1       5.952   2.303  -0.168  0.00  0.00    +0.214 C 
ATOM     22  C   UNL     1       7.247   1.487  -0.123  0.00  0.00    +0.180 C 
ATOM     23  C   UNL     1       7.285   0.680   1.179  0.00  0.00    +0.186 C 
ATOM     24  C   UNL     1       6.038  -0.204   1.258  0.00  0.00    +0.266 C 
ATOM     25  O   UNL     1       4.869   0.614   1.180  0.00  0.00    -0.322 OA
BRANCH  24  26
ATOM     26  C   UNL     1       6.038  -0.957   2.563  0.00  0.00    +0.387 C 
ATOM     27  O   UNL     1       5.171  -0.740   3.393  0.00  0.00    -0.243 OA
ATOM     28  O   UNL     1       6.906  -1.784   2.790  0.00  0.00    -0.243 OA
ENDBRANCH  24  26
BRANCH  23  29
ATOM     29  O   UNL     1       8.456  -0.140   1.199  0.00  0.00    -0.386 OA
ATOM     30  H   UNL     1       8.544  -0.679   1.996  0.00  0.00    +0.210 HD
ENDBRANCH  23  29
BRANCH  22  31
ATOM     31  O   UNL     1       8.370   2.369  -0.174  0.00  0.00    -0.386 OA
ATOM     32  H   UNL     1       9.226   1.919  -0.149  0.00  0.00    +0.210 HD
ENDBRANCH  22  31
BRANCH  21  33
ATOM     33  O   UNL     1       5.871   3.005  -1.410  0.00  0.00    -0.383 OA
ATOM     34  H   UNL     1       5.072   3.540  -1.508  0.00  0.00    +0.210 HD
ENDBRANCH  21  33
ENDBRANCH  19  20
ENDBRANCH   3  19
TORSDOF 10
