REMARK  Name = ZINC54242436
REMARK  4 active torsions:
REMARK  status: ('A' for Active; 'I' for Inactive)
REMARK    1  A    between atoms: C_1  and  N_2
REMARK    2  A    between atoms: C_7  and  C_9
REMARK    3  A    between atoms: C_9  and  N_10
REMARK    4  A    between atoms: N_10  and  C_11
REMARK                            x       y       z     vdW  Elec       q    Type
REMARK                         _______ _______ _______ _____ _____    ______ ____
ROOT
ATOM      1  C   UNL     1       3.024   2.630   1.334  0.00  0.00    +0.043 A 
ATOM      2  C   UNL     1       4.306   2.115   1.208  0.00  0.00    +0.051 A 
ATOM      3  C   UNL     1       5.394   2.973   1.184  0.00  0.00    +0.069 A 
ATOM      4  C   UNL     1       5.197   4.351   1.287  0.00  0.00    +0.068 A 
ATOM      5  C   UNL     1       3.914   4.861   1.413  0.00  0.00    +0.045 A 
ATOM      6  C   UNL     1       2.831   4.004   1.431  0.00  0.00    +0.041 A 
ATOM      7 BR   UNL     1       1.080   4.700   1.595  0.00  0.00    -0.048 Br
ATOM      8  N   UNL     1       6.460   4.943   1.233  0.00  0.00    -0.306 N 
ATOM      9  H   UNL     1       6.644   5.894   1.281  0.00  0.00    +0.170 HD
ATOM     10  C   UNL     1       7.379   3.968   1.104  0.00  0.00    +0.325 A 
ATOM     11  O   UNL     1       8.581   4.144   1.028  0.00  0.00    -0.247 OA
ATOM     12  N   UNL     1       6.768   2.769   1.071  0.00  0.00    -0.306 N 
ATOM     13  H   UNL     1       7.209   1.910   0.984  0.00  0.00    +0.170 HD
ENDROOT
BRANCH   1  14
ATOM     14  N   UNL     1       1.923   1.766   1.358  0.00  0.00    -0.344 N 
ATOM     15  H   UNL     1       1.027   2.126   1.442  0.00  0.00    +0.146 HD
BRANCH  14  16
ATOM     16  C   UNL     1       2.126   0.319   1.256  0.00  0.00    +0.086 C 
BRANCH  16  23
ATOM     17  C   UNL     1       1.090  -0.243   3.804  0.00  0.00    -0.096 C 
ATOM     18  N   UNL     1       0.167   0.026   2.694  0.00  0.00    +0.381 N 
ATOM     19  C   UNL     1      -1.083  -0.712   2.909  0.00  0.00    -0.079 C 
ATOM     20  C   UNL     1      -2.078  -0.371   1.798  0.00  0.00    -0.019 C 
ATOM     21  C   UNL     1      -1.478  -0.764   0.445  0.00  0.00    -0.003 C 
ATOM     22  C   UNL     1      -0.138  -0.045   0.264  0.00  0.00    -0.014 C 
ATOM     23  C   UNL     1       0.785  -0.397   1.432  0.00  0.00    -0.052 C 
ATOM     24  H   UNL     1      -0.031   1.015   2.655  0.00  0.00    -0.082 HD
ENDBRANCH  16  23
ENDBRANCH  14  16
ENDBRANCH   1  14
TORSDOF 3
