REMARK  Name = ZINC63296362
REMARK  8 active torsions:
REMARK  status: ('A' for Active; 'I' for Inactive)
REMARK    1  A    between atoms: C_1  and  O_2
REMARK    2  A    between atoms: O_2  and  C_3
REMARK    3  A    between atoms: C_8  and  C_9
REMARK    4  A    between atoms: C_9  and  C_10
REMARK    5  A    between atoms: C_10  and  N_11
REMARK    6  A    between atoms: C_12  and  C_14
REMARK    7  A    between atoms: C_17  and  C_21
REMARK    8  A    between atoms: C_21  and  C_22
REMARK                            x       y       z     vdW  Elec       q    Type
REMARK                         _______ _______ _______ _____ _____    ______ ____
ROOT
ATOM      1  C   UNL     1      -3.958  -4.971   1.815  0.00  0.00    +0.297 C 
ATOM      2  N   UNL     1      -3.478  -6.367   1.709  0.00  0.00    -0.265 NA
ATOM      3  C   UNL     1      -4.666  -7.186   2.071  0.00  0.00    +0.154 C 
ATOM      4  N   UNL     1      -5.782  -6.405   1.473  0.00  0.00    -0.181 NA
ATOM      5  O   UNL     1      -5.386  -4.996   1.672  0.00  0.00    -0.270 OA
ATOM      6  H   UNL     1      -3.169  -6.572   0.770  0.00  0.00    +0.126 HD
ATOM      7  H   UNL     1      -5.886  -6.617   0.492  0.00  0.00    +0.156 HD
ENDROOT
BRANCH   1   9
ATOM      8  N   UNL     1      -2.035  -3.834   0.755  0.00  0.00    -0.312 N 
ATOM      9  C   UNL     1      -3.348  -4.134   0.721  0.00  0.00    +0.259 C 
ATOM     10  O   UNL     1      -4.039  -3.731  -0.191  0.00  0.00    -0.271 OA
ATOM     11  H   UNL     1      -1.482  -4.156   1.484  0.00  0.00    +0.149 HD
BRANCH   8  12
ATOM     12  C   UNL     1      -1.442  -3.020  -0.309  0.00  0.00    +0.109 C 
BRANCH  12  13
ATOM     13  C   UNL     1       0.051  -2.828  -0.033  0.00  0.00    +0.057 C 
BRANCH  13  19
ATOM     14  C   UNL     1       0.606  -0.607  -1.056  0.00  0.00    +0.123 A 
ATOM     15  C   UNL     1       1.173   0.161  -2.063  0.00  0.00    +0.046 A 
ATOM     16  C   UNL     1       1.786  -0.455  -3.136  0.00  0.00    +0.004 A 
ATOM     17  C   UNL     1       1.836  -1.835  -3.208  0.00  0.00    +0.000 A 
ATOM     18  C   UNL     1       1.271  -2.602  -2.207  0.00  0.00    +0.007 A 
ATOM     19  C   UNL     1       0.661  -1.991  -1.128  0.00  0.00    -0.004 A 
BRANCH  14  21
ATOM     20  C   UNL     1      -0.017   1.425   0.010  0.00  0.00    +0.277 C 
ATOM     21  O   UNL     1       0.002  -0.004   0.002  0.00  0.00    -0.495 OA
ENDBRANCH  14  21
ENDBRANCH  13  19
ENDBRANCH  12  13
ENDBRANCH   8  12
ENDBRANCH   1   9
BRANCH   3  22
ATOM     22  C   UNL     1      -4.576  -8.581   1.447  0.00  0.00    +0.070 C 
BRANCH  22  23
ATOM     23  C   UNL     1      -5.792  -9.383   1.832  0.00  0.00    -0.039 C 
ATOM     24  C   UNL     1      -6.928  -9.535   1.113  0.00  0.00    -0.001 A 
ATOM     25  C   UNL     1      -7.354  -9.018  -0.193  0.00  0.00    +0.010 A 
ATOM     26  C   UNL     1      -8.578  -9.350  -0.662  0.00  0.00    +0.001 A 
ATOM     27  C   UNL     1      -9.448 -10.174   0.066  0.00  0.00    +0.002 A 
ATOM     28  C   UNL     1      -9.127 -10.687   1.273  0.00  0.00    +0.026 A 
ATOM     29  C   UNL     1      -7.864 -10.403   1.862  0.00  0.00    +0.043 A 
ATOM     30  N   UNL     1      -7.329 -10.773   3.000  0.00  0.00    -0.380 N 
ATOM     31  C   UNL     1      -5.988 -10.186   3.099  0.00  0.00    +0.144 C 
ATOM     32  H   UNL     1      -7.747 -11.343   3.663  0.00  0.00    +0.160 HD
ENDBRANCH  22  23
ENDBRANCH   3  22
TORSDOF 7
