REMARK  Name = ZINC49128315
REMARK  6 active torsions:
REMARK  status: ('A' for Active; 'I' for Inactive)
REMARK    1  A    between atoms: C_1  and  C_2
REMARK    2  A    between atoms: C_2  and  C_4
REMARK    3  A    between atoms: C_2  and  N_10
REMARK    4  A    between atoms: C_4  and  C_5
REMARK    5  A    between atoms: N_10  and  C_11
REMARK    6  A    between atoms: C_16  and  N_17
REMARK                            x       y       z     vdW  Elec       q    Type
REMARK                         _______ _______ _______ _____ _____    ______ ____
ROOT
ATOM      1  C   UNL     1       2.108  -0.604   1.173  0.00  0.00    +0.049 A 
ATOM      2  C   UNL     1       2.820  -0.253   0.036  0.00  0.00    +0.030 A 
ATOM      3  C   UNL     1       4.198  -0.367   0.020  0.00  0.00    -0.024 A 
ATOM      4  C   UNL     1       4.872  -0.832   1.141  0.00  0.00    +0.038 A 
ATOM      5  C   UNL     1       4.164  -1.184   2.282  0.00  0.00    +0.048 A 
ATOM      6  C   UNL     1       2.783  -1.066   2.303  0.00  0.00    +0.047 A 
ATOM      7  N   UNL     1       6.268  -0.945   1.118  0.00  0.00    -0.285 N 
ATOM      8  C   UNL     1       6.992  -0.281   0.199  0.00  0.00    +0.218 C 
ATOM      9  O   UNL     1       8.198  -0.401   0.184  0.00  0.00    -0.275 OA
ATOM     10  C   UNL     1       6.320   0.610  -0.811  0.00  0.00    +0.101 C 
ATOM     11  C   UNL     1       4.972   0.014  -1.216  0.00  0.00    +0.046 C 
ATOM     12  H   UNL     1       6.717  -1.507   1.770  0.00  0.00    +0.155 HD
ENDROOT
BRANCH   6  13
ATOM     13  N   UNL     1       2.067  -1.415   3.454  0.00  0.00    -0.356 N 
ATOM     14  H   UNL     1       1.100  -1.336   3.466  0.00  0.00    +0.142 HD
ATOM     15  H   UNL     1       2.537  -1.736   4.239  0.00  0.00    +0.142 HD
ENDBRANCH   6  13
BRANCH   1  16
ATOM     16  N   UNL     1       0.711  -0.489   1.189  0.00  0.00    -0.339 N 
ATOM     17  H   UNL     1       0.213  -0.731   1.986  0.00  0.00    +0.146 HD
BRANCH  16  19
ATOM     18  C   UNL     1      -0.019   1.526   0.010  0.00  0.00    +0.028 C 
ATOM     19  C   UNL     1       0.002  -0.004   0.002  0.00  0.00    +0.075 C 
BRANCH  19  20
ATOM     20  C   UNL     1      -1.433  -0.534   0.013  0.00  0.00    +0.096 C 
BRANCH  20  21
ATOM     21  C   UNL     1      -1.416  -2.035  -0.119  0.00  0.00    +0.107 A 
ATOM     22  C   UNL     1      -1.369  -2.913   0.898  0.00  0.00    +0.045 A 
ATOM     23  C   UNL     1      -1.369  -4.205   0.324  0.00  0.00    +0.041 A 
ATOM     24  C   UNL     1      -1.417  -4.039  -1.010  0.00  0.00    +0.195 A 
ATOM     25  O   UNL     1      -1.451  -2.722  -1.272  0.00  0.00    -0.468 OA
ENDBRANCH  20  21
ENDBRANCH  19  20
ENDBRANCH  16  19
ENDBRANCH   1  16
TORSDOF 5
