REMARK  Name = ZINC13077867
REMARK  9 active torsions:
REMARK  status: ('A' for Active; 'I' for Inactive)
REMARK    1  A    between atoms: C_1  and  C_2
REMARK    2  A    between atoms: C_5  and  N_8
REMARK    3  A    between atoms: C_9  and  C_11
REMARK    4  A    between atoms: N_13  and  N_14
REMARK    5  A    between atoms: C_15  and  C_16
REMARK    6  A    between atoms: C_15  and  C_17
REMARK    7  A    between atoms: C_20  and  S_23
REMARK    8  A    between atoms: S_23  and  N_26
REMARK    9  A    between atoms: C_31  and  C_33
REMARK                            x       y       z     vdW  Elec       q    Type
REMARK                         _______ _______ _______ _____ _____    ______ ____
ROOT
ATOM      1  N   UNL     1      -3.850   4.983  -4.048  0.00  0.00    -0.184 NA
ATOM      2  C   UNL     1      -3.935   3.722  -3.752  0.00  0.00    +0.063 C 
ATOM      3  C   UNL     1      -5.002   2.868  -4.387  0.00  0.00    +0.068 C 
ENDROOT
BRANCH   2   4
ATOM      4  C   UNL     1      -2.987   3.124  -2.794  0.00  0.00    -0.002 A 
ATOM      5  C   UNL     1      -1.996   3.913  -2.202  0.00  0.00    +0.011 A 
ATOM      6  C   UNL     1      -1.112   3.347  -1.307  0.00  0.00    +0.029 A 
ATOM      7  C   UNL     1      -1.204   2.002  -0.995  0.00  0.00    +0.106 A 
ATOM      8  C   UNL     1      -2.180   1.214  -1.581  0.00  0.00    +0.029 A 
ATOM      9  C   UNL     1      -3.074   1.767  -2.473  0.00  0.00    +0.011 A 
BRANCH   7  10
ATOM     10  S   UNL     1      -0.070   1.288   0.149  0.00  0.00    +0.062 S 
ATOM     11  O   UNL     1      -0.022  -0.102  -0.142  0.00  0.00    -0.153 OA
ATOM     12  O   UNL     1       1.089   2.109   0.137  0.00  0.00    -0.153 OA
BRANCH  10  13
ATOM     13  N   UNL     1      -0.738   1.433   1.657  0.00  0.00    -0.163 NA
ATOM     14  C   UNL     1      -0.400   2.574   2.519  0.00  0.00    +0.110 C 
ATOM     15  C   UNL     1      -1.696   3.256   2.967  0.00  0.00    +0.017 C 
ATOM     16  C   UNL     1      -2.611   2.220   3.625  0.00  0.00    +0.003 C 
ATOM     17  C   UNL     1      -2.964   1.130   2.610  0.00  0.00    +0.032 C 
ATOM     18  C   UNL     1      -1.686   0.427   2.156  0.00  0.00    +0.192 C 
BRANCH  18  19
ATOM     19  C   UNL     1      -2.013  -0.549   1.055  0.00  0.00    +0.374 C 
ATOM     20  O   UNL     1      -2.936  -0.330   0.307  0.00  0.00    -0.245 OA
ATOM     21  O   UNL     1      -1.278  -1.662   0.906  0.00  0.00    -0.245 OA
ENDBRANCH  18  19
ENDBRANCH  10  13
ENDBRANCH   7  10
ENDBRANCH   2   4
BRANCH   1  24
ATOM     22  C   UNL     1      -4.664   6.860  -5.265  0.00  0.00    +0.318 C 
ATOM     23  O   UNL     1      -3.804   7.548  -4.753  0.00  0.00    -0.263 OA
ATOM     24  N   UNL     1      -4.752   5.551  -4.958  0.00  0.00    -0.199 N 
ATOM     25  H   UNL     1      -5.438   5.002  -5.367  0.00  0.00    +0.178 HD
BRANCH  22  27
ATOM     26  N   UNL     1      -5.535   8.774  -6.542  0.00  0.00    -0.278 N 
ATOM     27  C   UNL     1      -5.623   7.464  -6.234  0.00  0.00    +0.305 C 
ATOM     28  O   UNL     1      -6.483   6.777  -6.746  0.00  0.00    -0.265 OA
ATOM     29  H   UNL     1      -4.812   9.309  -6.180  0.00  0.00    +0.155 HD
BRANCH  26  34
ATOM     30  C   UNL     1      -9.397  11.152  -9.947  0.00  0.00    +0.044 C 
ATOM     31  C   UNL     1      -8.371  10.520  -9.043  0.00  0.00    -0.050 A 
ATOM     32  C   UNL     1      -8.744   9.506  -8.179  0.00  0.00    +0.005 A 
ATOM     33  C   UNL     1      -7.806   8.925  -7.348  0.00  0.00    +0.023 A 
ATOM     34  C   UNL     1      -6.487   9.360  -7.381  0.00  0.00    +0.034 A 
ATOM     35  C   UNL     1      -6.117  10.381  -8.246  0.00  0.00    +0.023 A 
ATOM     36  C   UNL     1      -7.058  10.954  -9.079  0.00  0.00    +0.005 A 
ENDBRANCH  26  34
ENDBRANCH  22  27
ENDBRANCH   1  24
TORSDOF 7
