REMARK  Name = ZINC12203693
REMARK  7 active torsions:
REMARK  status: ('A' for Active; 'I' for Inactive)
REMARK    1  A    between atoms: C_1  and  C_2
REMARK    2  A    between atoms: C_7  and  C_8
REMARK    3  A    between atoms: C_8  and  N_55
REMARK    4  A    between atoms: C_14  and  C_16
REMARK    5  A    between atoms: C_16  and  C_17
REMARK    6  A    between atoms: N_19  and  C_20
REMARK    7  A    between atoms: C_20  and  C_23
REMARK                            x       y       z     vdW  Elec       q    Type
REMARK                         _______ _______ _______ _____ _____    ______ ____
ROOT
ATOM      1  C   UNL     1      -0.956  -1.152   1.115  0.00  0.00    -0.058 C 
ATOM      2  C   UNL     1      -1.481  -0.780   2.503  0.00  0.00    +0.085 C 
ATOM      3  N   UNL     1      -1.636   0.667   2.609  0.00  0.00    -0.318 N 
ATOM      4  C   UNL     1      -1.037   1.525   1.776  0.00  0.00    +0.200 C 
ATOM      5  O   UNL     1      -1.195   2.714   1.955  0.00  0.00    -0.278 OA
ATOM      6  C   UNL     1      -0.175   1.078   0.630  0.00  0.00    +0.028 C 
ATOM      7  H   UNL     1      -2.199   1.023   3.314  0.00  0.00    +0.149 HD
ATOM      8  N   UNL     1       0.235  -0.324   0.840  0.00  0.00    +0.391 N 
ATOM      9  H   UNL     1       0.870  -0.370   1.646  0.00  0.00    -0.080 HD
ENDROOT
BRANCH   8  10
ATOM     10  C   UNL     1       0.941  -0.830  -0.359  0.00  0.00    -0.042 C 
BRANCH  10  17
ATOM     11  C   UNL     1      -0.841  -2.971  -1.125  0.00  0.00    +0.044 C 
ATOM     12  C   UNL     1       0.489  -3.288  -0.491  0.00  0.00    -0.049 A 
ATOM     13  C   UNL     1       0.857  -4.604  -0.277  0.00  0.00    +0.003 A 
ATOM     14  C   UNL     1       2.077  -4.894   0.304  0.00  0.00    +0.000 A 
ATOM     15  C   UNL     1       2.929  -3.870   0.671  0.00  0.00    +0.000 A 
ATOM     16  C   UNL     1       2.564  -2.555   0.452  0.00  0.00    +0.002 A 
ATOM     17  C   UNL     1       1.341  -2.264  -0.125  0.00  0.00    -0.061 A 
ENDBRANCH  10  17
ENDBRANCH   8  10
BRANCH   6  18
ATOM     18  C   UNL     1       1.075   1.957   0.561  0.00  0.00    +0.089 C 
BRANCH  18  19
ATOM     19  C   UNL     1       1.876   1.791   1.827  0.00  0.00    +0.213 C 
ATOM     20  O   UNL     1       1.546   0.964   2.650  0.00  0.00    -0.276 OA
ATOM     21  N   UNL     1       2.960   2.562   2.044  0.00  0.00    -0.306 N 
ATOM     22  H   UNL     1       3.185   3.270   1.420  0.00  0.00    +0.150 HD
BRANCH  21  23
ATOM     23  C   UNL     1       3.799   2.331   3.222  0.00  0.00    +0.060 C 
ATOM     24  C   UNL     1       5.294   2.634   3.096  0.00  0.00    +0.033 C 
ATOM     25  C   UNL     1       4.809   1.183   3.156  0.00  0.00    +0.033 C 
BRANCH  23  26
ATOM     26  C   UNL     1       3.144   2.606   4.551  0.00  0.00    -0.024 A 
ATOM     27  C   UNL     1       3.772   2.228   5.723  0.00  0.00    +0.006 A 
ATOM     28  C   UNL     1       3.173   2.484   6.942  0.00  0.00    +0.000 A 
ATOM     29  C   UNL     1       1.940   3.108   6.989  0.00  0.00    +0.000 A 
ATOM     30  C   UNL     1       1.310   3.481   5.817  0.00  0.00    +0.000 A 
ATOM     31  C   UNL     1       1.911   3.230   4.598  0.00  0.00    +0.006 A 
ENDBRANCH  23  26
ENDBRANCH  21  23
ENDBRANCH  18  19
ENDBRANCH   6  18
TORSDOF 6
