REMARK  Name = ZINC19715374
REMARK  8 active torsions:
REMARK  status: ('A' for Active; 'I' for Inactive)
REMARK    1  A    between atoms: C_1  and  C_2
REMARK    2  A    between atoms: C_7  and  C_8
REMARK    3  A    between atoms: C_10  and  C_13
REMARK    4  A    between atoms: C_13  and  C_14
REMARK    5  A    between atoms: C_14  and  N_15
REMARK    6  A    between atoms: C_16  and  C_18
REMARK    7  A    between atoms: C_18  and  N_19
REMARK    8  A    between atoms: C_25  and  C_28
REMARK                            x       y       z     vdW  Elec       q    Type
REMARK                         _______ _______ _______ _____ _____    ______ ____
ROOT
ATOM      1  N   UNL     1       3.881  -5.554   1.117  0.00  0.00    -0.314 N 
ATOM      2  C   UNL     1       3.644  -6.477   2.070  0.00  0.00    +0.231 C 
ATOM      3  O   UNL     1       2.828  -6.254   2.939  0.00  0.00    -0.274 OA
ATOM      4  H   UNL     1       4.622  -5.755   0.328  0.00  0.00    +0.149 HD
ENDROOT
BRANCH   1   5
ATOM      5  C   UNL     1       3.153  -4.283   1.130  0.00  0.00    +0.112 C 
BRANCH   5   6
ATOM      6  C   UNL     1       3.607  -3.423  -0.051  0.00  0.00    +0.093 C 
BRANCH   6  16
ATOM      7  C   UNL     1       1.123   3.592   0.011  0.00  0.00    +0.044 C 
ATOM      8  C   UNL     1       1.167   2.086   0.002  0.00  0.00    -0.045 A 
ATOM      9  C   UNL     1       2.383   1.437  -0.013  0.00  0.00    +0.031 A 
ATOM     10  C   UNL     1       2.422   0.049  -0.021  0.00  0.00    +0.066 A 
ATOM     11  C   UNL     1       1.223  -0.684  -0.013  0.00  0.00    +0.089 A 
ATOM     12  C   UNL     1       0.002  -0.004   0.002  0.00  0.00    +0.033 A 
ATOM     13  C   UNL     1      -0.017   1.362   0.009  0.00  0.00    -0.045 A 
ATOM     14  C   UNL     1      -1.336   2.090   0.020  0.00  0.00    +0.044 C 
ATOM     15  N   UNL     1       1.562  -1.998  -0.024  0.00  0.00    -0.232 NA
ATOM     16  C   UNL     1       2.858  -2.115  -0.037  0.00  0.00    +0.110 A 
ATOM     17  N   UNL     1       3.439  -0.885  -0.036  0.00  0.00    -0.342 N 
ATOM     18  H   UNL     1       4.488  -0.555  -0.044  0.00  0.00    +0.167 HD
ENDBRANCH   6  16
ENDBRANCH   5   6
ENDBRANCH   1   5
BRANCH   2  19
ATOM     19  C   UNL     1       4.393  -7.784   2.056  0.00  0.00    +0.213 C 
BRANCH  19  20
ATOM     20  N   UNL     1       3.958  -8.608   3.187  0.00  0.00    -0.215 N 
ATOM     21  C   UNL     1       2.934  -9.485   3.137  0.00  0.00    +0.247 C 
ATOM     22  O   UNL     1       2.226  -9.733   2.185  0.00  0.00    -0.273 OA
ATOM     23  C   UNL     1       2.857 -10.094   4.518  0.00  0.00    +0.113 C 
ATOM     24  C   UNL     1       3.094 -11.599   4.449  0.00  0.00    +0.035 C 
ATOM     25  C   UNL     1       3.040 -12.193   5.859  0.00  0.00    +0.006 C 
ATOM     26  C   UNL     1       1.672 -11.902   6.481  0.00  0.00    -0.014 C 
ATOM     27  C   UNL     1       1.460 -10.389   6.566  0.00  0.00    +0.006 C 
ATOM     28  C   UNL     1       1.508  -9.789   5.159  0.00  0.00    +0.035 C 
ATOM     29  C   UNL     1       1.613 -12.505   7.886  0.00  0.00    +0.007 C 
ATOM     30  N   UNL     1       3.941  -9.436   5.259  0.00  0.00    -0.285 N 
ATOM     31  C   UNL     1       4.532  -8.588   4.397  0.00  0.00    +0.310 C 
ATOM     32  O   UNL     1       5.477  -7.881   4.685  0.00  0.00    -0.252 OA
ATOM     33  H   UNL     1       4.118  -9.690   6.315  0.00  0.00    +0.151 HD
ENDBRANCH  19  20
ENDBRANCH   2  19
TORSDOF 5
