REMARK  Name = ZINC39633236
REMARK  9 active torsions:
REMARK  status: ('A' for Active; 'I' for Inactive)
REMARK    1  A    between atoms: C_1  and  C_2
REMARK    2  A    between atoms: C_2  and  C_3
REMARK    3  A    between atoms: C_2  and  C_4
REMARK    4  A    between atoms: C_4  and  C_6
REMARK    5  A    between atoms: C_4  and  O_29
REMARK    6  A    between atoms: C_10  and  C_19
REMARK    7  A    between atoms: N_21  and  C_22
REMARK    8  A    between atoms: C_22  and  C_23
REMARK    9  A    between atoms: O_29  and  C_30
REMARK                            x       y       z     vdW  Elec       q    Type
REMARK                         _______ _______ _______ _____ _____    ______ ____
ROOT
ATOM      1  C   UNL     1      -2.012  -0.054  -1.132  0.00  0.00    +0.257 C 
ATOM      2  O   UNL     1      -2.987   0.655  -1.002  0.00  0.00    -0.272 OA
ATOM      3  N   UNL     1      -1.669  -0.512  -2.352  0.00  0.00    -0.297 N 
ATOM      4  C   UNL     1      -0.527  -1.387  -2.706  0.00  0.00    +0.121 C 
ATOM      5  C   UNL     1      -1.089  -2.348  -3.777  0.00  0.00    +0.100 C 
ATOM      6  C   UNL     1      -2.282  -1.597  -4.391  0.00  0.00    -0.004 C 
ATOM      7  C   UNL     1      -2.352  -0.258  -3.643  0.00  0.00    +0.115 C 
ATOM      8  C   UNL     1      -2.050  -1.361  -5.880  0.00  0.00    -0.010 C 
ATOM      9  C   UNL     1      -3.275  -0.665  -6.479  0.00  0.00    -0.082 C 
ATOM     10  N   UNL     1      -4.464  -1.502  -6.276  0.00  0.00    +0.379 N 
ATOM     11  C   UNL     1      -4.734  -1.647  -4.840  0.00  0.00    -0.082 C 
ATOM     12  C   UNL     1      -3.571  -2.385  -4.172  0.00  0.00    -0.010 C 
ATOM     13  H   UNL     1      -5.258  -1.071  -6.724  0.00  0.00    -0.086 HD
ATOM     14  H   UNL     1      -4.306  -2.413  -6.681  0.00  0.00    -0.086 HD
ENDROOT
BRANCH   5  15
ATOM     15  C   UNL     1      -0.046  -2.629  -4.829  0.00  0.00    +0.219 C 
ATOM     16  O   UNL     1       0.833  -1.821  -5.043  0.00  0.00    -0.275 OA
ATOM     17  N   UNL     1      -0.091  -3.778  -5.532  0.00  0.00    -0.309 N 
ATOM     18  H   UNL     1      -0.794  -4.424  -5.361  0.00  0.00    +0.149 HD
BRANCH  17  19
ATOM     19  C   UNL     1       0.923  -4.051  -6.554  0.00  0.00    +0.159 C 
BRANCH  19  20
ATOM     20  C   UNL     1       0.649  -5.390  -7.188  0.00  0.00    +0.058 A 
ATOM     21  C   UNL     1      -0.075  -5.454  -8.364  0.00  0.00    +0.025 A 
ATOM     22  C   UNL     1      -0.322  -6.691  -8.939  0.00  0.00    +0.003 A 
ATOM     23  C   UNL     1       0.171  -7.823  -8.307  0.00  0.00    +0.020 A 
ATOM     24  C   UNL     1       0.886  -7.681  -7.133  0.00  0.00    +0.111 A 
ATOM     25  N   UNL     1       1.107  -6.487  -6.618  0.00  0.00    -0.258 NA
ENDBRANCH  19  20
ENDBRANCH  17  19
ENDBRANCH   5  15
BRANCH   1  26
ATOM     26  C   UNL     1      -1.185  -0.425   0.072  0.00  0.00    +0.261 C 
BRANCH  26  28
ATOM     27  C   UNL     1       0.112   1.708  -0.031  0.00  0.00    +0.011 C 
ATOM     28  C   UNL     1       0.213   0.182  -0.064  0.00  0.00    +0.033 C 
ATOM     29  C   UNL     1       1.091  -0.296   1.095  0.00  0.00    +0.011 C 
ENDBRANCH  26  28
BRANCH  26  30
ATOM     30  O   UNL     1      -1.810   0.079   1.254  0.00  0.00    -0.479 OA
BRANCH  30  31
ATOM     31  C   UNL     1      -1.779  -0.716   2.356  0.00  0.00    +0.122 A 
ATOM     32  C   UNL     1      -2.470  -0.345   3.500  0.00  0.00    +0.045 A 
ATOM     33  C   UNL     1      -2.437  -1.155   4.618  0.00  0.00    +0.004 A 
ATOM     34  C   UNL     1      -1.714  -2.333   4.599  0.00  0.00    +0.000 A 
ATOM     35  C   UNL     1      -1.024  -2.705   3.460  0.00  0.00    +0.004 A 
ATOM     36  C   UNL     1      -1.059  -1.902   2.336  0.00  0.00    +0.045 A 
ENDBRANCH  30  31
ENDBRANCH  26  30
ENDBRANCH   1  26
TORSDOF 7
