REMARK  Name = ZINC41486250
REMARK  2 active torsions:
REMARK  status: ('A' for Active; 'I' for Inactive)
REMARK    1  A    between atoms: N_9  and  S_11
REMARK    2  A    between atoms: S_11  and  C_14
REMARK                            x       y       z     vdW  Elec       q    Type
REMARK                         _______ _______ _______ _____ _____    ______ ____
ROOT
ATOM      1  S   UNL     1       4.579  -2.915   1.237  0.00  0.00    +0.087 S 
ATOM      2  O   UNL     1       5.120  -1.940   2.118  0.00  0.00    -0.151 OA
ATOM      3  O   UNL     1       3.862  -4.049   1.704  0.00  0.00    -0.151 OA
ENDROOT
BRANCH   1  12
ATOM      4  C   UNL     1      -0.017   1.375   0.010  0.00  0.00    +0.000 A 
ATOM      5  C   UNL     1       1.173   2.079   0.002  0.00  0.00    +0.000 A 
ATOM      6  C   UNL     1       2.372   1.396  -0.019  0.00  0.00    +0.005 A 
ATOM      7  C   UNL     1       2.392   0.008  -0.029  0.00  0.00    -0.028 A 
ATOM      8  C   UNL     1       1.208  -0.695  -0.011  0.00  0.00    -0.042 A 
ATOM      9  C   UNL     1       0.002  -0.004   0.002  0.00  0.00    +0.004 A 
ATOM     10  C   UNL     1       1.151  -2.200   0.010  0.00  0.00    +0.052 C 
ATOM     11  C   UNL     1       2.465  -2.801  -0.485  0.00  0.00    +0.114 C 
ATOM     12  N   UNL     1       3.568  -2.109   0.202  0.00  0.00    -0.170 NA
ATOM     13  C   UNL     1       3.735  -0.676  -0.066  0.00  0.00    +0.144 C 
ENDBRANCH   1  12
BRANCH   1  14
ATOM     14  C   UNL     1       5.924  -3.529   0.278  0.00  0.00    +0.256 A 
ATOM     15  N   UNL     1       6.166  -3.413  -1.012  0.00  0.00    -0.119 NA
ATOM     16  N   UNL     1       7.188  -3.918  -1.551  0.00  0.00    -0.125 NA
ATOM     17  C   UNL     1       8.085  -4.599  -0.850  0.00  0.00    +0.181 A 
ATOM     18  S   UNL     1       7.354  -4.481   0.780  0.00  0.00    -0.011 S 
ATOM     19  N   UNL     1       9.256  -5.219  -1.261  0.00  0.00    -0.336 N 
ATOM     20  H   UNL     1       9.519  -5.188  -2.194  0.00  0.00    +0.144 HD
ATOM     21  H   UNL     1       9.811  -5.683  -0.615  0.00  0.00    +0.144 HD
ENDBRANCH   1  14
TORSDOF 2
