REMARK  Name = ZINC03299497
REMARK  7 active torsions:
REMARK  status: ('A' for Active; 'I' for Inactive)
REMARK    1  A    between atoms: C_1  and  O_2
REMARK    2  A    between atoms: O_2  and  C_3
REMARK    3  A    between atoms: C_8  and  N_9
REMARK    4  A    between atoms: C_10  and  C_12
REMARK    5  A    between atoms: C_14  and  C_22
REMARK    6  A    between atoms: C_27  and  O_28
REMARK    7  A    between atoms: O_28  and  C_29
REMARK                            x       y       z     vdW  Elec       q    Type
REMARK                         _______ _______ _______ _____ _____    ______ ____
ROOT
ATOM      1  C   UNL     1       1.147  -4.923   0.181  0.00  0.00    +0.144 C 
ATOM      2  C   UNL     1       0.818  -6.420   0.255  0.00  0.00    +0.126 C 
ATOM      3  N   UNL     1       0.305  -6.870  -1.038  0.00  0.00    -0.291 N 
ATOM      4  C   UNL     1       0.696  -6.324  -2.197  0.00  0.00    +0.304 C 
ATOM      5  O   UNL     1       0.280  -6.797  -3.237  0.00  0.00    -0.253 OA
ATOM      6  N   UNL     1       1.531  -5.270  -2.252  0.00  0.00    -0.273 N 
ATOM      7  C   UNL     1       1.991  -4.700  -1.058  0.00  0.00    +0.019 C 
ATOM      8  C   UNL     1       3.108  -3.999  -1.013  0.00  0.00    +0.029 C 
ATOM      9  H   UNL     1      -0.343  -7.592  -1.057  0.00  0.00    +0.151 HD
ATOM     10  H   UNL     1       1.813  -4.911  -3.108  0.00  0.00    +0.156 HD
ENDROOT
BRANCH   2  11
ATOM     11  C   UNL     1       2.066  -7.192   0.597  0.00  0.00    +0.017 A 
ATOM     12  C   UNL     1       2.836  -7.742  -0.409  0.00  0.00    +0.024 A 
ATOM     13  C   UNL     1       3.982  -8.451  -0.096  0.00  0.00    +0.018 A 
ATOM     14  C   UNL     1       4.359  -8.610   1.226  0.00  0.00    +0.019 A 
ATOM     15  C   UNL     1       3.593  -8.061   2.235  0.00  0.00    +0.047 A 
ATOM     16  C   UNL     1       2.446  -7.345   1.923  0.00  0.00    +0.125 A 
ATOM     17 BR   UNL     1       5.033  -9.204  -1.476  0.00  0.00    -0.050 Br
BRANCH  16  18
ATOM     18  O   UNL     1       1.693  -6.800   2.914  0.00  0.00    -0.495 OA
ATOM     19  C   UNL     1       2.144  -6.998   4.255  0.00  0.00    +0.277 C 
ENDBRANCH  16  18
ENDBRANCH   2  11
BRANCH   1  21
ATOM     20  N   UNL     1      -0.074  -2.780  -0.012  0.00  0.00    -0.282 N 
ATOM     21  C   UNL     1      -0.127  -4.124   0.083  0.00  0.00    +0.228 C 
ATOM     22  O   UNL     1      -1.200  -4.689   0.090  0.00  0.00    -0.275 OA
ATOM     23  H   UNL     1       0.783  -2.334  -0.098  0.00  0.00    +0.155 HD
BRANCH  20  29
ATOM     24  C   UNL     1      -1.294  -0.766  -0.572  0.00  0.00    +0.141 A 
ATOM     25  C   UNL     1      -2.468  -0.030  -0.548  0.00  0.00    +0.047 A 
ATOM     26  C   UNL     1      -3.596  -0.546   0.062  0.00  0.00    +0.004 A 
ATOM     27  C   UNL     1      -3.557  -1.798   0.649  0.00  0.00    +0.002 A 
ATOM     28  C   UNL     1      -2.391  -2.538   0.629  0.00  0.00    +0.027 A 
ATOM     29  C   UNL     1      -1.256  -2.029   0.014  0.00  0.00    +0.076 A 
BRANCH  24  31
ATOM     30  C   UNL     1      -0.297   1.042  -1.753  0.00  0.00    +0.277 C 
ATOM     31  O   UNL     1      -0.184  -0.259  -1.172  0.00  0.00    -0.493 OA
ENDBRANCH  24  31
ENDBRANCH  20  29
ENDBRANCH   1  21
TORSDOF 5
