REMARK  Name = ZINC25079373
REMARK  12 active torsions:
REMARK  status: ('A' for Active; 'I' for Inactive)
REMARK    1  A    between atoms: C_1  and  C_2
REMARK    2  A    between atoms: C_5  and  C_7
REMARK    3  A    between atoms: C_8  and  C_9
REMARK    4  A    between atoms: C_11  and  S_14
REMARK    5  A    between atoms: S_14  and  C_15
REMARK    6  A    between atoms: C_15  and  C_16
REMARK    7  A    between atoms: C_16  and  C_18
REMARK    8  A    between atoms: C_19  and  N_31
REMARK    9  A    between atoms: N_20  and  C_27
REMARK   10  A    between atoms: C_27  and  C_28
REMARK   11  A    between atoms: C_28  and  C_29
REMARK   12  A    between atoms: C_28  and  C_30
REMARK                            x       y       z     vdW  Elec       q    Type
REMARK                         _______ _______ _______ _____ _____    ______ ____
ROOT
ATOM      1  C   UNL     1     -11.968   4.271   4.226  0.00  0.00    +0.182 C 
ATOM      2  O   UNL     1     -12.582   4.046   3.203  0.00  0.00    -0.291 OA
ENDROOT
BRANCH   1   3
ATOM      3  C   UNL     1     -12.652   4.725   5.374  0.00  0.00    +0.120 A 
ATOM      4  C   UNL     1     -14.021   5.038   5.326  0.00  0.00    +0.116 A 
ATOM      5  N   UNL     1     -14.640   5.468   6.465  0.00  0.00    -0.281 N 
ATOM      6  C   UNL     1     -13.965   5.606   7.617  0.00  0.00    +0.331 A 
ATOM      7  O   UNL     1     -14.561   5.997   8.602  0.00  0.00    -0.246 OA
ATOM      8  N   UNL     1     -12.656   5.327   7.722  0.00  0.00    -0.274 N 
ATOM      9  H   UNL     1     -12.142   5.454   8.686  0.00  0.00    +0.173 HD
ATOM     10  C   UNL     1     -11.954   4.890   6.656  0.00  0.00    +0.266 A 
ATOM     11  O   UNL     1     -10.767   4.638   6.754  0.00  0.00    -0.267 OA
BRANCH   4  12
ATOM     12  N   UNL     1     -14.720   4.911   4.166  0.00  0.00    -0.344 N 
ATOM     13  H   UNL     1     -15.791   5.159   4.138  0.00  0.00    +0.144 HD
ATOM     14  H   UNL     1     -14.213   4.559   3.255  0.00  0.00    +0.144 HD
ENDBRANCH   4  12
BRANCH   5  15
ATOM     15  C   UNL     1     -16.069   5.792   6.427  0.00  0.00    +0.131 C 
BRANCH  15  16
ATOM     16  C   UNL     1     -16.247   7.268   6.065  0.00  0.00    +0.003 C 
ATOM     17  C   UNL     1     -15.740   7.509   4.642  0.00  0.00    +0.009 C 
ATOM     18  C   UNL     1     -17.730   7.637   6.147  0.00  0.00    +0.009 C 
ENDBRANCH  15  16
ENDBRANCH   5  15
ENDBRANCH   1   3
BRANCH   1  19
ATOM     19  C   UNL     1     -10.476   4.065   4.269  0.00  0.00    +0.157 C 
BRANCH  19  20
ATOM     20  S   UNL     1      -9.899   3.484   2.655  0.00  0.00    -0.076 S 
BRANCH  20  23
ATOM     21  C   UNL     1      -6.027   2.959   2.798  0.00  0.00    +0.150 A 
ATOM     22  N   UNL     1      -7.215   2.925   2.099  0.00  0.00    -0.202 NA
ATOM     23  C   UNL     1      -8.175   3.332   2.983  0.00  0.00    +0.209 A 
ATOM     24  N   UNL     1      -7.572   3.594   4.121  0.00  0.00    -0.145 NA
ATOM     25  N   UNL     1      -6.310   3.376   4.015  0.00  0.00    -0.258 N 
ATOM     26  H   UNL     1      -5.507   3.487   4.759  0.00  0.00    +0.191 HD
BRANCH  21  28
ATOM     27  C   UNL     1      -3.620   2.695   3.087  0.00  0.00    +0.050 C 
ATOM     28  C   UNL     1      -4.703   2.606   2.284  0.00  0.00    +0.051 C 
BRANCH  27  33
ATOM     29  C   UNL     1       0.006   1.204  -0.027  0.00  0.00    +0.086 C 
ATOM     30  C   UNL     1      -0.700   1.688   1.214  0.00  0.00    +0.103 A 
ATOM     31  C   UNL     1      -0.110   1.966   2.395  0.00  0.00    +0.045 A 
ATOM     32  C   UNL     1      -1.124   2.386   3.275  0.00  0.00    +0.049 A 
ATOM     33  C   UNL     1      -2.296   2.342   2.573  0.00  0.00    +0.128 A 
ATOM     34  O   UNL     1      -2.018   1.922   1.323  0.00  0.00    -0.461 OA
ENDBRANCH  27  33
ENDBRANCH  21  28
ENDBRANCH  20  23
ENDBRANCH  19  20
ENDBRANCH   1  19
TORSDOF 9
