REMARK  Name = ZINC66068050
REMARK  6 active torsions:
REMARK  status: ('A' for Active; 'I' for Inactive)
REMARK    1  A    between atoms: C_1  and  C_2
REMARK    2  A    between atoms: C_5  and  C_11
REMARK    3  A    between atoms: C_7  and  N_8
REMARK    4  A    between atoms: C_11  and  N_12
REMARK    5  A    between atoms: N_12  and  C_13
REMARK    6  A    between atoms: C_13  and  C_14
REMARK                            x       y       z     vdW  Elec       q    Type
REMARK                         _______ _______ _______ _____ _____    ______ ____
ROOT
ATOM      1  N   UNL     1       2.004  -4.430  -0.384  0.00  0.00    -0.306 NA
ATOM      2  H   UNL     1       2.275  -3.966  -1.238  0.00  0.00    +0.123 HD
ENDROOT
BRANCH   1   3
ATOM      3  C   UNL     1       0.578  -4.220  -0.099  0.00  0.00    +0.116 C 
BRANCH   3   8
ATOM      4  C   UNL     1      -0.537   1.447   0.088  0.00  0.00    +0.046 C 
ATOM      5  C   UNL     1      -0.246  -0.031   0.039  0.00  0.00    -0.020 A 
ATOM      6  C   UNL     1      -0.347  -0.716  -1.157  0.00  0.00    +0.006 A 
ATOM      7  C   UNL     1      -0.080  -2.071  -1.202  0.00  0.00    +0.005 A 
ATOM      8  C   UNL     1       0.288  -2.742  -0.051  0.00  0.00    -0.031 A 
ATOM      9  C   UNL     1       0.390  -2.057   1.145  0.00  0.00    +0.038 A 
ATOM     10  C   UNL     1       0.127  -0.700   1.190  0.00  0.00    +0.129 A 
BRANCH  10  11
ATOM     11  N   UNL     1       0.241   0.035   2.470  0.00  0.00    +0.057 N 
ATOM     12  O   UNL     1       0.674   1.163   2.482  0.00  0.00    -0.126 OA
ATOM     13  O   UNL     1      -0.099  -0.494   3.502  0.00  0.00    -0.126 OA
ENDBRANCH  10  11
ENDBRANCH   3   8
ENDBRANCH   1   3
BRANCH   1  14
ATOM     14  C   UNL     1       2.324  -5.863  -0.439  0.00  0.00    +0.144 C 
BRANCH  14  15
ATOM     15  C   UNL     1       3.792  -6.038  -0.732  0.00  0.00    +0.093 A 
ATOM     16  N   UNL     1       4.770  -6.131   0.121  0.00  0.00    -0.243 NA
ATOM     17  C   UNL     1       6.051  -6.288  -0.269  0.00  0.00    +0.079 A 
ATOM     18  C   UNL     1       7.225  -6.405   0.504  0.00  0.00    +0.029 A 
ATOM     19  C   UNL     1       8.437  -6.558  -0.096  0.00  0.00    +0.002 A 
ATOM     20  C   UNL     1       8.564  -6.606  -1.477  0.00  0.00    +0.001 A 
ATOM     21  C   UNL     1       7.436  -6.495  -2.269  0.00  0.00    +0.017 A 
ATOM     22  C   UNL     1       6.208  -6.340  -1.673  0.00  0.00    +0.039 A 
ATOM     23  S   UNL     1       4.535  -6.167  -2.236  0.00  0.00    -0.071 S 
ENDBRANCH  14  15
ENDBRANCH   1  14
TORSDOF 5
