REMARK  Name = ZINC63547566
REMARK  8 active torsions:
REMARK  status: ('A' for Active; 'I' for Inactive)
REMARK    1  A    between atoms: C_1  and  C_2
REMARK    2  A    between atoms: C_8  and  C_11
REMARK    3  A    between atoms: C_11  and  C_12
REMARK    4  A    between atoms: C_12  and  N_13
REMARK    5  A    between atoms: N_13  and  S_14
REMARK    6  A    between atoms: S_14  and  C_17
REMARK    7  A    between atoms: C_19  and  C_24
REMARK    8  A    between atoms: C_22  and  C_23
REMARK                            x       y       z     vdW  Elec       q    Type
REMARK                         _______ _______ _______ _____ _____    ______ ____
ROOT
ATOM      1  C   UNL     1      -1.273  -3.062   4.356  0.00  0.00    +0.110 C 
ENDROOT
BRANCH   1   2
ATOM      2  N   UNL     1      -1.339  -2.617   5.750  0.00  0.00    -0.190 NA
ATOM      3  H   UNL     1      -0.540  -2.626   6.300  0.00  0.00    +0.148 HD
BRANCH   2   4
ATOM      4  S   UNL     1      -2.777  -2.100   6.387  0.00  0.00    +0.059 S 
ATOM      5  O   UNL     1      -2.529  -1.788   7.751  0.00  0.00    -0.153 OA
ATOM      6  O   UNL     1      -3.309  -1.151   5.473  0.00  0.00    -0.153 OA
BRANCH   4   7
ATOM      7  C   UNL     1      -3.876  -3.478   6.379  0.00  0.00    +0.108 A 
ATOM      8  C   UNL     1      -5.009  -3.453   5.587  0.00  0.00    +0.032 A 
ATOM      9  C   UNL     1      -5.871  -4.534   5.580  0.00  0.00    -0.049 A 
ATOM     10  C   UNL     1      -5.600  -5.639   6.365  0.00  0.00    +0.004 A 
ATOM     11  C   UNL     1      -4.467  -5.664   7.156  0.00  0.00    +0.005 A 
ATOM     12  C   UNL     1      -3.602  -4.585   7.160  0.00  0.00    -0.024 A 
ATOM     13  C   UNL     1      -2.364  -4.614   8.018  0.00  0.00    +0.046 C 
ATOM     14  C   UNL     1      -7.107  -4.507   4.718  0.00  0.00    +0.044 C 
ENDBRANCH   4   7
ENDBRANCH   2   4
ENDBRANCH   1   2
BRANCH   1  15
ATOM     15  C   UNL     1       0.188  -3.112   3.905  0.00  0.00    +0.050 C 
BRANCH  15  23
ATOM     16  C   UNL     1       0.438   0.665  -0.262  0.00  0.00    +0.044 C 
ATOM     17  C   UNL     1       0.412  -0.830  -0.069  0.00  0.00    -0.050 A 
ATOM     18  C   UNL     1       0.460  -1.664  -1.195  0.00  0.00    +0.005 A 
ATOM     19  C   UNL     1       0.441  -3.010  -1.105  0.00  0.00    +0.026 A 
ATOM     20  C   UNL     1       0.371  -3.646   0.165  0.00  0.00    +0.043 A 
ATOM     21  N   UNL     1       0.339  -4.911   0.508  0.00  0.00    -0.380 N 
ATOM     22  C   UNL     1       0.265  -4.997   1.971  0.00  0.00    +0.144 C 
ATOM     23  C   UNL     1       0.256  -3.570   2.471  0.00  0.00    -0.040 C 
ATOM     24  C   UNL     1       0.320  -2.787   1.370  0.00  0.00    -0.001 A 
ATOM     25  C   UNL     1       0.350  -1.331   1.185  0.00  0.00    +0.013 A 
ATOM     26  H   UNL     1       0.361  -5.664  -0.103  0.00  0.00    +0.160 HD
ENDBRANCH  15  23
ENDBRANCH   1  15
TORSDOF 5
