REMARK  Name = ZINC54163063
REMARK  7 active torsions:
REMARK  status: ('A' for Active; 'I' for Inactive)
REMARK    1  A    between atoms: C_1  and  C_2
REMARK    2  A    between atoms: C_2  and  C_3
REMARK    3  A    between atoms: C_3  and  C_5
REMARK    4  A    between atoms: C_3  and  N_10
REMARK    5  A    between atoms: C_5  and  C_6
REMARK    6  A    between atoms: N_7  and  O_8
REMARK    7  A    between atoms: C_11  and  C_13
REMARK                            x       y       z     vdW  Elec       q    Type
REMARK                         _______ _______ _______ _____ _____    ______ ____
ROOT
ATOM      1  C   UNL     1      -1.433  -0.534   0.013  0.00  0.00    +0.080 C 
ENDROOT
BRANCH   1   2
ATOM      2  N   UNL     1      -2.082  -0.162   1.273  0.00  0.00    -0.310 N 
ATOM      3  C   UNL     1      -2.664   1.047   1.400  0.00  0.00    +0.242 C 
ATOM      4  O   UNL     1      -2.651   1.827   0.471  0.00  0.00    -0.273 OA
ATOM      5  H   UNL     1      -2.092  -0.785   2.016  0.00  0.00    +0.149 HD
BRANCH   3   6
ATOM      6  C   UNL     1      -3.330   1.430   2.696  0.00  0.00    +0.204 C 
ATOM      7  C   UNL     1      -2.279   1.516   3.805  0.00  0.00    +0.041 C 
ATOM      8  C   UNL     1      -2.954   1.963   5.105  0.00  0.00    +0.005 C 
ATOM      9  C   UNL     1      -3.659   3.302   4.867  0.00  0.00    +0.028 C 
ATOM     10  C   UNL     1      -4.657   3.147   3.717  0.00  0.00    +0.161 C 
ATOM     11  O   UNL     1      -3.969   2.699   2.547  0.00  0.00    -0.367 OA
ENDBRANCH   3   6
ENDBRANCH   1   2
BRANCH   1  13
ATOM     12  C   UNL     1      -0.019   1.526   0.010  0.00  0.00    +0.006 C 
ATOM     13  C   UNL     1       0.002  -0.004   0.002  0.00  0.00    +0.019 C 
ENDBRANCH   1  13
BRANCH   1  14
ATOM     14  C   UNL     1      -1.416  -2.058  -0.121  0.00  0.00    +0.096 C 
BRANCH  14  15
ATOM     15  C   UNL     1      -2.829  -2.568  -0.234  0.00  0.00    +0.133 C 
ATOM     16  N   UNL     1      -3.819  -1.739  -0.208  0.00  0.00    -0.077 NA
ATOM     17  N   UNL     1      -3.065  -3.919  -0.365  0.00  0.00    -0.344 N 
ATOM     18  H   UNL     1      -2.321  -4.542  -0.384  0.00  0.00    +0.144 HD
ATOM     19  H   UNL     1      -3.974  -4.248  -0.437  0.00  0.00    +0.144 HD
BRANCH  16  20
ATOM     20  O   UNL     1      -5.147  -2.219  -0.314  0.00  0.00    -0.408 OA
ATOM     21  H   UNL     1      -5.820  -1.525  -0.285  0.00  0.00    +0.328 HD
ENDBRANCH  16  20
ENDBRANCH  14  15
ENDBRANCH   1  14
TORSDOF 6
