REMARK  Name = ZINC61632408
REMARK  8 active torsions:
REMARK  status: ('A' for Active; 'I' for Inactive)
REMARK    1  A    between atoms: C_4  and  C_7
REMARK    2  A    between atoms: C_7  and  C_8
REMARK    3  A    between atoms: C_7  and  N_11
REMARK    4  A    between atoms: N_14  and  C_15
REMARK    5  A    between atoms: C_15  and  C_16
REMARK    6  A    between atoms: C_20  and  O_22
REMARK    7  A    between atoms: O_22  and  C_23
REMARK    8  A    between atoms: C_23  and  C_24
REMARK                            x       y       z     vdW  Elec       q    Type
REMARK                         _______ _______ _______ _____ _____    ______ ____
ROOT
ATOM      1  N   UNL     1       3.611  -1.865  -0.930  0.00  0.00    -0.284 N 
ATOM      2  C   UNL     1       4.721  -2.370  -1.504  0.00  0.00    +0.301 C 
ATOM      3  O   UNL     1       5.805  -1.866  -1.281  0.00  0.00    -0.253 OA
ATOM      4  N   UNL     1       4.629  -3.435  -2.325  0.00  0.00    -0.295 N 
ATOM      5  H   UNL     1       2.747  -2.267  -1.108  0.00  0.00    +0.151 HD
ATOM      6  H   UNL     1       3.765  -3.837  -2.503  0.00  0.00    +0.151 HD
ENDROOT
BRANCH   1   7
ATOM      7  C   UNL     1       3.711  -0.707  -0.038  0.00  0.00    +0.190 C 
BRANCH   7  11
ATOM      8  C   UNL     1      -0.017   1.378   0.010  0.00  0.00    +0.000 A 
ATOM      9  C   UNL     1       1.171   2.086   0.002  0.00  0.00    +0.000 A 
ATOM     10  C   UNL     1       2.377   1.411  -0.013  0.00  0.00    +0.006 A 
ATOM     11  C   UNL     1       2.396   0.029  -0.020  0.00  0.00    -0.018 A 
ATOM     12  C   UNL     1       1.208  -0.679  -0.012  0.00  0.00    +0.006 A 
ATOM     13  C   UNL     1       0.002  -0.004   0.002  0.00  0.00    +0.000 A 
ENDBRANCH   7  11
BRANCH   7  14
ATOM     14  C   UNL     1       4.044  -1.175   1.356  0.00  0.00    +0.235 C 
ATOM     15  O   UNL     1       4.184  -2.358   1.581  0.00  0.00    -0.274 OA
ATOM     16  N   UNL     1       4.186  -0.278   2.352  0.00  0.00    -0.328 N 
ATOM     17  H   UNL     1       4.074   0.669   2.172  0.00  0.00    +0.145 HD
ATOM     18  H   UNL     1       4.400  -0.579   3.249  0.00  0.00    +0.145 HD
ENDBRANCH   7  14
ENDBRANCH   1   7
BRANCH   4  19
ATOM     19  C   UNL     1       5.835  -3.985  -2.949  0.00  0.00    +0.141 C 
BRANCH  19  20
ATOM     20  C   UNL     1       5.462  -5.162  -3.813  0.00  0.00    -0.024 A 
ATOM     21  C   UNL     1       5.429  -6.447  -3.288  0.00  0.00    +0.025 A 
ATOM     22  C   UNL     1       5.082  -7.503  -4.107  0.00  0.00    +0.115 A 
ATOM     23  N   UNL     1       4.784  -7.304  -5.377  0.00  0.00    -0.221 NA
ATOM     24  C   UNL     1       4.805  -6.095  -5.914  0.00  0.00    +0.215 A 
ATOM     25  C   UNL     1       5.139  -4.986  -5.147  0.00  0.00    +0.072 A 
BRANCH  24  26
ATOM     26  O   UNL     1       4.492  -5.937  -7.224  0.00  0.00    -0.467 OA
BRANCH  26  27
ATOM     27  C   UNL     1       4.151  -7.116  -7.957  0.00  0.00    +0.343 C 
BRANCH  27  28
ATOM     28  C   UNL     1       3.831  -6.741  -9.405  0.00  0.00    +0.424 C 
ATOM     29  F   UNL     1       4.949  -6.136  -9.989  0.00  0.00    -0.167 F 
ATOM     30  F   UNL     1       3.498  -7.895 -10.123  0.00  0.00    -0.167 F 
ATOM     31  F   UNL     1       2.753  -5.850  -9.429  0.00  0.00    -0.167 F 
ENDBRANCH  27  28
ENDBRANCH  26  27
ENDBRANCH  24  26
ENDBRANCH  19  20
ENDBRANCH   4  19
TORSDOF 8
