REMARK  Name = ZINC66134657
REMARK  8 active torsions:
REMARK  status: ('A' for Active; 'I' for Inactive)
REMARK    1  A    between atoms: C_1  and  C_2
REMARK    2  A    between atoms: C_2  and  C_3
REMARK    3  A    between atoms: C_3  and  C_5
REMARK    4  A    between atoms: C_3  and  O_17
REMARK    5  A    between atoms: C_6  and  C_13
REMARK    6  A    between atoms: C_7  and  C_12
REMARK    7  A    between atoms: N_15  and  N_16
REMARK    8  A    between atoms: O_17  and  C_18
REMARK                            x       y       z     vdW  Elec       q    Type
REMARK                         _______ _______ _______ _____ _____    ______ ____
ROOT
ATOM      1  C   UNL     1       1.042  -1.991  -1.363  0.00  0.00    +0.099 A 
ATOM      2  C   UNL     1       2.331  -2.477  -1.107  0.00  0.00    +0.084 A 
ATOM      3  C   UNL     1       2.549  -3.858  -1.192  0.00  0.00    +0.056 A 
ATOM      4  N   UNL     1       1.540  -4.647  -1.510  0.00  0.00    -0.219 NA
ATOM      5  C   UNL     1       0.333  -4.148  -1.746  0.00  0.00    +0.213 A 
ATOM      6  N   UNL     1       0.085  -2.846  -1.670  0.00  0.00    -0.215 NA
ATOM      7  N   UNL     1      -0.694  -5.007  -2.075  0.00  0.00    -0.327 N 
ATOM      8  C   UNL     1       3.916  -4.434  -0.926  0.00  0.00    +0.066 C 
ATOM      9  H   UNL     1      -0.529  -5.961  -2.131  0.00  0.00    +0.145 HD
ATOM     10  H   UNL     1      -1.582  -4.657  -2.250  0.00  0.00    +0.145 HD
ENDROOT
BRANCH   2  11
ATOM     11  C   UNL     1       3.430  -1.557  -0.755  0.00  0.00    +0.261 C 
ATOM     12  O   UNL     1       3.642  -1.280   0.410  0.00  0.00    -0.269 OA
ATOM     13  N   UNL     1       4.200  -1.025  -1.725  0.00  0.00    -0.249 N 
ATOM     14  H   UNL     1       4.032  -1.247  -2.654  0.00  0.00    +0.169 HD
BRANCH  13  15
ATOM     15  N   UNL     1       5.218  -0.174  -1.400  0.00  0.00    -0.254 NA
ATOM     16  H   UNL     1       5.856  -0.606  -0.748  0.00  0.00    +0.140 HD
ATOM     17  H   UNL     1       5.703   0.141  -2.226  0.00  0.00    +0.140 HD
ENDBRANCH  13  15
ENDBRANCH   2  11
BRANCH   1  18
ATOM     18  C   UNL     1       0.751  -0.514  -1.285  0.00  0.00    +0.222 C 
BRANCH  18  20
ATOM     19  C   UNL     1      -0.203   1.298   0.145  0.00  0.00    +0.008 C 
ATOM     20  C   UNL     1      -0.017  -0.214   0.004  0.00  0.00    +0.048 C 
ENDBRANCH  18  20
BRANCH  18  21
ATOM     21  O   UNL     1      -0.036  -0.123  -2.412  0.00  0.00    -0.483 OA
BRANCH  21  22
ATOM     22  C   UNL     1       0.175   1.124  -2.909  0.00  0.00    +0.121 A 
ATOM     23  C   UNL     1       1.167   1.929  -2.367  0.00  0.00    +0.045 A 
ATOM     24  C   UNL     1       1.380   3.196  -2.875  0.00  0.00    +0.004 A 
ATOM     25  C   UNL     1       0.606   3.662  -3.922  0.00  0.00    +0.000 A 
ATOM     26  C   UNL     1      -0.383   2.861  -4.464  0.00  0.00    +0.004 A 
ATOM     27  C   UNL     1      -0.596   1.591  -3.963  0.00  0.00    +0.045 A 
ENDBRANCH  21  22
ENDBRANCH  18  21
ENDBRANCH   1  18
TORSDOF 6
