REMARK  Name = ZINC40022500
REMARK  6 active torsions:
REMARK  status: ('A' for Active; 'I' for Inactive)
REMARK    1  A    between atoms: C_2  and  C_3
REMARK    2  A    between atoms: C_3  and  N_4
REMARK    3  A    between atoms: C_5  and  C_19
REMARK    4  A    between atoms: C_7  and  C_12
REMARK    5  A    between atoms: C_12  and  C_14
REMARK    6  A    between atoms: C_22  and  O_25
REMARK                            x       y       z     vdW  Elec       q    Type
REMARK                         _______ _______ _______ _____ _____    ______ ____
ROOT
ATOM      1  N   UNL     1      -1.346  -1.394  -1.121  0.00  0.00    -0.280 N 
ATOM      2  C   UNL     1      -1.596  -1.290  -2.563  0.00  0.00    +0.145 C 
ATOM      3  C   UNL     1      -1.426  -2.684  -3.121  0.00  0.00    +0.077 C 
ATOM      4  C   UNL     1      -1.110  -3.485  -2.079  0.00  0.00    +0.249 C 
ATOM      5  C   UNL     1      -1.057  -2.678  -0.843  0.00  0.00    +0.288 C 
ATOM      6  O   UNL     1      -0.794  -3.111   0.262  0.00  0.00    -0.266 OA
ATOM      7  O   UNL     1      -0.875  -4.816  -2.156  0.00  0.00    -0.282 OA
ENDROOT
BRANCH   2   8
ATOM      8  C   UNL     1      -0.600  -0.352  -3.195  0.00  0.00    -0.022 A 
ATOM      9  C   UNL     1       0.743  -0.459  -2.884  0.00  0.00    +0.009 A 
ATOM     10  C   UNL     1       1.658   0.400  -3.462  0.00  0.00    +0.046 A 
ATOM     11  C   UNL     1       1.228   1.370  -4.355  0.00  0.00    +0.117 A 
ATOM     12  C   UNL     1      -0.120   1.476  -4.666  0.00  0.00    +0.046 A 
ATOM     13  C   UNL     1      -1.030   0.611  -4.090  0.00  0.00    +0.009 A 
BRANCH  11  14
ATOM     14  O   UNL     1       2.126   2.217  -4.925  0.00  0.00    -0.507 OA
ATOM     15  H   UNL     1       2.496   1.895  -5.758  0.00  0.00    +0.292 HD
ENDBRANCH  11  14
ENDBRANCH   2   8
BRANCH   3  16
ATOM     16  C   UNL     1      -1.575  -3.089  -4.524  0.00  0.00    +0.202 C 
ATOM     17  O   UNL     1      -0.610  -3.499  -5.145  0.00  0.00    -0.286 OA
BRANCH  16  18
ATOM     18  C   UNL     1      -2.884  -3.002  -5.176  0.00  0.00    +0.059 A 
ATOM     19  C   UNL     1      -3.251  -3.392  -6.458  0.00  0.00    +0.019 A 
ATOM     20  C   UNL     1      -4.566  -3.181  -6.791  0.00  0.00    +0.008 A 
ATOM     21  C   UNL     1      -5.398  -2.623  -5.875  0.00  0.00    +0.046 A 
ATOM     22  S   UNL     1      -4.422  -2.373  -4.530  0.00  0.00    -0.093 S 
ENDBRANCH  16  18
ENDBRANCH   3  16
BRANCH   1  23
ATOM     23  C   UNL     1      -1.396  -0.293  -0.155  0.00  0.00    +0.136 C 
BRANCH  23  25
ATOM     24  C   UNL     1       0.102   1.633  -0.248  0.00  0.00    +0.005 C 
ATOM     25  C   UNL     1      -0.035   0.345  -0.050  0.00  0.00    -0.016 C 
ENDBRANCH  23  25
ENDBRANCH   1  23
TORSDOF 6
