REMARK  Name = ZINC09090416
REMARK  7 active torsions:
REMARK  status: ('A' for Active; 'I' for Inactive)
REMARK    1  A    between atoms: C_3  and  C_6
REMARK    2  A    between atoms: C_6  and  C_8
REMARK    3  A    between atoms: C_6  and  N_57
REMARK    4  A    between atoms: C_8  and  N_9
REMARK    5  A    between atoms: C_10  and  C_12
REMARK    6  A    between atoms: C_15  and  N_21
REMARK    7  A    between atoms: C_16  and  N_18
REMARK                            x       y       z     vdW  Elec       q    Type
REMARK                         _______ _______ _______ _____ _____    ______ ____
ROOT
ATOM      1  N   UNL     1      -3.115   6.229   6.442  0.00  0.00    -0.313 N 
ATOM      2  C   UNL     1      -2.987   4.889   6.375  0.00  0.00    +0.244 C 
ATOM      3  O   UNL     1      -3.465   4.189   7.247  0.00  0.00    -0.270 OA
ATOM      4  H   UNL     1      -2.734   6.788   5.746  0.00  0.00    +0.149 HD
ENDROOT
BRANCH   2   5
ATOM      5  C   UNL     1      -2.268   4.272   5.245  0.00  0.00    +0.039 A 
ATOM      6  C   UNL     1      -1.718   5.076   4.242  0.00  0.00    +0.015 A 
ATOM      7  C   UNL     1      -1.048   4.497   3.189  0.00  0.00    +0.026 A 
ATOM      8  C   UNL     1      -0.918   3.112   3.121  0.00  0.00    +0.060 A 
ATOM      9  C   UNL     1      -1.469   2.309   4.116  0.00  0.00    +0.148 A 
ATOM     10  C   UNL     1      -2.135   2.882   5.175  0.00  0.00    +0.047 A 
BRANCH   8  11
ATOM     11  N   UNL     1      -0.241   2.530   2.055  0.00  0.00    -0.324 N 
ATOM     12  C   UNL     1      -0.853   2.908   0.773  0.00  0.00    +0.133 C 
ATOM     13  C   UNL     1      -0.115   2.201  -0.367  0.00  0.00    +0.178 C 
ATOM     14  O   UNL     1       1.274   2.535  -0.309  0.00  0.00    -0.377 OA
ATOM     15  C   UNL     1       1.902   2.179   0.926  0.00  0.00    +0.178 C 
ATOM     16  C   UNL     1       1.185   2.887   2.078  0.00  0.00    +0.133 C 
ENDBRANCH   8  11
BRANCH   9  17
ATOM     17  N   UNL     1      -1.333   0.837   4.037  0.00  0.00    +0.058 N 
ATOM     18  O   UNL     1      -1.725   0.140   4.956  0.00  0.00    -0.126 OA
ATOM     19  O   UNL     1      -0.829   0.324   3.055  0.00  0.00    -0.126 OA
ENDBRANCH   9  17
ENDBRANCH   2   5
BRANCH   1  20
ATOM     20  C   UNL     1      -3.830   6.843   7.564  0.00  0.00    +0.094 C 
BRANCH  20  21
ATOM     21  C   UNL     1      -3.830   8.364   7.399  0.00  0.00    -0.013 C 
BRANCH  21  27
ATOM     22  C   UNL     1      -1.585   8.283   8.304  0.00  0.00    -0.049 C 
ATOM     23  C   UNL     1      -0.146   8.757   8.080  0.00  0.00    +0.141 C 
ATOM     24  O   UNL     1      -0.119  10.187   8.058  0.00  0.00    -0.383 OA
ATOM     25  C   UNL     1      -0.948  10.763   7.046  0.00  0.00    +0.141 C 
ATOM     26  C   UNL     1      -2.395  10.310   7.259  0.00  0.00    -0.049 C 
ATOM     27  N   UNL     1      -2.438   8.832   7.229  0.00  0.00    +0.389 N 
ATOM     28  H   UNL     1      -2.084   8.506   6.322  0.00  0.00    -0.081 HD
ENDBRANCH  21  27
BRANCH  21  31
ATOM     29  C   UNL     1      -6.077  10.017   9.993  0.00  0.00    +0.008 A 
ATOM     30  C   UNL     1      -5.718   9.469   8.776  0.00  0.00    +0.009 A 
ATOM     31  C   UNL     1      -4.456   9.001   8.612  0.00  0.00    -0.022 A 
ATOM     32  S   UNL     1      -3.727   9.342  10.205  0.00  0.00    -0.103 S 
ATOM     33  C   UNL     1      -5.154  10.079  10.984  0.00  0.00    +0.045 A 
ENDBRANCH  21  31
ENDBRANCH  20  21
ENDBRANCH   1  20
TORSDOF 7
