REMARK  Name = ZINC33162059
REMARK  2 active torsions:
REMARK  status: ('A' for Active; 'I' for Inactive)
REMARK    1  A    between atoms: C_5  and  C_7
REMARK    2  A    between atoms: C_15  and  C_17
REMARK                            x       y       z     vdW  Elec       q    Type
REMARK                         _______ _______ _______ _____ _____    ______ ____
ROOT
ATOM      1  C   UNL     1      -0.013   1.076   0.008  0.00  0.00    +0.029 C 
ATOM      2  C   UNL     1      -1.054   1.859  -0.371  0.00  0.00    +0.082 A 
ATOM      3  C   UNL     1      -2.492   1.548  -0.417  0.00  0.00    +0.288 A 
ATOM      4  O   UNL     1      -2.910   0.455  -0.086  0.00  0.00    -0.265 OA
ATOM      5  N   UNL     1      -3.324   2.512  -0.835  0.00  0.00    -0.169 N 
ATOM      6  C   UNL     1      -2.805   3.722  -1.195  0.00  0.00    +0.200 A 
ATOM      7  S   UNL     1      -1.054   3.552  -0.944  0.00  0.00    -0.044 S 
ATOM      8  N   UNL     1      -3.771   4.516  -1.569  0.00  0.00    -0.201 NA
ATOM      9  C   UNL     1      -4.934   3.871  -1.472  0.00  0.00    +0.196 A 
ATOM     10  N   UNL     1      -4.724   2.662  -1.035  0.00  0.00    -0.142 NA
ENDROOT
BRANCH   9  11
ATOM     11  C   UNL     1      -6.283   4.450  -1.814  0.00  0.00    +0.280 C 
ATOM     12  C   UNL     1      -6.453   5.809  -1.121  0.00  0.00    +0.281 C 
ATOM     13  O   UNL     1      -7.736   6.337  -1.478  0.00  0.00    -0.484 OA
ATOM     14  C   UNL     1      -8.077   6.278  -2.794  0.00  0.00    +0.162 A 
ATOM     15  C   UNL     1      -9.113   7.071  -3.265  0.00  0.00    +0.049 A 
ATOM     16  C   UNL     1      -9.474   7.019  -4.598  0.00  0.00    +0.004 A 
ATOM     17  C   UNL     1      -8.803   6.178  -5.466  0.00  0.00    +0.004 A 
ATOM     18  C   UNL     1      -7.769   5.386  -5.004  0.00  0.00    +0.049 A 
ATOM     19  C   UNL     1      -7.401   5.434  -3.667  0.00  0.00    +0.163 A 
ATOM     20  O   UNL     1      -6.377   4.653  -3.228  0.00  0.00    -0.474 OA
ENDBRANCH   9  11
BRANCH   1  25
ATOM     21  C   UNL     1       2.935   3.017  -1.257  0.00  0.00    +0.001 A 
ATOM     22  C   UNL     1       3.969   2.424  -0.552  0.00  0.00    +0.001 A 
ATOM     23  C   UNL     1       3.711   1.393   0.334  0.00  0.00    +0.016 A 
ATOM     24  C   UNL     1       2.417   0.952   0.527  0.00  0.00    +0.025 A 
ATOM     25  C   UNL     1       1.367   1.543  -0.186  0.00  0.00    -0.010 A 
ATOM     26  C   UNL     1       1.638   2.585  -1.080  0.00  0.00    +0.009 A 
ATOM     27 BR   UNL     1       2.066  -0.452   1.744  0.00  0.00    -0.050 Br
ENDBRANCH   1  25
TORSDOF 2
