REMARK  Name = ZINC05335327
REMARK  8 active torsions:
REMARK  status: ('A' for Active; 'I' for Inactive)
REMARK    1  A    between atoms: C_1  and  C_2
REMARK    2  A    between atoms: C_2  and  C_4
REMARK    3  A    between atoms: C_2  and  N_12
REMARK    4  A    between atoms: C_13  and  C_15
REMARK    5  A    between atoms: C_15  and  S_16
REMARK    6  A    between atoms: S_16  and  C_17
REMARK    7  A    between atoms: C_20  and  C_23
REMARK    8  A    between atoms: N_21  and  N_22
REMARK                            x       y       z     vdW  Elec       q    Type
REMARK                         _______ _______ _______ _____ _____    ______ ____
ROOT
ATOM      1  C   UNL     1       3.274   7.497  -2.348  0.00  0.00    +0.173 C 
ENDROOT
BRANCH   1   3
ATOM      2  N   UNL     1       2.312   5.757  -0.876  0.00  0.00    -0.308 N 
ATOM      3  C   UNL     1       3.408   6.299  -1.442  0.00  0.00    +0.224 C 
ATOM      4  O   UNL     1       4.502   5.824  -1.224  0.00  0.00    -0.275 OA
ATOM      5  H   UNL     1       1.437   6.138  -1.050  0.00  0.00    +0.149 HD
BRANCH   2   7
ATOM      6  C   UNL     1       2.766   5.061   1.425  0.00  0.00    +0.033 C 
ATOM      7  C   UNL     1       2.442   4.593   0.004  0.00  0.00    +0.100 C 
BRANCH   7   8
ATOM      8  C   UNL     1       1.148   3.822   0.012  0.00  0.00    -0.026 A 
ATOM      9  C   UNL     1      -0.059   4.497   0.027  0.00  0.00    +0.007 A 
ATOM     10  C   UNL     1      -1.247   3.791   0.034  0.00  0.00    +0.022 A 
ATOM     11  C   UNL     1      -1.230   2.408   0.021  0.00  0.00    +0.059 A 
ATOM     12  C   UNL     1      -0.021   1.732   0.012  0.00  0.00    +0.060 A 
ATOM     13  C   UNL     1       1.167   2.440   0.004  0.00  0.00    +0.027 A 
ATOM     14 CL   UNL     1       0.002  -0.004   0.002  0.00  0.00    -0.082 Cl
ATOM     15 CL   UNL     1      -2.722   1.521   0.023  0.00  0.00    -0.082 Cl
ENDBRANCH   7   8
ENDBRANCH   2   7
ENDBRANCH   1   3
BRANCH   1  16
ATOM     16  S   UNL     1       4.911   7.986  -2.947  0.00  0.00    -0.075 S 
BRANCH  16  17
ATOM     17  C   UNL     1       4.469   9.365  -3.951  0.00  0.00    +0.209 A 
ATOM     18  N   UNL     1       3.256   9.831  -4.144  0.00  0.00    -0.120 NA
ATOM     19  N   UNL     1       3.292  10.846  -4.932  0.00  0.00    -0.123 NA
ATOM     20  C   UNL     1       4.533  11.092  -5.290  0.00  0.00    +0.217 A 
ATOM     21  N   UNL     1       5.326  10.153  -4.667  0.00  0.00    -0.221 N 
BRANCH  20  22
ATOM     22  C   UNL     1       4.989  12.169  -6.182  0.00  0.00    +0.173 A 
ATOM     23  C   UNL     1       4.259  13.255  -6.564  0.00  0.00    +0.053 A 
ATOM     24  C   UNL     1       5.083  14.019  -7.412  0.00  0.00    +0.042 A 
ATOM     25  C   UNL     1       6.260  13.369  -7.513  0.00  0.00    +0.196 A 
ATOM     26  O   UNL     1       6.199  12.252  -6.769  0.00  0.00    -0.460 OA
ENDBRANCH  20  22
BRANCH  21  27
ATOM     27  N   UNL     1       6.684  10.033  -4.751  0.00  0.00    -0.294 N 
ATOM     28  H   UNL     1       6.947   9.430  -5.516  0.00  0.00    +0.163 HD
ATOM     29  H   UNL     1       7.122  10.938  -4.836  0.00  0.00    +0.163 HD
ENDBRANCH  21  27
ENDBRANCH  16  17
ENDBRANCH   1  16
TORSDOF 7
