REMARK  Name = ZINC49938454
REMARK  5 active torsions:
REMARK  status: ('A' for Active; 'I' for Inactive)
REMARK    1  A    between atoms: C_1  and  S_2
REMARK    2  A    between atoms: S_2  and  C_5
REMARK    3  A    between atoms: C_12  and  N_13
REMARK    4  A    between atoms: C_14  and  C_16
REMARK    5  A    between atoms: C_17  and  C_22
REMARK                            x       y       z     vdW  Elec       q    Type
REMARK                         _______ _______ _______ _____ _____    ______ ____
ROOT
ATOM      1  N   UNL     1       5.077  -3.037  -5.700  0.00  0.00    -0.180 NA
ATOM      2  C   UNL     1       4.682  -3.059  -6.963  0.00  0.00    +0.315 C 
ATOM      3  O   UNL     1       3.369  -3.199  -7.259  0.00  0.00    -0.262 OA
ENDROOT
BRANCH   1  11
ATOM      4  C   UNL     1       0.700  -3.594  -1.252  0.00  0.00    +0.089 A 
ATOM      5  C   UNL     1       0.014  -3.649  -2.457  0.00  0.00    +0.029 A 
ATOM      6  C   UNL     1       0.667  -3.557  -3.658  0.00  0.00    +0.031 A 
ATOM      7  C   UNL     1       2.073  -3.402  -3.706  0.00  0.00    +0.081 A 
ATOM      8  C   UNL     1       2.739  -3.350  -2.459  0.00  0.00    +0.043 A 
ATOM      9  C   UNL     1       2.075  -3.437  -1.262  0.00  0.00    +0.044 A 
ATOM     10  S   UNL     1       4.438  -3.154  -2.941  0.00  0.00    -0.048 S 
ATOM     11  C   UNL     1       4.172  -3.154  -4.709  0.00  0.00    +0.197 A 
ATOM     12  N   UNL     1       2.861  -3.296  -4.796  0.00  0.00    -0.221 NA
BRANCH   4  14
ATOM     13  C   UNL     1      -0.600  -2.006   0.704  0.00  0.00    +0.200 C 
ATOM     14  S   UNL     1      -0.171  -3.716   0.275  0.00  0.00    -0.006 S 
ATOM     15  O   UNL     1       0.782  -4.227   1.196  0.00  0.00    -0.170 OA
ATOM     16  O   UNL     1      -1.346  -4.452  -0.036  0.00  0.00    -0.170 OA
ENDBRANCH   4  14
ENDBRANCH   1  11
BRANCH   2  17
ATOM     17  C   UNL     1       5.629  -2.937  -8.000  0.00  0.00    +0.201 C 
ATOM     18  C   UNL     1       5.152  -2.798  -9.275  0.00  0.00    +0.062 C 
ATOM     19  S   UNL     1       6.274  -2.673 -10.634  0.00  0.00    -0.118 S 
ATOM     20  C   UNL     1       7.863  -2.361  -9.800  0.00  0.00    +0.115 C 
ATOM     21  C   UNL     1       7.939  -3.315  -8.597  0.00  0.00    +0.240 C 
ATOM     22  O   UNL     1       6.931  -2.961  -7.656  0.00  0.00    -0.485 OA
BRANCH  18  23
ATOM     23  C   UNL     1       3.697  -2.753  -9.515  0.00  0.00    -0.008 A 
ATOM     24  C   UNL     1       2.944  -1.666  -9.063  0.00  0.00    +0.009 A 
ATOM     25  C   UNL     1       1.584  -1.631  -9.291  0.00  0.00    +0.001 A 
ATOM     26  C   UNL     1       0.965  -2.668  -9.966  0.00  0.00    +0.000 A 
ATOM     27  C   UNL     1       1.704  -3.748 -10.417  0.00  0.00    +0.001 A 
ATOM     28  C   UNL     1       3.066  -3.794 -10.201  0.00  0.00    +0.009 A 
ENDBRANCH  18  23
ENDBRANCH   2  17
TORSDOF 4
