REMARK  Name = ZINC02609910
REMARK  7 active torsions:
REMARK  status: ('A' for Active; 'I' for Inactive)
REMARK    1  A    between atoms: C_1  and  C_2
REMARK    2  A    between atoms: C_4  and  O_11
REMARK    3  A    between atoms: C_7  and  N_8
REMARK    4  A    between atoms: O_11  and  C_12
REMARK    5  A    between atoms: C_12  and  C_13
REMARK    6  A    between atoms: N_15  and  C_16
REMARK    7  A    between atoms: C_17  and  C_25
REMARK                            x       y       z     vdW  Elec       q    Type
REMARK                         _______ _______ _______ _____ _____    ______ ____
ROOT
ATOM      1  C   UNL     1      -4.862   3.515   0.763  0.00  0.00    +0.255 C 
ATOM      2  O   UNL     1      -4.787   4.706   0.983  0.00  0.00    -0.272 OA
ATOM      3  N   UNL     1      -6.061   2.901   0.781  0.00  0.00    -0.277 N 
ATOM      4  H   UNL     1      -6.121   1.949   0.606  0.00  0.00    +0.155 HD
ENDROOT
BRANCH   3   5
ATOM      5  C   UNL     1      -7.210   3.630   1.051  0.00  0.00    +0.084 A 
ATOM      6  C   UNL     1      -8.522   3.182   1.108  0.00  0.00    +0.068 A 
ATOM      7  C   UNL     1      -9.552   4.159   1.416  0.00  0.00    -0.023 A 
ATOM      8  C   UNL     1      -9.110   5.420   1.608  0.00  0.00    -0.004 A 
ATOM      9  S   UNL     1      -7.356   5.322   1.391  0.00  0.00    -0.077 S 
ATOM     10  C   UNL     1      -9.935   6.628   1.931  0.00  0.00    +0.043 C 
ATOM     11  C   UNL     1     -11.408   6.297   1.646  0.00  0.00    +0.005 C 
ATOM     12  C   UNL     1     -11.742   4.945   2.282  0.00  0.00    +0.005 C 
ATOM     13  C   UNL     1     -11.035   3.823   1.520  0.00  0.00    +0.037 C 
BRANCH   6  14
ATOM     14  C   UNL     1      -8.856   1.774   0.869  0.00  0.00    +0.244 C 
ATOM     15  O   UNL     1      -8.882   0.989   1.798  0.00  0.00    -0.270 OA
ATOM     16  N   UNL     1      -9.134   1.350  -0.380  0.00  0.00    -0.325 N 
ATOM     17  H   UNL     1      -9.113   1.976  -1.120  0.00  0.00    +0.145 HD
ATOM     18  H   UNL     1      -9.355   0.418  -0.537  0.00  0.00    +0.145 HD
ENDBRANCH   6  14
ENDBRANCH   3   5
BRANCH   1  19
ATOM     19  C   UNL     1      -3.614   2.723   0.471  0.00  0.00    +0.324 C 
BRANCH  19  20
ATOM     20  O   UNL     1      -2.479   3.591   0.508  0.00  0.00    -0.483 OA
BRANCH  20  24
ATOM     21  C   UNL     1       2.355   4.093   0.059  0.00  0.00    +0.046 C 
ATOM     22  C   UNL     1       1.111   3.242   0.036  0.00  0.00    -0.017 A 
ATOM     23  C   UNL     1      -0.121   3.814   0.285  0.00  0.00    +0.051 A 
ATOM     24  C   UNL     1      -1.266   3.030   0.264  0.00  0.00    +0.122 A 
ATOM     25  C   UNL     1      -1.169   1.674  -0.012  0.00  0.00    +0.048 A 
ATOM     26  C   UNL     1       0.066   1.106  -0.255  0.00  0.00    +0.036 A 
ATOM     27  C   UNL     1       1.205   1.889  -0.234  0.00  0.00    +0.129 A 
BRANCH  27  28
ATOM     28  N   UNL     1       2.527   1.279  -0.501  0.00  0.00    +0.057 N 
ATOM     29  O   UNL     1       3.369   1.899  -1.125  0.00  0.00    -0.126 OA
ATOM     30  O   UNL     1       2.772   0.157  -0.096  0.00  0.00    -0.126 OA
ENDBRANCH  27  28
ENDBRANCH  20  24
ENDBRANCH  19  20
ENDBRANCH   1  19
TORSDOF 6
