REMARK  Name = ZINC63664112
REMARK  8 active torsions:
REMARK  status: ('A' for Active; 'I' for Inactive)
REMARK    1  A    between atoms: C_1  and  C_2
REMARK    2  A    between atoms: C_7  and  C_25
REMARK    3  A    between atoms: C_9  and  C_12
REMARK    4  A    between atoms: C_12  and  C_13
REMARK    5  A    between atoms: C_13  and  N_14
REMARK    6  A    between atoms: N_14  and  C_15
REMARK    7  A    between atoms: C_15  and  N_17
REMARK    8  A    between atoms: N_17  and  C_18
REMARK                            x       y       z     vdW  Elec       q    Type
REMARK                         _______ _______ _______ _____ _____    ______ ____
ROOT
ATOM      1  C   UNL     1      -0.807  -1.269   3.991  0.00  0.00    +0.107 C 
ENDROOT
BRANCH   1   2
ATOM      2  N   UNL     1      -0.376  -1.021   5.369  0.00  0.00    -0.326 N 
ATOM      3  H   UNL     1      -0.094  -1.761   5.929  0.00  0.00    +0.148 HD
BRANCH   2   4
ATOM      4  C   UNL     1      -0.370   0.235   5.858  0.00  0.00    +0.135 C 
ATOM      5  S   UNL     1      -0.867   1.541   4.869  0.00  0.00    -0.019 S 
BRANCH   4   6
ATOM      6  N   UNL     1       0.027   0.462   7.125  0.00  0.00    -0.297 N 
ATOM      7  H   UNL     1       0.250  -0.283   7.705  0.00  0.00    +0.154 HD
BRANCH   6   8
ATOM      8  C   UNL     1       0.118   1.773   7.605  0.00  0.00    +0.034 A 
ATOM      9  C   UNL     1      -0.908   2.677   7.359  0.00  0.00    +0.023 A 
ATOM     10  C   UNL     1      -0.816   3.970   7.834  0.00  0.00    +0.003 A 
ATOM     11  C   UNL     1       0.297   4.367   8.554  0.00  0.00    +0.015 A 
ATOM     12  C   UNL     1       1.320   3.470   8.801  0.00  0.00    +0.020 A 
ATOM     13  C   UNL     1       1.231   2.172   8.333  0.00  0.00    +0.038 A 
ATOM     14 BR   UNL     1       2.839   4.017   9.785  0.00  0.00    -0.050 Br
ENDBRANCH   6   8
ENDBRANCH   4   6
ENDBRANCH   2   4
ENDBRANCH   1   2
BRANCH   1  15
ATOM     15  C   UNL     1      -0.719  -2.767   3.690  0.00  0.00    +0.052 C 
BRANCH  15  23
ATOM     16  C   UNL     1      -2.362   1.516   0.425  0.00  0.00    +0.044 C 
ATOM     17  C   UNL     1      -2.195   0.020   0.356  0.00  0.00    -0.050 A 
ATOM     18  C   UNL     1      -2.511  -0.648  -0.835  0.00  0.00    +0.005 A 
ATOM     19  C   UNL     1      -2.389  -1.985  -0.977  0.00  0.00    +0.026 A 
ATOM     20  C   UNL     1      -1.923  -2.782   0.105  0.00  0.00    +0.043 A 
ATOM     21  N   UNL     1      -1.723  -4.073   0.214  0.00  0.00    -0.378 N 
ATOM     22  C   UNL     1      -1.232  -4.357   1.567  0.00  0.00    +0.103 C 
ATOM     23  C   UNL     1      -1.163  -3.021   2.273  0.00  0.00    -0.037 C 
ATOM     24  C   UNL     1      -1.582  -2.101   1.374  0.00  0.00    -0.001 A 
ATOM     25  C   UNL     1      -1.738  -0.643   1.443  0.00  0.00    +0.013 A 
ATOM     26  C   UNL     1       0.159  -4.992   1.501  0.00  0.00    +0.035 C 
ATOM     27  H   UNL     1      -1.875  -4.731  -0.482  0.00  0.00    +0.160 HD
ENDBRANCH  15  23
ENDBRANCH   1  15
TORSDOF 6
