REMARK  Name = ZINC67631023
REMARK  9 active torsions:
REMARK  status: ('A' for Active; 'I' for Inactive)
REMARK    1  A    between atoms: C_1  and  C_2
REMARK    2  A    between atoms: N_5  and  C_8
REMARK    3  A    between atoms: C_8  and  C_9
REMARK    4  A    between atoms: C_9  and  C_11
REMARK    5  A    between atoms: C_9  and  O_31
REMARK    6  A    between atoms: C_11  and  N_12
REMARK    7  A    between atoms: N_15  and  C_16
REMARK    8  A    between atoms: C_16  and  C_18
REMARK    9  A    between atoms: C_16  and  C_25
REMARK                            x       y       z     vdW  Elec       q    Type
REMARK                         _______ _______ _______ _____ _____    ______ ____
ROOT
ATOM      1  N   UNL     1       3.325  -6.252   2.525  0.00  0.00    -0.297 N 
ATOM      2  C   UNL     1       3.656  -7.553   2.644  0.00  0.00    +0.300 C 
ATOM      3  O   UNL     1       3.342  -8.342   1.774  0.00  0.00    -0.253 OA
ATOM      4  N   UNL     1       4.335  -7.979   3.727  0.00  0.00    -0.290 N 
ATOM      5  H   UNL     1       3.576  -5.622   3.219  0.00  0.00    +0.150 HD
ATOM      6  H   UNL     1       4.651  -7.340   4.385  0.00  0.00    +0.151 HD
ENDROOT
BRANCH   1   7
ATOM      7  C   UNL     1       2.587  -5.788   1.348  0.00  0.00    +0.135 C 
BRANCH   7   8
ATOM      8  C   UNL     1       2.341  -4.282   1.460  0.00  0.00    +0.115 C 
BRANCH   8   9
ATOM      9  O   UNL     1       3.591  -3.591   1.419  0.00  0.00    -0.392 OA
ATOM     10  H   UNL     1       4.095  -3.737   0.607  0.00  0.00    +0.210 HD
ENDBRANCH   8   9
BRANCH   8  11
ATOM     11  C   UNL     1       1.464  -3.820   0.295  0.00  0.00    -0.046 C 
BRANCH  11  16
ATOM     12  C   UNL     1      -0.584   1.489   0.675  0.00  0.00    +0.007 C 
ATOM     13  C   UNL     1      -0.470  -0.032   0.559  0.00  0.00    -0.018 C 
ATOM     14  C   UNL     1       0.310  -0.393  -0.708  0.00  0.00    -0.016 C 
ATOM     15  C   UNL     1       0.488  -1.911  -0.777  0.00  0.00    -0.078 C 
ATOM     16  N   UNL     1       1.228  -2.374   0.403  0.00  0.00    +0.381 N 
ATOM     17  C   UNL     1       0.452  -2.096   1.618  0.00  0.00    -0.078 C 
ATOM     18  C   UNL     1       0.272  -0.585   1.779  0.00  0.00    -0.016 C 
ATOM     19  H   UNL     1       2.114  -1.893   0.454  0.00  0.00    -0.082 HD
ENDBRANCH  11  16
ENDBRANCH   8  11
ENDBRANCH   7   8
ENDBRANCH   1   7
BRANCH   4  20
ATOM     20  C   UNL     1       4.598  -9.409   3.911  0.00  0.00    +0.133 C 
BRANCH  20  21
ATOM     21  C   UNL     1       3.373 -10.075   4.482  0.00  0.00    -0.025 A 
ATOM     22  C   UNL     1       2.627  -9.433   5.453  0.00  0.00    +0.008 A 
ATOM     23  C   UNL     1       1.503 -10.042   5.978  0.00  0.00    +0.038 A 
ATOM     24  C   UNL     1       1.124 -11.296   5.531  0.00  0.00    +0.123 A 
ATOM     25  C   UNL     1       1.871 -11.939   4.558  0.00  0.00    +0.038 A 
ATOM     26  C   UNL     1       2.992 -11.325   4.031  0.00  0.00    +0.008 A 
ATOM     27  F   UNL     1       0.026 -11.893   6.043  0.00  0.00    -0.205 F 
ENDBRANCH  20  21
BRANCH  20  28
ATOM     28  C   UNL     1       5.773  -9.592   4.872  0.00  0.00    +0.143 C 
ATOM     29  C   UNL     1       7.035  -8.919   4.291  0.00  0.00    +0.036 C 
ATOM     30  C   UNL     1       8.152  -9.928   4.673  0.00  0.00    +0.031 C 
ATOM     31  C   UNL     1       7.387 -11.271   4.560  0.00  0.00    +0.160 C 
ATOM     32  O   UNL     1       6.058 -10.987   5.032  0.00  0.00    -0.374 OA
ENDBRANCH  20  28
ENDBRANCH   4  20
TORSDOF 8
