REMARK  Name = ZINC04646064
REMARK  4 active torsions:
REMARK  status: ('A' for Active; 'I' for Inactive)
REMARK    1  A    between atoms: C_1  and  C_2
REMARK    2  A    between atoms: C_5  and  C_7
REMARK    3  A    between atoms: N_9  and  C_10
REMARK    4  A    between atoms: C_15  and  C_16
REMARK                            x       y       z     vdW  Elec       q    Type
REMARK                         _______ _______ _______ _____ _____    ______ ____
ROOT
ATOM      1  C   UNL     1       2.477   1.496  -0.025  0.00  0.00    +0.284 C 
ATOM      2  O   UNL     1       2.757   0.312  -0.021  0.00  0.00    -0.266 OA
ATOM      3  N   UNL     1       3.459   2.420  -0.029  0.00  0.00    -0.278 N 
ATOM      4  H   UNL     1       3.238   3.362  -0.098  0.00  0.00    +0.155 HD
ENDROOT
BRANCH   3   5
ATOM      5  C   UNL     1       4.789   2.023   0.067  0.00  0.00    +0.048 A 
ATOM      6  C   UNL     1       5.209   0.843  -0.534  0.00  0.00    +0.025 A 
ATOM      7  C   UNL     1       6.529   0.451  -0.439  0.00  0.00    +0.016 A 
ATOM      8  C   UNL     1       7.444   1.228   0.255  0.00  0.00    +0.014 A 
ATOM      9  C   UNL     1       7.045   2.401   0.859  0.00  0.00    +0.031 A 
ATOM     10  C   UNL     1       5.713   2.814   0.766  0.00  0.00    +0.085 A 
ATOM     11  I   UNL     1       9.443   0.615   0.388  0.00  0.00    -0.044 I 
BRANCH  10  12
ATOM     12  C   UNL     1       5.280   4.071   1.403  0.00  0.00    +0.388 C 
ATOM     13  O   UNL     1       4.104   4.376   1.408  0.00  0.00    -0.241 OA
ATOM     14  O   UNL     1       6.189   4.881   1.981  0.00  0.00    -0.241 OA
ENDBRANCH  10  12
ENDBRANCH   3   5
BRANCH   1  19
ATOM     15  C   UNL     1      -1.586   4.422  -0.034  0.00  0.00    +0.086 C 
ATOM     16  C   UNL     1      -0.711   3.195  -0.030  0.00  0.00    +0.103 A 
ATOM     17  C   UNL     1      -1.149   1.916  -0.032  0.00  0.00    +0.045 A 
ATOM     18  C   UNL     1      -0.013   1.091  -0.023  0.00  0.00    +0.055 A 
ATOM     19  C   UNL     1       1.073   1.918  -0.026  0.00  0.00    +0.190 A 
ATOM     20  O   UNL     1       0.628   3.192  -0.031  0.00  0.00    -0.455 OA
ENDBRANCH   1  19
TORSDOF 3
