REMARK  Name = ZINC20968681
REMARK  7 active torsions:
REMARK  status: ('A' for Active; 'I' for Inactive)
REMARK    1  A    between atoms: C_1  and  C_2
REMARK    2  A    between atoms: C_2  and  N_3
REMARK    3  A    between atoms: N_6  and  C_9
REMARK    4  A    between atoms: C_10  and  N_16
REMARK    5  A    between atoms: N_16  and  C_17
REMARK    6  A    between atoms: C_17  and  N_19
REMARK    7  A    between atoms: C_20  and  C_22
REMARK                            x       y       z     vdW  Elec       q    Type
REMARK                         _______ _______ _______ _____ _____    ______ ____
ROOT
ATOM      1  N   UNL     1      -3.520   1.840  -0.246  0.00  0.00    -0.295 N 
ATOM      2  H   UNL     1      -3.483   2.760  -0.848  0.00  0.00    +0.154 HD
ENDROOT
BRANCH   1   4
ATOM      3  C   UNL     1      -5.938   1.716  -0.148  0.00  0.00    +0.070 A 
ATOM      4  C   UNL     1      -4.697   1.081  -0.200  0.00  0.00    +0.055 A 
ATOM      5  C   UNL     1      -4.632  -0.304  -0.199  0.00  0.00    +0.025 A 
ATOM      6  C   UNL     1      -5.795  -1.052  -0.153  0.00  0.00    +0.003 A 
ATOM      7  C   UNL     1      -7.025  -0.422  -0.107  0.00  0.00    +0.022 A 
ATOM      8  C   UNL     1      -7.100   0.959  -0.107  0.00  0.00    +0.064 A 
ATOM      9 CL   UNL     1      -8.647   1.745  -0.049  0.00  0.00    -0.082 Cl
BRANCH   3  13
ATOM     10  N   UNL     1      -7.343   5.630  -0.075  0.00  0.00    +0.382 N 
ATOM     11  C   UNL     1      -6.728   5.139  -1.316  0.00  0.00    -0.060 C 
ATOM     12  C   UNL     1      -6.740   3.609  -1.318  0.00  0.00    +0.086 C 
ATOM     13  N   UNL     1      -6.010   3.115  -0.142  0.00  0.00    -0.331 N 
ATOM     14  C   UNL     1      -6.625   3.605   1.100  0.00  0.00    +0.086 C 
ATOM     15  C   UNL     1      -6.613   5.136   1.101  0.00  0.00    -0.060 C 
ATOM     16  H   UNL     1      -8.370   5.239  -0.026  0.00  0.00    -0.082 HD
BRANCH  10  18
ATOM     17  C   UNL     1      -7.827   7.581   1.324  0.00  0.00    -0.017 C 
ATOM     18  C   UNL     1      -7.419   7.097  -0.069  0.00  0.00    -0.082 C 
ENDBRANCH  10  18
ENDBRANCH   3  13
ENDBRANCH   1   4
BRANCH   1  19
ATOM     19  C   UNL     1      -2.435   1.443   0.447  0.00  0.00    +0.141 C 
ATOM     20  S   UNL     1      -2.517   0.054   1.445  0.00  0.00    -0.018 S 
BRANCH  19  21
ATOM     21  N   UNL     1      -1.284   2.138   0.353  0.00  0.00    -0.261 N 
ATOM     22  C   UNL     1      -0.198   1.741   1.046  0.00  0.00    +0.285 C 
ATOM     23  O   UNL     1      -0.257   0.755   1.755  0.00  0.00    -0.266 OA
ATOM     24  H   UNL     1      -1.231   3.030  -0.289  0.00  0.00    +0.157 HD
BRANCH  22  25
ATOM     25  C   UNL     1       1.057   2.496   0.939  0.00  0.00    +0.191 A 
ATOM     26  C   UNL     1       2.212   2.187   1.584  0.00  0.00    +0.063 A 
ATOM     27  C   UNL     1       3.185   3.202   1.182  0.00  0.00    +0.021 A 
ATOM     28  C   UNL     1       4.527   3.440   1.488  0.00  0.00    +0.011 A 
ATOM     29  C   UNL     1       5.170   4.508   0.928  0.00  0.00    +0.001 A 
ATOM     30  C   UNL     1       4.499   5.356   0.057  0.00  0.00    +0.004 A 
ATOM     31  C   UNL     1       3.175   5.138  -0.258  0.00  0.00    +0.047 A 
ATOM     32  C   UNL     1       2.500   4.058   0.300  0.00  0.00    +0.136 A 
ATOM     33  O   UNL     1       1.239   3.597   0.181  0.00  0.00    -0.450 OA
ENDBRANCH  22  25
ENDBRANCH  19  21
ENDBRANCH   1  19
TORSDOF 6
