REMARK  Name = ZINC19462100
REMARK  5 active torsions:
REMARK  status: ('A' for Active; 'I' for Inactive)
REMARK    1  A    between atoms: C_1  and  C_2
REMARK    2  A    between atoms: C_9  and  N_14
REMARK    3  A    between atoms: C_15  and  C_17
REMARK    4  A    between atoms: C_17  and  C_29
REMARK    5  A    between atoms: C_19  and  C_22
REMARK                            x       y       z     vdW  Elec       q    Type
REMARK                         _______ _______ _______ _____ _____    ______ ____
ROOT
ATOM      1  N   UNL     1       2.366   3.885  -0.000  0.00  0.00    -0.282 N 
ATOM      2  C   UNL     1       3.539   3.227   0.087  0.00  0.00    +0.264 C 
ATOM      3  O   UNL     1       3.555   2.014   0.080  0.00  0.00    -0.271 OA
ATOM      4  H   UNL     1       2.356   4.982  -0.082  0.00  0.00    +0.155 HD
ENDROOT
BRANCH   1  12
ATOM      5  C   UNL     1      -4.773   0.921  -0.366  0.00  0.00    +0.062 C 
ATOM      6  C   UNL     1      -3.594   1.846  -0.054  0.00  0.00    +0.256 C 
ATOM      7  C   UNL     1      -3.442   2.856  -1.162  0.00  0.00    +0.258 C 
ATOM      8  O   UNL     1      -4.410   3.206  -1.805  0.00  0.00    -0.271 OA
ATOM      9  N   UNL     1      -2.224   3.372  -1.437  0.00  0.00    -0.279 N 
ATOM     10  C   UNL     1      -1.116   2.925  -0.703  0.00  0.00    +0.077 A 
ATOM     11  C   UNL     1       0.074   3.632  -0.720  0.00  0.00    +0.050 A 
ATOM     12  C   UNL     1       1.160   3.173   0.014  0.00  0.00    +0.035 A 
ATOM     13  C   UNL     1       1.051   2.007   0.760  0.00  0.00    +0.027 A 
ATOM     14  C   UNL     1      -0.137   1.300   0.777  0.00  0.00    +0.049 A 
ATOM     15  C   UNL     1      -1.220   1.752   0.043  0.00  0.00    +0.143 A 
ATOM     16  O   UNL     1      -2.398   1.070   0.056  0.00  0.00    -0.478 OA
ATOM     17  H   UNL     1      -2.113   4.130  -2.226  0.00  0.00    +0.155 HD
ENDBRANCH   1  12
BRANCH   2  18
ATOM     18  C   UNL     1       4.830   3.997   0.192  0.00  0.00    +0.216 C 
ATOM     19  C   UNL     1       5.993   3.223  -0.473  0.00  0.00    +0.119 C 
ATOM     20  C   UNL     1       6.011   3.797  -1.877  0.00  0.00    +0.093 C 
ATOM     21  N   UNL     1       5.318   4.886  -1.878  0.00  0.00    -0.088 NA
ATOM     22  O   UNL     1       4.781   5.197  -0.607  0.00  0.00    -0.377 OA
ATOM     23  C   UNL     1       5.152   4.323   1.651  0.00  0.00    +0.069 C 
BRANCH  20  24
ATOM     24  C   UNL     1       6.703   3.212  -3.042  0.00  0.00    +0.018 A 
ATOM     25  C   UNL     1       7.423   2.023  -2.906  0.00  0.00    +0.011 A 
ATOM     26  C   UNL     1       8.066   1.481  -3.999  0.00  0.00    +0.001 A 
ATOM     27  C   UNL     1       8.000   2.112  -5.229  0.00  0.00    +0.001 A 
ATOM     28  C   UNL     1       7.289   3.289  -5.372  0.00  0.00    +0.020 A 
ATOM     29  C   UNL     1       6.635   3.841  -4.288  0.00  0.00    +0.050 A 
ATOM     30 CL   UNL     1       5.737   5.316  -4.470  0.00  0.00    -0.083 Cl
ENDBRANCH  20  24
ENDBRANCH   2  18
TORSDOF 3
