REMARK  Name = ZINC13003401
REMARK  6 active torsions:
REMARK  status: ('A' for Active; 'I' for Inactive)
REMARK    1  A    between atoms: C_1  and  C_2
REMARK    2  A    between atoms: C_2  and  C_4
REMARK    3  A    between atoms: C_2  and  S_18
REMARK    4  A    between atoms: C_4  and  C_6
REMARK    5  A    between atoms: C_6  and  C_16
REMARK    6  A    between atoms: S_18  and  C_19
REMARK                            x       y       z     vdW  Elec       q    Type
REMARK                         _______ _______ _______ _____ _____    ______ ____
ROOT
ATOM      1  C   UNL     1      -3.987   5.575   0.193  0.00  0.00    +0.189 C 
ATOM      2  O   UNL     1      -3.657   6.687  -0.169  0.00  0.00    -0.290 OA
ENDROOT
BRANCH   1   3
ATOM      3  C   UNL     1      -5.263   5.365   0.742  0.00  0.00    +0.131 C 
ATOM      4  C   UNL     1      -6.159   6.442   0.872  0.00  0.00    +0.114 C 
ATOM      5  N   UNL     1      -5.903   7.725   0.510  0.00  0.00    -0.300 N 
ATOM      6  C   UNL     1      -7.029   8.490   0.791  0.00  0.00    +0.054 A 
ATOM      7  C   UNL     1      -7.325   9.837   0.628  0.00  0.00    +0.025 A 
ATOM      8  C   UNL     1      -8.558  10.321   1.016  0.00  0.00    +0.002 A 
ATOM      9  C   UNL     1      -9.502   9.470   1.566  0.00  0.00    +0.002 A 
ATOM     10  C   UNL     1      -9.218   8.130   1.732  0.00  0.00    +0.025 A 
ATOM     11  C   UNL     1      -7.981   7.632   1.346  0.00  0.00    +0.054 A 
ATOM     12  N   UNL     1      -7.414   6.363   1.385  0.00  0.00    -0.300 N 
ATOM     13  H   UNL     1      -5.077   8.052   0.120  0.00  0.00    +0.153 HD
ATOM     14  H   UNL     1      -7.841   5.560   1.720  0.00  0.00    +0.153 HD
BRANCH   3  15
ATOM     15  C   UNL     1      -5.652   4.054   1.169  0.00  0.00    +0.106 C 
ATOM     16  N   UNL     1      -5.961   3.015   1.507  0.00  0.00    -0.191 NA
ENDBRANCH   3  15
ENDBRANCH   1   3
BRANCH   1  18
ATOM     17  C   UNL     1      -3.307   3.680  -1.255  0.00  0.00    +0.028 C 
ATOM     18  C   UNL     1      -3.027   4.421   0.054  0.00  0.00    +0.124 C 
BRANCH  18  19
ATOM     19  S   UNL     1      -1.329   5.047   0.041  0.00  0.00    -0.056 S 
BRANCH  19  20
ATOM     20  C   UNL     1      -0.442   3.525   0.025  0.00  0.00    +0.259 A 
ATOM     21  N   UNL     1       0.863   3.416   0.012  0.00  0.00    -0.203 NA
ATOM     22  C   UNL     1       1.191   2.095   0.002  0.00  0.00    +0.110 A 
ATOM     23  C   UNL     1       2.403   1.404  -0.014  0.00  0.00    +0.031 A 
ATOM     24  C   UNL     1       2.404   0.026  -0.021  0.00  0.00    +0.002 A 
ATOM     25  C   UNL     1       1.208  -0.676  -0.013  0.00  0.00    +0.004 A 
ATOM     26  C   UNL     1       0.002  -0.004   0.002  0.00  0.00    +0.048 A 
ATOM     27  C   UNL     1      -0.017   1.381   0.010  0.00  0.00    +0.156 A 
ATOM     28  O   UNL     1      -1.006   2.304   0.019  0.00  0.00    -0.431 OA
ENDBRANCH  19  20
ENDBRANCH  18  19
ENDBRANCH   1  18
TORSDOF 5
