REMARK  Name = ZINC66437568
REMARK  4 active torsions:
REMARK  status: ('A' for Active; 'I' for Inactive)
REMARK    1  A    between atoms: C_4  and  C_7
REMARK    2  A    between atoms: C_7  and  C_9
REMARK    3  A    between atoms: C_7  and  N_15
REMARK    4  A    between atoms: C_23  and  C_28
REMARK                            x       y       z     vdW  Elec       q    Type
REMARK                         _______ _______ _______ _____ _____    ______ ____
ROOT
ATOM      1  C   UNL     1       4.105  -0.818  -0.189  0.00  0.00    +0.174 C 
ENDROOT
BRANCH   1   2
ATOM      2  N   UNL     1       3.580  -2.182  -0.343  0.00  0.00    -0.286 NA
ATOM      3  C   UNL     1       4.651  -3.120  -0.676  0.00  0.00    +0.087 C 
ATOM      4  C   UNL     1       4.112  -4.171  -1.621  0.00  0.00    +0.034 C 
ATOM      5  C   UNL     1       3.611  -5.382  -0.815  0.00  0.00    +0.108 C 
ATOM      6  N   UNL     1       2.909  -4.956   0.412  0.00  0.00    -0.313 N 
ATOM      7  C   UNL     1       1.986  -3.840   0.433  0.00  0.00    +0.122 C 
ATOM      8  C   UNL     1       2.755  -2.534   0.750  0.00  0.00    +0.104 C 
ATOM      9  C   UNL     1       3.141  -5.651   1.587  0.00  0.00    +0.139 A 
ATOM     10  C   UNL     1       2.364  -6.780   1.896  0.00  0.00    +0.092 A 
ATOM     11  C   UNL     1       2.617  -7.466   3.089  0.00  0.00    +0.024 A 
ATOM     12  C   UNL     1       3.626  -6.999   3.914  0.00  0.00    +0.021 A 
ATOM     13  C   UNL     1       4.348  -5.880   3.541  0.00  0.00    +0.113 A 
ATOM     14  N   UNL     1       4.097  -5.250   2.410  0.00  0.00    -0.239 NA
BRANCH  10  15
ATOM     15  C   UNL     1       1.331  -7.221   1.007  0.00  0.00    +0.103 C 
ATOM     16  N   UNL     1       0.512  -7.571   0.302  0.00  0.00    -0.191 NA
ENDBRANCH  10  15
ENDBRANCH   1   2
BRANCH   1  17
ATOM     17  C   UNL     1       2.959   0.142  -0.001  0.00  0.00    +0.242 C 
ATOM     18  O   UNL     1       1.874  -0.107  -0.482  0.00  0.00    -0.273 OA
ATOM     19  N   UNL     1       3.140   1.278   0.701  0.00  0.00    -0.239 N 
ATOM     20  C   UNL     1       2.115   2.137   0.869  0.00  0.00    +0.303 C 
ATOM     21  O   UNL     1       1.027   1.887   0.387  0.00  0.00    -0.253 OA
ATOM     22  N   UNL     1       2.296   3.273   1.571  0.00  0.00    -0.313 N 
ATOM     23  H   UNL     1       4.008   1.478   1.086  0.00  0.00    +0.159 HD
ATOM     24  H   UNL     1       3.164   3.473   1.956  0.00  0.00    +0.146 HD
ATOM     25  H   UNL     1       1.558   3.891   1.692  0.00  0.00    +0.146 HD
ENDBRANCH   1  17
BRANCH   1  29
ATOM     26  C   UNL     1       6.312   0.261  -3.684  0.00  0.00    +0.000 A 
ATOM     27  C   UNL     1       6.816   0.552  -2.430  0.00  0.00    +0.000 A 
ATOM     28  C   UNL     1       6.102   0.203  -1.299  0.00  0.00    +0.005 A 
ATOM     29  C   UNL     1       4.883  -0.437  -1.422  0.00  0.00    -0.021 A 
ATOM     30  C   UNL     1       4.378  -0.727  -2.675  0.00  0.00    +0.005 A 
ATOM     31  C   UNL     1       5.092  -0.379  -3.806  0.00  0.00    +0.000 A 
ENDBRANCH   1  29
TORSDOF 4
