REMARK  Name = ZINC08622910
REMARK  10 active torsions:
REMARK  status: ('A' for Active; 'I' for Inactive)
REMARK    1  A    between atoms: C_1  and  C_2
REMARK    2  A    between atoms: C_3  and  C_30
REMARK    3  A    between atoms: C_5  and  N_11
REMARK    4  A    between atoms: C_6  and  C_7
REMARK    5  A    between atoms: C_7  and  O_9
REMARK    6  A    between atoms: O_9  and  C_10
REMARK    7  A    between atoms: C_12  and  C_14
REMARK    8  A    between atoms: C_14  and  N_15
REMARK    9  A    between atoms: C_18  and  C_22
REMARK   10  A    between atoms: C_18  and  C_23
REMARK                            x       y       z     vdW  Elec       q    Type
REMARK                         _______ _______ _______ _____ _____    ______ ____
ROOT
ATOM      1  C   UNL     1       0.002  -0.004   0.002  0.00  0.00    +0.214 C 
ENDROOT
BRANCH   1   2
ATOM      2  N   UNL     1      -0.018   1.461   0.010  0.00  0.00    -0.215 N 
ATOM      3  C   UNL     1       1.087   2.233   0.004  0.00  0.00    +0.251 C 
ATOM      4  O   UNL     1       2.240   1.861  -0.008  0.00  0.00    -0.272 OA
ATOM      5  C   UNL     1       0.587   3.664   0.015  0.00  0.00    +0.135 C 
ATOM      6  N   UNL     1      -0.879   3.518   0.028  0.00  0.00    -0.281 N 
ATOM      7  C   UNL     1      -1.135   2.197   0.019  0.00  0.00    +0.310 C 
ATOM      8  O   UNL     1      -2.255   1.726   0.022  0.00  0.00    -0.252 OA
ATOM      9  C   UNL     1       1.043   4.404  -1.244  0.00  0.00    +0.047 C 
ATOM     10  H   UNL     1      -1.533   4.235   0.038  0.00  0.00    +0.152 HD
BRANCH   5  11
ATOM     11  C   UNL     1       1.059   4.381   1.254  0.00  0.00    -0.015 A 
ATOM     12  C   UNL     1       2.254   4.020   1.847  0.00  0.00    +0.007 A 
ATOM     13  C   UNL     1       2.691   4.681   2.980  0.00  0.00    +0.020 A 
ATOM     14  C   UNL     1       1.925   5.696   3.526  0.00  0.00    +0.041 A 
ATOM     15  C   UNL     1       0.726   6.052   2.935  0.00  0.00    +0.020 A 
ATOM     16  C   UNL     1       0.294   5.395   1.799  0.00  0.00    +0.007 A 
ATOM     17 CL   UNL     1       2.470   6.522   4.953  0.00  0.00    -0.084 Cl
ENDBRANCH   5  11
ENDBRANCH   1   2
BRANCH   1  19
ATOM     18  N   UNL     1       0.043  -1.840   1.659  0.00  0.00    -0.278 N 
ATOM     19  C   UNL     1       0.022  -0.514   1.420  0.00  0.00    +0.236 C 
ATOM     20  O   UNL     1       0.021   0.269   2.346  0.00  0.00    -0.274 OA
ATOM     21  H   UNL     1       0.044  -2.466   0.918  0.00  0.00    +0.155 HD
BRANCH  18  26
ATOM     22  C   UNL     1       0.125  -5.213   5.434  0.00  0.00    +0.045 C 
ATOM     23  C   UNL     1       0.100  -3.830   4.837  0.00  0.00    -0.025 A 
ATOM     24  C   UNL     1       0.092  -2.731   5.613  0.00  0.00    -0.008 A 
ATOM     25  S   UNL     1       0.062  -1.397   4.435  0.00  0.00    -0.078 S 
ATOM     26  C   UNL     1       0.061  -2.309   2.963  0.00  0.00    +0.086 A 
ATOM     27  C   UNL     1       0.078  -3.627   3.407  0.00  0.00    +0.091 A 
ATOM     28  C   UNL     1       0.105  -2.650   7.118  0.00  0.00    +0.052 C 
BRANCH  27  29
ATOM     29  C   UNL     1       0.077  -4.754   2.471  0.00  0.00    +0.342 C 
ATOM     30  O   UNL     1       1.130  -5.213   2.071  0.00  0.00    -0.245 OA
BRANCH  29  31
ATOM     31  O   UNL     1      -1.091  -5.282   2.053  0.00  0.00    -0.464 OA
ATOM     32  C   UNL     1      -1.016  -6.397   1.126  0.00  0.00    +0.280 C 
ENDBRANCH  29  31
ENDBRANCH  27  29
ENDBRANCH  18  26
ENDBRANCH   1  19
TORSDOF 6
