REMARK  Name = ZINC06996508
REMARK  7 active torsions:
REMARK  status: ('A' for Active; 'I' for Inactive)
REMARK    1  A    between atoms: C_1  and  C_2
REMARK    2  A    between atoms: C_2  and  C_3
REMARK    3  A    between atoms: C_9  and  N_10
REMARK    4  A    between atoms: C_9  and  N_58
REMARK    5  A    between atoms: C_13  and  C_17
REMARK    6  A    between atoms: C_13  and  C_24
REMARK    7  A    between atoms: C_17  and  C_18
REMARK                            x       y       z     vdW  Elec       q    Type
REMARK                         _______ _______ _______ _____ _____    ______ ____
ROOT
ATOM      1  N   UNL     1      -3.018   3.076  -2.174  0.00  0.00    -0.241 N 
ATOM      2  C   UNL     1      -4.182   3.454  -1.610  0.00  0.00    +0.250 C 
ATOM      3  O   UNL     1      -5.066   2.733  -1.201  0.00  0.00    -0.272 OA
ATOM      4  C   UNL     1      -4.154   4.970  -1.590  0.00  0.00    +0.142 C 
ATOM      5  N   UNL     1      -2.859   5.300  -2.211  0.00  0.00    -0.281 N 
ATOM      6  C   UNL     1      -2.270   4.130  -2.517  0.00  0.00    +0.308 C 
ATOM      7  O   UNL     1      -1.179   4.042  -3.046  0.00  0.00    -0.252 OA
ATOM      8  H   UNL     1      -2.502   6.188  -2.368  0.00  0.00    +0.152 HD
ENDROOT
BRANCH   4   9
ATOM      9  C   UNL     1      -4.213   5.490  -0.177  0.00  0.00    -0.015 A 
ATOM     10  C   UNL     1      -5.427   5.854   0.375  0.00  0.00    +0.006 A 
ATOM     11  C   UNL     1      -5.481   6.327   1.673  0.00  0.00    +0.000 A 
ATOM     12  C   UNL     1      -4.321   6.446   2.414  0.00  0.00    +0.000 A 
ATOM     13  C   UNL     1      -3.107   6.088   1.860  0.00  0.00    +0.000 A 
ATOM     14  C   UNL     1      -3.053   5.610   0.564  0.00  0.00    +0.006 A 
ENDBRANCH   4   9
BRANCH   1  15
ATOM     15  C   UNL     1      -2.623   1.681  -2.391  0.00  0.00    +0.043 C 
BRANCH  15  21
ATOM     16  C   UNL     1      -1.252  -0.121  -1.535  0.00  0.00    -0.067 C 
ATOM     17  C   UNL     1      -0.152  -0.464  -0.528  0.00  0.00    -0.015 C 
ATOM     18  C   UNL     1      -0.681  -0.251   0.893  0.00  0.00    -0.003 C 
ATOM     19  C   UNL     1      -1.152   1.199   1.042  0.00  0.00    -0.019 C 
ATOM     20  C   UNL     1      -2.223   1.494  -0.011  0.00  0.00    -0.076 C 
ATOM     21  N   UNL     1      -1.643   1.294  -1.356  0.00  0.00    +0.392 N 
ATOM     22  H   UNL     1      -0.808   1.884  -1.449  0.00  0.00    -0.079 HD
BRANCH  16  24
ATOM     23  C   UNL     1      -0.355  -1.783  -3.170  0.00  0.00    +0.002 C 
ATOM     24  C   UNL     1      -0.721  -0.313  -2.957  0.00  0.00    -0.019 C 
ENDBRANCH  16  24
ENDBRANCH  15  21
ENDBRANCH   1  15
BRANCH   4  25
ATOM     25  C   UNL     1      -5.308   5.536  -2.420  0.00  0.00    +0.075 C 
BRANCH  25  26
ATOM     26  C   UNL     1      -5.257   4.960  -3.811  0.00  0.00    -0.045 A 
ATOM     27  C   UNL     1      -4.541   5.607  -4.801  0.00  0.00    +0.004 A 
ATOM     28  C   UNL     1      -4.490   5.077  -6.077  0.00  0.00    +0.000 A 
ATOM     29  C   UNL     1      -5.163   3.904  -6.365  0.00  0.00    +0.000 A 
ATOM     30  C   UNL     1      -5.883   3.259  -5.376  0.00  0.00    +0.000 A 
ATOM     31  C   UNL     1      -5.930   3.787  -4.099  0.00  0.00    +0.004 A 
ENDBRANCH  25  26
ENDBRANCH   4  25
TORSDOF 6
