REMARK  Name = ZINC39618394
REMARK  12 active torsions:
REMARK  status: ('A' for Active; 'I' for Inactive)
REMARK    1  A    between atoms: C_1  and  C_2
REMARK    2  A    between atoms: C_2  and  C_3
REMARK    3  A    between atoms: C_2  and  C_4
REMARK    4  A    between atoms: C_4  and  C_6
REMARK    5  A    between atoms: C_4  and  O_12
REMARK    6  A    between atoms: O_12  and  C_13
REMARK    7  A    between atoms: C_13  and  C_15
REMARK    8  A    between atoms: C_16  and  C_17
REMARK    9  A    between atoms: C_21  and  O_25
REMARK   10  A    between atoms: C_22  and  O_23
REMARK   11  A    between atoms: O_23  and  C_24
REMARK   12  A    between atoms: O_25  and  C_26
REMARK                            x       y       z     vdW  Elec       q    Type
REMARK                         _______ _______ _______ _____ _____    ______ ____
ROOT
ATOM      1  O   UNL     1      -2.137   0.021   1.126  0.00  0.00    -0.449 OA
ENDROOT
BRANCH   1   2
ATOM      2  C   UNL     1      -2.091  -0.669   2.285  0.00  0.00    +0.333 C 
ATOM      3  O   UNL     1      -1.470  -1.714   2.347  0.00  0.00    -0.246 OA
BRANCH   2   4
ATOM      4  C   UNL     1      -2.767  -0.178   3.430  0.00  0.00    +0.092 C 
ATOM      5  C   UNL     1      -2.721  -0.869   4.590  0.00  0.00    +0.018 C 
BRANCH   5   6
ATOM      6  C   UNL     1      -3.422  -0.359   5.777  0.00  0.00    +0.021 A 
ATOM      7  C   UNL     1      -4.143   0.840   5.708  0.00  0.00    +0.012 A 
ATOM      8  C   UNL     1      -4.797   1.313   6.823  0.00  0.00    +0.004 A 
ATOM      9  C   UNL     1      -4.747   0.610   8.016  0.00  0.00    +0.049 A 
ATOM     10  C   UNL     1      -4.038  -0.577   8.101  0.00  0.00    +0.162 A 
ATOM     11  C   UNL     1      -3.377  -1.073   6.983  0.00  0.00    +0.169 A 
BRANCH  11  12
ATOM     12  O   UNL     1      -2.686  -2.239   7.061  0.00  0.00    -0.491 OA
ATOM     13  C   UNL     1      -1.310  -2.155   7.439  0.00  0.00    +0.277 C 
ENDBRANCH  11  12
BRANCH  10  14
ATOM     14  O   UNL     1      -3.994  -1.260   9.276  0.00  0.00    -0.491 OA
ATOM     15  C   UNL     1      -4.701  -0.695  10.382  0.00  0.00    +0.277 C 
ENDBRANCH  10  14
ENDBRANCH   5   6
ENDBRANCH   2   4
ENDBRANCH   1   2
BRANCH   1  16
ATOM     16  C   UNL     1      -1.433  -0.534   0.013  0.00  0.00    +0.265 C 
BRANCH  16  17
ATOM     17  C   UNL     1      -2.125  -0.137  -1.266  0.00  0.00    +0.261 C 
ATOM     18  O   UNL     1      -3.067   0.625  -1.235  0.00  0.00    -0.271 OA
ATOM     19  N   UNL     1      -1.696  -0.630  -2.445  0.00  0.00    -0.237 N 
ATOM     20  C   UNL     1      -2.314  -0.276  -3.589  0.00  0.00    +0.303 C 
ATOM     21  O   UNL     1      -3.258   0.488  -3.557  0.00  0.00    -0.253 OA
ATOM     22  N   UNL     1      -1.885  -0.768  -4.768  0.00  0.00    -0.313 N 
ATOM     23  H   UNL     1      -0.942  -1.240  -2.470  0.00  0.00    +0.159 HD
ATOM     24  H   UNL     1      -1.131  -1.378  -4.793  0.00  0.00    +0.146 HD
ATOM     25  H   UNL     1      -2.330  -0.513  -5.591  0.00  0.00    +0.146 HD
ENDBRANCH  16  17
BRANCH  16  27
ATOM     26  C   UNL     1      -0.019   1.526   0.010  0.00  0.00    +0.011 C 
ATOM     27  C   UNL     1       0.002  -0.004   0.002  0.00  0.00    +0.033 C 
ATOM     28  C   UNL     1       0.742  -0.511   1.242  0.00  0.00    +0.011 C 
ENDBRANCH  16  27
ENDBRANCH   1  16
TORSDOF 8
