REMARK  Name = ZINC25157188
REMARK  9 active torsions:
REMARK  status: ('A' for Active; 'I' for Inactive)
REMARK    1  A    between atoms: C_1  and  C_2
REMARK    2  A    between atoms: C_5  and  N_9
REMARK    3  A    between atoms: C_6  and  O_8
REMARK    4  A    between atoms: C_10  and  C_12
REMARK    5  A    between atoms: C_14  and  C_19
REMARK    6  A    between atoms: C_16  and  C_17
REMARK    7  A    between atoms: C_16  and  C_18
REMARK    8  A    between atoms: C_20  and  C_21
REMARK    9  A    between atoms: C_20  and  C_22
REMARK                            x       y       z     vdW  Elec       q    Type
REMARK                         _______ _______ _______ _____ _____    ______ ____
ROOT
ATOM      1  N   UNL     1      -2.447  -2.749  -1.091  0.00  0.00    -0.282 N 
ATOM      2  C   UNL     1      -1.317  -2.027  -0.956  0.00  0.00    +0.221 C 
ATOM      3  O   UNL     1      -0.289  -2.408  -1.475  0.00  0.00    -0.275 OA
ATOM      4  H   UNL     1      -3.399  -2.358  -0.701  0.00  0.00    +0.155 HD
ENDROOT
BRANCH   1   9
ATOM      5  C   UNL     1      -2.293  -7.805  -3.671  0.00  0.00    +0.044 C 
ATOM      6  C   UNL     1      -2.336  -6.462  -2.987  0.00  0.00    -0.047 A 
ATOM      7  C   UNL     1      -1.261  -6.041  -2.228  0.00  0.00    +0.005 A 
ATOM      8  C   UNL     1      -1.293  -4.808  -1.603  0.00  0.00    +0.027 A 
ATOM      9  C   UNL     1      -2.410  -3.996  -1.728  0.00  0.00    +0.075 A 
ATOM     10  C   UNL     1      -3.493  -4.422  -2.494  0.00  0.00    +0.138 A 
ATOM     11  C   UNL     1      -3.451  -5.656  -3.122  0.00  0.00    +0.050 A 
BRANCH  10  12
ATOM     12  O   UNL     1      -4.589  -3.627  -2.625  0.00  0.00    -0.505 OA
ATOM     13  H   UNL     1      -5.444  -3.965  -3.230  0.00  0.00    +0.292 HD
ENDBRANCH  10  12
ENDBRANCH   1   9
BRANCH   2  14
ATOM     14  C   UNL     1      -1.330  -0.748  -0.160  0.00  0.00    +0.089 C 
ATOM     15  C   UNL     1       0.005  -0.031   0.048  0.00  0.00    +0.030 C 
ATOM     16  C   UNL     1      -0.659  -0.764   1.215  0.00  0.00    -0.016 C 
ATOM     17  C   UNL     1      -0.026  -2.079   1.677  0.00  0.00    +0.012 C 
ATOM     18  C   UNL     1      -1.289   0.088   2.318  0.00  0.00    +0.012 C 
BRANCH  15  19
ATOM     19  C   UNL     1      -0.010   1.475   0.074  0.00  0.00    -0.023 C 
ATOM     20  C   UNL     1       1.118   2.142   0.079  0.00  0.00    -0.079 C 
ATOM     21  C   UNL     1       2.431   1.402   0.059  0.00  0.00    +0.038 C 
ATOM     22  C   UNL     1       1.103   3.649   0.104  0.00  0.00    +0.038 C 
ENDBRANCH  15  19
ENDBRANCH   2  14
TORSDOF 4
