REMARK  Name = ZINC60126392
REMARK  15 active torsions:
REMARK  status: ('A' for Active; 'I' for Inactive)
REMARK    1  A    between atoms: C_1  and  C_2
REMARK    2  A    between atoms: C_2  and  C_3
REMARK    3  A    between atoms: C_2  and  C_4
REMARK    4  A    between atoms: C_4  and  N_5
REMARK    5  A    between atoms: C_8  and  C_15
REMARK    6  A    between atoms: C_10  and  C_12
REMARK    7  A    between atoms: C_12  and  C_13
REMARK    8  A    between atoms: C_12  and  C_14
REMARK    9  A    between atoms: N_17  and  C_18
REMARK   10  A    between atoms: C_18  and  C_19
REMARK   11  A    between atoms: C_19  and  C_20
REMARK   12  A    between atoms: C_20  and  C_21
REMARK   13  A    between atoms: C_21  and  C_22
REMARK   14  A    between atoms: C_22  and  O_24
REMARK   15  A    between atoms: O_24  and  C_25
REMARK                            x       y       z     vdW  Elec       q    Type
REMARK                         _______ _______ _______ _____ _____    ______ ____
ROOT
ATOM      1  N   UNL     1       2.031   0.182  -0.780  0.00  0.00    -0.278 N 
ATOM      2  C   UNL     1       2.456   1.263  -1.532  0.00  0.00    +0.151 A 
ATOM      3  C   UNL     1       3.810   1.634  -1.466  0.00  0.00    +0.094 A 
ATOM      4  C   UNL     1       4.264   2.727  -2.220  0.00  0.00    +0.054 A 
ATOM      5  C   UNL     1       3.332   3.401  -3.010  0.00  0.00    +0.037 A 
ATOM      6  C   UNL     1       2.015   2.971  -3.019  0.00  0.00    +0.047 A 
ATOM      7  N   UNL     1       1.619   1.941  -2.300  0.00  0.00    -0.233 NA
ATOM      8  C   UNL     1       4.712   0.855  -0.600  0.00  0.00    +0.264 A 
ATOM      9  O   UNL     1       5.891   1.139  -0.510  0.00  0.00    -0.267 OA
ATOM     10  N   UNL     1       4.193  -0.183   0.092  0.00  0.00    -0.274 N 
ATOM     11  H   UNL     1       4.770  -0.709   0.668  0.00  0.00    +0.173 HD
ATOM     12  C   UNL     1       2.890  -0.495  -0.001  0.00  0.00    +0.331 A 
ATOM     13  O   UNL     1       2.471  -1.436   0.645  0.00  0.00    -0.246 OA
ENDROOT
BRANCH   4  14
ATOM     14  C   UNL     1       5.684   3.151  -2.178  0.00  0.00    +0.245 C 
ATOM     15  O   UNL     1       6.224   3.362  -1.110  0.00  0.00    -0.270 OA
ATOM     16  N   UNL     1       6.376   3.304  -3.324  0.00  0.00    -0.311 N 
ATOM     17  H   UNL     1       5.945   3.136  -4.177  0.00  0.00    +0.149 HD
BRANCH  16  18
ATOM     18  C   UNL     1       7.779   3.723  -3.283  0.00  0.00    +0.104 C 
BRANCH  18  19
ATOM     19  C   UNL     1       8.325   3.819  -4.708  0.00  0.00    +0.019 C 
BRANCH  19  20
ATOM     20  C   UNL     1       9.791   4.257  -4.665  0.00  0.00    +0.013 C 
BRANCH  20  21
ATOM     21  C   UNL     1      10.337   4.352  -6.091  0.00  0.00    +0.120 C 
BRANCH  21  22
ATOM     22  C   UNL     1      11.780   4.784  -6.048  0.00  0.00    +0.307 C 
ATOM     23  O   UNL     1      12.317   4.993  -4.986  0.00  0.00    -0.251 OA
BRANCH  22  24
ATOM     24  O   UNL     1      12.469   4.935  -7.190  0.00  0.00    -0.468 OA
ATOM     25  C   UNL     1      13.833   5.346  -7.075  0.00  0.00    +0.280 C 
ENDBRANCH  22  24
ENDBRANCH  21  22
ENDBRANCH  20  21
ENDBRANCH  19  20
ENDBRANCH  18  19
ENDBRANCH  16  18
ENDBRANCH   4  14
BRANCH   6  26
ATOM     26  C   UNL     1       1.010   3.701  -3.873  0.00  0.00    +0.032 C 
ATOM     27  C   UNL     1       0.465   4.905  -3.103  0.00  0.00    +0.014 C 
ATOM     28  C   UNL     1       1.686   4.181  -5.159  0.00  0.00    +0.014 C 
ENDBRANCH   6  26
BRANCH   1  29
ATOM     29  C   UNL     1       0.625  -0.226  -0.831  0.00  0.00    +0.131 C 
BRANCH  29  31
ATOM     30  C   UNL     1      -0.163   2.017  -0.063  0.00  0.00    +0.009 C 
ATOM     31  C   UNL     1      -0.162   0.519   0.250  0.00  0.00    +0.003 C 
ATOM     32  C   UNL     1      -1.601   0.003   0.280  0.00  0.00    +0.009 C 
ENDBRANCH  29  31
ENDBRANCH   1  29
TORSDOF 10
