REMARK  Name = ZINC00850218
REMARK  9 active torsions:
REMARK  status: ('A' for Active; 'I' for Inactive)
REMARK    1  A    between atoms: C_1  and  C_2
REMARK    2  A    between atoms: C_2  and  O_3
REMARK    3  A    between atoms: O_3  and  C_4
REMARK    4  A    between atoms: C_4  and  C_6
REMARK    5  A    between atoms: C_7  and  N_29
REMARK    6  A    between atoms: C_11  and  C_13
REMARK    7  A    between atoms: C_16  and  N_19
REMARK    8  A    between atoms: C_25  and  C_27
REMARK    9  A    between atoms: C_25  and  C_28
REMARK                            x       y       z     vdW  Elec       q    Type
REMARK                         _______ _______ _______ _____ _____    ______ ____
ROOT
ATOM      1  C   UNL     1      -0.761   6.241   1.274  0.00  0.00    +0.105 C 
ATOM      2  C   UNL     1      -2.085   6.543   1.245  0.00  0.00    +0.195 C 
ATOM      3  O   UNL     1      -2.777   6.536   0.096  0.00  0.00    -0.446 OA
ATOM      4  C   UNL     1      -2.131   6.661  -1.078  0.00  0.00    +0.115 C 
ATOM      5  C   UNL     1      -0.822   6.373  -1.191  0.00  0.00    +0.045 C 
ATOM      6  C   UNL     1      -0.034   5.895   0.004  0.00  0.00    +0.097 C 
ATOM      7  C   UNL     1      -0.145   6.507  -2.420  0.00  0.00    +0.164 C 
ATOM      8  O   UNL     1       1.032   6.216  -2.488  0.00  0.00    -0.292 OA
ATOM      9  C   UNL     1      -0.856   7.002  -3.650  0.00  0.00    +0.086 C 
ATOM     10  C   UNL     1      -2.008   7.917  -3.220  0.00  0.00    -0.021 C 
ATOM     11  C   UNL     1      -2.922   7.135  -2.275  0.00  0.00    +0.081 C 
ATOM     12  C   UNL     1      -1.448   9.143  -2.496  0.00  0.00    +0.012 C 
ATOM     13  C   UNL     1      -2.797   8.364  -4.453  0.00  0.00    +0.012 C 
ENDROOT
BRANCH   6  14
ATOM     14  C   UNL     1       0.143   4.401  -0.078  0.00  0.00    -0.035 A 
ATOM     15  C   UNL     1       1.413   3.857  -0.130  0.00  0.00    +0.007 A 
ATOM     16  C   UNL     1       1.575   2.486  -0.206  0.00  0.00    +0.033 A 
ATOM     17  C   UNL     1       0.468   1.659  -0.230  0.00  0.00    +0.126 A 
ATOM     18  C   UNL     1      -0.802   2.203  -0.183  0.00  0.00    +0.033 A 
ATOM     19  C   UNL     1      -0.964   3.574  -0.102  0.00  0.00    +0.007 A 
BRANCH  17  20
ATOM     20  N   UNL     1       0.642   0.191  -0.312  0.00  0.00    +0.056 N 
ATOM     21  O   UNL     1       1.761  -0.288  -0.358  0.00  0.00    -0.126 OA
ATOM     22  O   UNL     1      -0.334  -0.537  -0.333  0.00  0.00    -0.126 OA
ENDBRANCH  17  20
ENDBRANCH   6  14
BRANCH   2  23
ATOM     23  N   UNL     1      -2.726   6.861   2.412  0.00  0.00    -0.329 N 
ATOM     24  H   UNL     1      -3.650   7.157   2.393  0.00  0.00    +0.145 HD
ATOM     25  H   UNL     1      -2.256   6.791   3.258  0.00  0.00    +0.145 HD
ENDBRANCH   2  23
BRANCH   1  26
ATOM     26  C   UNL     1      -0.069   6.252   2.494  0.00  0.00    +0.341 C 
ATOM     27  O   UNL     1       0.636   7.202   2.786  0.00  0.00    -0.245 OA
BRANCH  26  28
ATOM     28  O   UNL     1      -0.184   5.210   3.345  0.00  0.00    -0.462 OA
BRANCH  28  30
ATOM     29  C   UNL     1       0.294   4.026   5.397  0.00  0.00    +0.048 C 
ATOM     30  C   UNL     1       0.548   5.288   4.570  0.00  0.00    +0.229 C 
ENDBRANCH  28  30
ENDBRANCH  26  28
ENDBRANCH   1  26
TORSDOF 6
