REMARK  Name = ZINC00871866
REMARK  6 active torsions:
REMARK  status: ('A' for Active; 'I' for Inactive)
REMARK    1  A    between atoms: C_1  and  C_2
REMARK    2  A    between atoms: C_6  and  C_9
REMARK    3  A    between atoms: C_7  and  O_8
REMARK    4  A    between atoms: C_12  and  C_22
REMARK    5  A    between atoms: C_12  and  O_26
REMARK    6  A    between atoms: C_14  and  C_16
REMARK                            x       y       z     vdW  Elec       q    Type
REMARK                         _______ _______ _______ _____ _____    ______ ____
ROOT
ATOM      1  C   UNL     1       3.506   0.433  -0.029  0.00  0.00    +0.272 C 
ATOM      2  O   UNL     1       4.242   1.396  -0.134  0.00  0.00    -0.268 OA
ATOM      3  N   UNL     1       2.170   0.605  -0.002  0.00  0.00    -0.148 N 
ATOM      4  C   UNL     1       1.474   1.901   0.025  0.00  0.00    +0.257 C 
ATOM      5  C   UNL     1      -0.017   1.511   0.049  0.00  0.00    +0.124 C 
ATOM      6  C   UNL     1       0.002  -0.001   0.032  0.00  0.00    +0.072 C 
ATOM      7  N   UNL     1       1.222  -0.416   0.004  0.00  0.00    -0.178 NA
ENDROOT
BRANCH   1  13
ATOM      8  C   UNL     1       7.482  -2.574   0.353  0.00  0.00    +0.047 C 
ATOM      9  C   UNL     1       5.992  -2.379   0.254  0.00  0.00    -0.008 A 
ATOM     10  C   UNL     1       5.151  -3.474   0.256  0.00  0.00    +0.007 A 
ATOM     11  C   UNL     1       3.779  -3.305   0.164  0.00  0.00    +0.001 A 
ATOM     12  C   UNL     1       3.239  -2.040   0.072  0.00  0.00    +0.017 A 
ATOM     13  C   UNL     1       4.078  -0.923   0.070  0.00  0.00    +0.080 A 
ATOM     14  C   UNL     1       5.466  -1.099   0.156  0.00  0.00    +0.132 A 
BRANCH  14  15
ATOM     15  O   UNL     1       6.291  -0.022   0.149  0.00  0.00    -0.506 OA
ATOM     16  H   UNL     1       6.481   0.333   1.028  0.00  0.00    +0.292 HD
ENDBRANCH  14  15
ENDBRANCH   1  13
BRANCH   6  17
ATOM     17  C   UNL     1      -1.191  -0.867   0.045  0.00  0.00    +0.001 A 
ATOM     18  C   UNL     1      -2.480  -0.318   0.081  0.00  0.00    +0.029 A 
ATOM     19  C   UNL     1      -3.567  -1.165   0.086  0.00  0.00    +0.111 A 
ATOM     20  N   UNL     1      -3.406  -2.475   0.069  0.00  0.00    -0.263 NA
ATOM     21  C   UNL     1      -2.212  -3.034   0.040  0.00  0.00    +0.111 A 
ATOM     22  C   UNL     1      -1.069  -2.263   0.027  0.00  0.00    +0.029 A 
ENDBRANCH   6  17
BRANCH   4  23
ATOM     23  C   UNL     1       1.846   2.685   1.285  0.00  0.00    +0.438 C 
ATOM     24  F   UNL     1       1.602   1.896   2.414  0.00  0.00    -0.166 F 
ATOM     25  F   UNL     1       3.201   3.027   1.239  0.00  0.00    -0.166 F 
ATOM     26  F   UNL     1       1.073   3.849   1.355  0.00  0.00    -0.166 F 
ENDBRANCH   4  23
BRANCH   4  27
ATOM     27  O   UNL     1       1.777   2.659  -1.148  0.00  0.00    -0.363 OA
ATOM     28  H   UNL     1       2.703   2.931  -1.212  0.00  0.00    +0.212 HD
ENDBRANCH   4  27
TORSDOF 5
