REMARK  Name = ZINC09659597
REMARK  5 active torsions:
REMARK  status: ('A' for Active; 'I' for Inactive)
REMARK    1  A    between atoms: C_1  and  C_2
REMARK    2  A    between atoms: C_7  and  N_8
REMARK    3  A    between atoms: C_9  and  C_11
REMARK    4  A    between atoms: N_13  and  C_29
REMARK    5  A    between atoms: N_20  and  C_23
REMARK                            x       y       z     vdW  Elec       q    Type
REMARK                         _______ _______ _______ _____ _____    ______ ____
ROOT
ATOM      1  C   UNL     1       2.459   3.830  -0.047  0.00  0.00    +0.079 A 
ATOM      2  C   UNL     1       3.287   2.727  -0.134  0.00  0.00    +0.101 A 
ATOM      3  N   UNL     1       2.532   1.616  -0.169  0.00  0.00    -0.344 N 
ATOM      4  C   UNL     1       1.198   1.968  -0.105  0.00  0.00    +0.132 A 
ATOM      5  C   UNL     1       1.127   3.351  -0.028  0.00  0.00    +0.086 A 
ATOM      6  N   UNL     1      -0.111   3.962   0.047  0.00  0.00    -0.305 N 
ATOM      7  H   UNL     1      -0.172   4.929   0.101  0.00  0.00    +0.170 HD
ATOM      8  C   UNL     1      -1.233   3.217   0.044  0.00  0.00    +0.334 A 
ATOM      9  O   UNL     1      -2.314   3.770   0.109  0.00  0.00    -0.246 OA
ATOM     10  N   UNL     1      -1.184   1.876  -0.036  0.00  0.00    -0.227 N 
ATOM     11  C   UNL     1      -0.006   1.224  -0.105  0.00  0.00    +0.285 A 
ATOM     12  O   UNL     1       0.022   0.009  -0.171  0.00  0.00    -0.265 OA
ATOM     13  C   UNL     1       3.043   0.246  -0.260  0.00  0.00    +0.149 C 
ENDROOT
BRANCH  10  14
ATOM     14  C   UNL     1      -2.378   1.142  -0.041  0.00  0.00    +0.054 A 
ATOM     15  C   UNL     1      -2.590   0.151   0.908  0.00  0.00    +0.026 A 
ATOM     16  C   UNL     1      -3.770  -0.566   0.903  0.00  0.00    +0.002 A 
ATOM     17  C   UNL     1      -4.735  -0.306  -0.052  0.00  0.00    +0.000 A 
ATOM     18  C   UNL     1      -4.525   0.676  -1.002  0.00  0.00    +0.002 A 
ATOM     19  C   UNL     1      -3.349   1.401  -0.999  0.00  0.00    +0.026 A 
ENDBRANCH  10  14
BRANCH   1  21
ATOM     20  N   UNL     1       4.194   5.550  -0.011  0.00  0.00    -0.281 N 
ATOM     21  C   UNL     1       2.882   5.238   0.016  0.00  0.00    +0.252 C 
ATOM     22  O   UNL     1       2.049   6.121   0.092  0.00  0.00    -0.270 OA
ATOM     23  H   UNL     1       4.856   4.850  -0.124  0.00  0.00    +0.155 HD
BRANCH  20  30
ATOM     24  C   UNL     1       6.789   6.064   1.034  0.00  0.00    +0.045 C 
ATOM     25  C   UNL     1       5.858   7.178   0.629  0.00  0.00    -0.029 A 
ATOM     26  C   UNL     1       6.257   8.494   0.757  0.00  0.00    +0.006 A 
ATOM     27  C   UNL     1       5.402   9.517   0.391  0.00  0.00    +0.020 A 
ATOM     28  C   UNL     1       4.144   9.225  -0.109  0.00  0.00    +0.043 A 
ATOM     29  C   UNL     1       3.741   7.910  -0.244  0.00  0.00    +0.043 A 
ATOM     30  C   UNL     1       4.599   6.881   0.123  0.00  0.00    +0.038 A 
ATOM     31 CL   UNL     1       3.074  10.512  -0.567  0.00  0.00    -0.083 Cl
ENDBRANCH  20  30
ENDBRANCH   1  21
TORSDOF 3
