REMARK  Name = ZINC38798670
REMARK  5 active torsions:
REMARK  status: ('A' for Active; 'I' for Inactive)
REMARK    1  A    between atoms: C_1  and  C_2
REMARK    2  A    between atoms: C_2  and  C_4
REMARK    3  A    between atoms: C_2  and  N_17
REMARK    4  A    between atoms: C_20  and  C_23
REMARK    5  A    between atoms: C_26  and  O_29
REMARK                            x       y       z     vdW  Elec       q    Type
REMARK                         _______ _______ _______ _____ _____    ______ ____
ROOT
ATOM      1  C   UNL     1       0.266   1.181   0.226  0.00  0.00    -0.004 C 
ATOM      2  C   UNL     1       0.189  -0.332   0.012  0.00  0.00    +0.017 C 
ENDROOT
BRANCH   2   3
ATOM      3  C   UNL     1       0.772  -0.680  -1.334  0.00  0.00    +0.203 C 
ATOM      4  O   UNL     1       1.727  -1.423  -1.408  0.00  0.00    -0.277 OA
ATOM      5  N   UNL     1       0.231  -0.164  -2.456  0.00  0.00    -0.287 N 
ATOM      6  C   UNL     1       0.983   0.518  -3.297  0.00  0.00    +0.035 C 
ATOM      7  C   UNL     1       2.378   0.823  -2.954  0.00  0.00    +0.025 C 
ATOM      8  C   UNL     1       3.152   1.519  -3.809  0.00  0.00    +0.032 C 
ATOM      9  C   UNL     1       2.606   1.978  -5.090  0.00  0.00    +0.095 C 
ATOM     10  N   UNL     1       3.095   2.659  -6.108  0.00  0.00    -0.190 NA
ATOM     11  C   UNL     1       2.141   2.805  -7.043  0.00  0.00    +0.369 C 
ATOM     12  O   UNL     1       2.318   3.458  -8.217  0.00  0.00    -0.243 OA
ATOM     13  N   UNL     1       1.017   2.235  -6.677  0.00  0.00    -0.190 NA
ATOM     14  C   UNL     1       1.205   1.677  -5.446  0.00  0.00    +0.097 C 
ATOM     15  C   UNL     1       0.424   0.972  -4.589  0.00  0.00    +0.053 C 
ATOM     16  H   UNL     1      -0.712  -0.295  -2.644  0.00  0.00    +0.155 HD
ENDBRANCH   2   3
BRANCH   2  17
ATOM     17  N   UNL     1       0.951  -1.015   1.066  0.00  0.00    +0.390 N 
ATOM     18  C   UNL     1       0.868  -2.471   0.869  0.00  0.00    -0.073 C 
ATOM     19  C   UNL     1       1.868  -3.149   1.809  0.00  0.00    +0.017 C 
ATOM     20  C   UNL     1       1.691  -2.614   3.203  0.00  0.00    -0.048 C 
ATOM     21  C   UNL     1       1.028  -1.506   3.453  0.00  0.00    -0.041 C 
ATOM     22  C   UNL     1       0.385  -0.678   2.377  0.00  0.00    -0.050 C 
ATOM     23  H   UNL     1       1.916  -0.722   1.029  0.00  0.00    -0.080 HD
BRANCH  20  24
ATOM     24  C   UNL     1       2.282  -3.361   4.333  0.00  0.00    -0.022 A 
ATOM     25  C   UNL     1       3.668  -3.483   4.443  0.00  0.00    +0.012 A 
ATOM     26  C   UNL     1       4.215  -4.180   5.499  0.00  0.00    +0.046 A 
ATOM     27  C   UNL     1       3.389  -4.761   6.452  0.00  0.00    +0.117 A 
ATOM     28  C   UNL     1       2.010  -4.643   6.346  0.00  0.00    +0.046 A 
ATOM     29  C   UNL     1       1.455  -3.942   5.297  0.00  0.00    +0.012 A 
BRANCH  27  30
ATOM     30  O   UNL     1       3.933  -5.448   7.491  0.00  0.00    -0.507 OA
ATOM     31  H   UNL     1       4.117  -4.904   8.268  0.00  0.00    +0.292 HD
ENDBRANCH  27  30
ENDBRANCH  20  24
ENDBRANCH   2  17
TORSDOF 4
