REMARK  Name = ZINC21973531
REMARK  12 active torsions:
REMARK  status: ('A' for Active; 'I' for Inactive)
REMARK    1  A    between atoms: C_1  and  C_2
REMARK    2  A    between atoms: C_4  and  N_11
REMARK    3  A    between atoms: C_5  and  O_9
REMARK    4  A    between atoms: O_9  and  C_10
REMARK    5  A    between atoms: C_12  and  C_14
REMARK    6  A    between atoms: C_14  and  O_15
REMARK    7  A    between atoms: O_15  and  C_16
REMARK    8  A    between atoms: C_16  and  C_18
REMARK    9  A    between atoms: C_18  and  N_19
REMARK   10  A    between atoms: C_24  and  C_31
REMARK   11  A    between atoms: C_27  and  C_29
REMARK   12  A    between atoms: C_27  and  C_30
REMARK                            x       y       z     vdW  Elec       q    Type
REMARK                         _______ _______ _______ _____ _____    ______ ____
ROOT
ATOM      1  C   UNL     1      -5.334   0.869   6.418  0.00  0.00    +0.326 C 
ATOM      2  O   UNL     1      -4.876   1.984   6.497  0.00  0.00    -0.249 OA
ENDROOT
BRANCH   1   3
ATOM      3  O   UNL     1      -6.355   0.505   7.209  0.00  0.00    -0.454 OA
BRANCH   3   4
ATOM      4  C   UNL     1      -6.858   1.503   8.136  0.00  0.00    +0.328 C 
BRANCH   4   6
ATOM      5  N   UNL     1      -8.620   1.667   9.865  0.00  0.00    -0.280 N 
ATOM      6  C   UNL     1      -7.994   0.918   8.936  0.00  0.00    +0.255 C 
ATOM      7  O   UNL     1      -8.345  -0.227   8.743  0.00  0.00    -0.272 OA
ATOM      8  H   UNL     1      -8.361   2.730   9.980  0.00  0.00    +0.155 HD
BRANCH   5  12
ATOM      9  C   UNL     1     -10.357  -2.249  12.280  0.00  0.00    +0.045 C 
ATOM     10  C   UNL     1     -10.469  -0.803  11.870  0.00  0.00    -0.030 A 
ATOM     11  C   UNL     1      -9.500  -0.238  11.062  0.00  0.00    +0.031 A 
ATOM     12  C   UNL     1      -9.602   1.092  10.683  0.00  0.00    +0.076 A 
ATOM     13  C   UNL     1     -10.681   1.857  11.123  0.00  0.00    +0.143 A 
ATOM     14  C   UNL     1     -11.651   1.283  11.928  0.00  0.00    +0.067 A 
ATOM     15  C   UNL     1     -11.543  -0.045  12.302  0.00  0.00    +0.047 A 
ATOM     16 CL   UNL     1     -12.756  -0.760  13.316  0.00  0.00    -0.083 Cl
BRANCH  13  17
ATOM     17  O   UNL     1     -10.783   3.164  10.759  0.00  0.00    -0.493 OA
ATOM     18  C   UNL     1     -11.914   3.887  11.247  0.00  0.00    +0.277 C 
ENDBRANCH  13  17
ENDBRANCH   5  12
ENDBRANCH   4   6
ENDBRANCH   3   4
ENDBRANCH   1   3
BRANCH   1  19
ATOM     19  C   UNL     1      -4.759  -0.113   5.430  0.00  0.00    +0.238 C 
BRANCH  19  20
ATOM     20  N   UNL     1      -3.664   0.521   4.692  0.00  0.00    -0.213 N 
ATOM     21  C   UNL     1      -3.822   1.201   3.537  0.00  0.00    +0.247 C 
ATOM     22  O   UNL     1      -4.856   1.397   2.936  0.00  0.00    -0.273 OA
ATOM     23  C   UNL     1      -2.437   1.668   3.152  0.00  0.00    +0.113 C 
ATOM     24  C   UNL     1      -2.382   3.191   3.106  0.00  0.00    +0.038 C 
ATOM     25  C   UNL     1      -0.964   3.642   2.748  0.00  0.00    -0.011 C 
ATOM     26  C   UNL     1      -0.573   3.059   1.388  0.00  0.00    +0.009 C 
ATOM     27  C   UNL     1      -0.611   1.531   1.456  0.00  0.00    -0.032 C 
ATOM     28  C   UNL     1      -2.029   1.072   1.809  0.00  0.00    +0.041 C 
ATOM     29  C   UNL     1      -0.210   0.950   0.098  0.00  0.00    +0.011 C 
ATOM     30  C   UNL     1       0.365   1.043   2.528  0.00  0.00    +0.011 C 
ATOM     31  C   UNL     1      -0.915   5.170   2.681  0.00  0.00    +0.007 C 
ATOM     32  N   UNL     1      -1.576   1.155   4.225  0.00  0.00    -0.285 N 
ATOM     33  C   UNL     1      -2.383   0.498   5.079  0.00  0.00    +0.310 C 
ATOM     34  O   UNL     1      -1.992  -0.055   6.089  0.00  0.00    -0.252 OA
ATOM     35  H   UNL     1      -0.493   1.350   4.202  0.00  0.00    +0.151 HD
ENDBRANCH  19  20
ENDBRANCH   1  19
TORSDOF 7
