REMARK  Name = ZINC05415897
REMARK  8 active torsions:
REMARK  status: ('A' for Active; 'I' for Inactive)
REMARK    1  A    between atoms: C_1  and  C_2
REMARK    2  A    between atoms: C_2  and  C_18
REMARK    3  A    between atoms: C_3  and  C_10
REMARK    4  A    between atoms: C_3  and  O_16
REMARK    5  A    between atoms: C_5  and  O_8
REMARK    6  A    between atoms: N_6  and  O_7
REMARK    7  A    between atoms: O_8  and  C_9
REMARK    8  A    between atoms: O_16  and  C_17
REMARK                            x       y       z     vdW  Elec       q    Type
REMARK                         _______ _______ _______ _____ _____    ______ ____
ROOT
ATOM      1  C   UNL     1      -2.042   1.387   2.468  0.00  0.00    +0.042 C 
ATOM      2  C   UNL     1      -3.011   0.761   1.462  0.00  0.00    +0.121 C 
ATOM      3  C   UNL     1      -2.514   0.980   0.019  0.00  0.00    +0.216 C 
ATOM      4  N   UNL     1      -2.304  -0.381  -0.497  0.00  0.00    -0.191 NA
ATOM      5  C   UNL     1      -2.599  -1.250   0.411  0.00  0.00    +0.317 C 
ATOM      6  N   UNL     1      -3.021  -0.709   1.593  0.00  0.00    -0.196 N 
ATOM      7  C   UNL     1      -4.419   1.331   1.641  0.00  0.00    +0.042 C 
ENDROOT
BRANCH   3   8
ATOM      8  C   UNL     1      -1.219   1.751   0.017  0.00  0.00    +0.009 A 
ATOM      9  C   UNL     1      -0.013   1.076   0.008  0.00  0.00    +0.008 A 
ATOM     10  C   UNL     1       1.175   1.783   0.000  0.00  0.00    +0.000 A 
ATOM     11  C   UNL     1       1.156   3.165   0.008  0.00  0.00    +0.000 A 
ATOM     12  C   UNL     1      -0.050   3.840   0.022  0.00  0.00    +0.000 A 
ATOM     13  C   UNL     1      -1.238   3.133   0.030  0.00  0.00    +0.008 A 
ENDBRANCH   3   8
BRANCH   6  14
ATOM     14  O   UNL     1      -3.404  -1.436   2.746  0.00  0.00    -0.282 OA
ATOM     15  H   UNL     1      -3.490  -2.356   2.527  0.00  0.00    +0.245 HD
ENDBRANCH   6  14
BRANCH   5  16
ATOM     16  O   UNL     1      -2.500  -2.582   0.209  0.00  0.00    -0.466 OA
ATOM     17  C   UNL     1      -2.045  -3.011  -1.076  0.00  0.00    +0.280 C 
ENDBRANCH   5  16
BRANCH   3  18
ATOM     18  O   UNL     1      -3.503   1.662  -0.753  0.00  0.00    -0.350 OA
ATOM     19  C   UNL     1      -3.186   1.765  -2.143  0.00  0.00    +0.197 C 
ENDBRANCH   3  18
TORSDOF 4
