REMARK  Name = ZINC66733034
REMARK  3 active torsions:
REMARK  status: ('A' for Active; 'I' for Inactive)
REMARK    1  A    between atoms: C_1  and  C_2
REMARK    2  A    between atoms: C_4  and  C_25
REMARK    3  A    between atoms: C_12  and  C_14
REMARK                            x       y       z     vdW  Elec       q    Type
REMARK                         _______ _______ _______ _____ _____    ______ ____
ROOT
ATOM      1  C   UNL     1      -0.943   0.791  -0.411  0.00  0.00    +0.044 C 
ATOM      2  C   UNL     1      -0.057  -0.411  -0.206  0.00  0.00    -0.048 A 
ATOM      3  C   UNL     1       0.708  -0.893  -1.252  0.00  0.00    +0.007 A 
ATOM      4  C   UNL     1       1.520  -1.996  -1.068  0.00  0.00    -0.045 A 
ATOM      5  C   UNL     1       1.574  -2.625   0.165  0.00  0.00    -0.023 A 
ATOM      6  C   UNL     1       0.810  -2.140   1.214  0.00  0.00    +0.040 A 
ATOM      7  C   UNL     1      -0.004  -1.028   1.027  0.00  0.00    +0.027 A 
ATOM      8  N   UNL     1       0.852  -2.751   2.475  0.00  0.00    -0.267 N 
ATOM      9  C   UNL     1       1.470  -4.077   2.601  0.00  0.00    +0.114 C 
ATOM     10  C   UNL     1       2.784  -4.059   1.807  0.00  0.00    +0.024 C 
ATOM     11  C   UNL     1       2.466  -3.827   0.330  0.00  0.00    +0.039 C 
ATOM     12  C   UNL     1       0.333  -2.131   3.554  0.00  0.00    +0.251 C 
ATOM     13  O   UNL     1      -0.064  -0.985   3.464  0.00  0.00    -0.270 OA
ATOM     14  C   UNL     1       2.350  -2.516  -2.213  0.00  0.00    +0.044 C 
ENDROOT
BRANCH  12  15
ATOM     15  C   UNL     1       0.246  -2.844   4.843  0.00  0.00    +0.041 A 
ATOM     16  C   UNL     1      -0.011  -4.217   4.867  0.00  0.00    +0.015 A 
ATOM     17  C   UNL     1      -0.091  -4.884   6.070  0.00  0.00    +0.028 A 
ATOM     18  C   UNL     1       0.083  -4.191   7.261  0.00  0.00    +0.076 A 
ATOM     19  C   UNL     1       0.338  -2.818   7.244  0.00  0.00    +0.143 A 
ATOM     20  C   UNL     1       0.426  -2.147   6.041  0.00  0.00    +0.060 A 
ATOM     21  O   UNL     1       0.502  -2.153   8.419  0.00  0.00    -0.481 OA
ATOM     22  C   UNL     1      -0.252  -2.630   9.537  0.00  0.00    +0.325 C 
ATOM     23  C   UNL     1      -0.141  -4.131   9.618  0.00  0.00    +0.255 C 
ATOM     24  O   UNL     1      -0.182  -4.686  10.696  0.00  0.00    -0.272 OA
ATOM     25  N   UNL     1       0.004  -4.855   8.488  0.00  0.00    -0.280 N 
ATOM     26  H   UNL     1       0.053  -5.823   8.527  0.00  0.00    +0.155 HD
ENDBRANCH  12  15
TORSDOF 1
