REMARK  Name = ZINC36270384
REMARK  4 active torsions:
REMARK  status: ('A' for Active; 'I' for Inactive)
REMARK    1  A    between atoms: C_4  and  C_7
REMARK    2  A    between atoms: C_8  and  C_17
REMARK    3  A    between atoms: C_11  and  N_16
REMARK    4  A    between atoms: C_17  and  N_18
REMARK                            x       y       z     vdW  Elec       q    Type
REMARK                         _______ _______ _______ _____ _____    ______ ____
ROOT
ATOM      1  C   UNL     1       3.684  -0.717  -0.077  0.00  0.00    +0.094 A 
ATOM      2  C   UNL     1       3.990  -1.823   0.658  0.00  0.00    +0.065 A 
ATOM      3  N   UNL     1       5.297  -2.127   0.400  0.00  0.00    -0.300 N 
ATOM      4  C   UNL     1       6.118  -3.121   0.856  0.00  0.00    +0.115 A 
ATOM      5  C   UNL     1       7.404  -3.201   0.434  0.00  0.00    +0.041 A 
ATOM      6  C   UNL     1       7.907  -2.255  -0.482  0.00  0.00    +0.028 A 
ATOM      7  C   UNL     1       7.098  -1.264  -0.939  0.00  0.00    +0.048 A 
ATOM      8  C   UNL     1       5.763  -1.196  -0.490  0.00  0.00    +0.139 A 
ATOM      9  N   UNL     1       4.774  -0.358  -0.771  0.00  0.00    -0.227 NA
ENDROOT
BRANCH   1  13
ATOM     10  C   UNL     1      -0.087   1.246  -0.168  0.00  0.00    +0.000 A 
ATOM     11  C   UNL     1       0.436   0.815   1.037  0.00  0.00    +0.001 A 
ATOM     12  C   UNL     1       1.659   0.176   1.073  0.00  0.00    +0.010 A 
ATOM     13  C   UNL     1       2.368  -0.033  -0.109  0.00  0.00    +0.002 A 
ATOM     14  C   UNL     1       1.836   0.404  -1.320  0.00  0.00    +0.010 A 
ATOM     15  C   UNL     1       0.612   1.042  -1.344  0.00  0.00    +0.001 A 
ENDBRANCH   1  13
BRANCH   5  16
ATOM     16  N   UNL     1       8.234  -4.225   0.909  0.00  0.00    -0.357 N 
ATOM     17  H   UNL     1       7.888  -4.876   1.539  0.00  0.00    +0.142 HD
ATOM     18  H   UNL     1       9.154  -4.283   0.607  0.00  0.00    +0.142 HD
ENDBRANCH   5  16
BRANCH   2  19
ATOM     19  C   UNL     1       3.063  -2.570   1.582  0.00  0.00    +0.140 C 
BRANCH  19  20
ATOM     20  N   UNL     1       3.114  -1.968   2.920  0.00  0.00    -0.294 NA
ATOM     21  C   UNL     1       4.441  -2.144   3.527  0.00  0.00    +0.104 C 
ATOM     22  C   UNL     1       4.510  -1.351   4.836  0.00  0.00    +0.123 C 
ATOM     23  N   UNL     1       3.379  -1.752   5.686  0.00  0.00    -0.297 N 
ATOM     24  C   UNL     1       2.029  -1.732   5.103  0.00  0.00    +0.123 C 
ATOM     25  C   UNL     1       2.057  -2.510   3.783  0.00  0.00    +0.104 C 
ATOM     26  C   UNL     1       3.579  -2.137   7.000  0.00  0.00    +0.218 A 
ATOM     27  N   UNL     1       4.809  -2.137   7.494  0.00  0.00    -0.223 NA
ATOM     28  C   UNL     1       5.035  -2.499   8.745  0.00  0.00    +0.116 A 
ATOM     29  C   UNL     1       3.967  -2.881   9.542  0.00  0.00    +0.039 A 
ATOM     30  C   UNL     1       2.694  -2.869   8.994  0.00  0.00    +0.116 A 
ATOM     31  N   UNL     1       2.536  -2.491   7.736  0.00  0.00    -0.223 NA
ENDBRANCH  19  20
ENDBRANCH   2  19
TORSDOF 4
