REMARK  Name = ZINC06203583
REMARK  7 active torsions:
REMARK  status: ('A' for Active; 'I' for Inactive)
REMARK    1  A    between atoms: C_1  and  C_2
REMARK    2  A    between atoms: C_5  and  N_9
REMARK    3  A    between atoms: C_6  and  C_8
REMARK    4  A    between atoms: C_10  and  C_12
REMARK    5  A    between atoms: N_17  and  C_29
REMARK    6  A    between atoms: N_19  and  C_20
REMARK    7  A    between atoms: C_23  and  C_27
REMARK                            x       y       z     vdW  Elec       q    Type
REMARK                         _______ _______ _______ _____ _____    ______ ____
ROOT
ATOM      1  C   UNL     1      -0.134  -6.343  -1.187  0.00  0.00    +0.149 C 
ATOM      2  C   UNL     1      -0.929  -6.811  -2.407  0.00  0.00    +0.120 C 
ATOM      3  C   UNL     1      -0.882  -8.290  -2.584  0.00  0.00    +0.223 C 
ATOM      4  O   UNL     1      -1.838  -8.784  -3.143  0.00  0.00    -0.275 OA
ATOM      5  N   UNL     1       0.066  -9.137  -2.212  0.00  0.00    -0.254 N 
ATOM      6  C   UNL     1       1.161  -8.790  -1.441  0.00  0.00    +0.164 C 
ATOM      7  N   UNL     1       1.891  -9.702  -0.843  0.00  0.00    -0.226 NA
ATOM      8  S   UNL     1       1.537  -7.064  -1.293  0.00  0.00    -0.077 S 
ATOM      9  C   UNL     1      -0.053 -10.532  -2.644  0.00  0.00    +0.140 C 
ENDROOT
BRANCH   7  10
ATOM     10  C   UNL     1       2.970  -9.327  -0.086  0.00  0.00    +0.068 A 
ATOM     11  C   UNL     1       3.859  -8.362  -0.563  0.00  0.00    +0.028 A 
ATOM     12  C   UNL     1       4.944  -7.988   0.203  0.00  0.00    +0.007 A 
ATOM     13  C   UNL     1       5.152  -8.568   1.442  0.00  0.00    -0.032 A 
ATOM     14  C   UNL     1       4.274  -9.526   1.921  0.00  0.00    +0.046 A 
ATOM     15  C   UNL     1       3.181  -9.903   1.167  0.00  0.00    +0.048 A 
ATOM     16 CL   UNL     1       4.545 -10.248   3.477  0.00  0.00    -0.083 Cl
ATOM     17  C   UNL     1       6.339  -8.155   2.274  0.00  0.00    +0.045 C 
ENDBRANCH   7  10
BRANCH   1  19
ATOM     18  N   UNL     1       0.059  -4.170  -0.021  0.00  0.00    -0.284 N 
ATOM     19  C   UNL     1      -0.040  -4.839  -1.187  0.00  0.00    +0.231 C 
ATOM     20  O   UNL     1      -0.054  -4.230  -2.236  0.00  0.00    -0.274 OA
ATOM     21  H   UNL     1       0.135  -4.658   0.814  0.00  0.00    +0.155 HD
BRANCH  18  26
ATOM     22  C   UNL     1       0.025   1.503   0.005  0.00  0.00    +0.044 C 
ATOM     23  C   UNL     1       0.034  -0.004  -0.002  0.00  0.00    -0.050 A 
ATOM     24  C   UNL     1       0.632  -0.685  -1.046  0.00  0.00    +0.005 A 
ATOM     25  C   UNL     1       0.641  -2.066  -1.055  0.00  0.00    +0.024 A 
ATOM     26  C   UNL     1       0.051  -2.771  -0.014  0.00  0.00    +0.036 A 
ATOM     27  C   UNL     1      -0.548  -2.083   1.033  0.00  0.00    -0.029 A 
ATOM     28  C   UNL     1      -0.550  -0.702   1.039  0.00  0.00    +0.008 A 
ATOM     29  C   UNL     1      -1.190  -2.843   2.165  0.00  0.00    +0.045 C 
ENDBRANCH  18  26
ENDBRANCH   1  19
TORSDOF 3
