REMARK  Name = ZINC37190125
REMARK  6 active torsions:
REMARK  status: ('A' for Active; 'I' for Inactive)
REMARK    1  A    between atoms: C_1  and  C_2
REMARK    2  A    between atoms: C_2  and  C_4
REMARK    3  A    between atoms: C_2  and  S_11
REMARK    4  A    between atoms: N_9  and  C_10
REMARK    5  A    between atoms: S_11  and  C_12
REMARK    6  A    between atoms: C_17  and  N_18
REMARK                            x       y       z     vdW  Elec       q    Type
REMARK                         _______ _______ _______ _____ _____    ______ ____
ROOT
ATOM      1  C   UNL     1       0.095   1.513  -0.086  0.00  0.00    +0.029 C 
ATOM      2  C   UNL     1       0.293  -0.002  -0.167  0.00  0.00    +0.134 C 
ENDROOT
BRANCH   2   3
ATOM      3  C   UNL     1       1.227  -0.327  -1.304  0.00  0.00    +0.233 C 
ATOM      4  O   UNL     1       2.395  -0.564  -1.081  0.00  0.00    -0.274 OA
ATOM      5  N   UNL     1       0.764  -0.354  -2.569  0.00  0.00    -0.239 N 
ATOM      6  C   UNL     1       1.599  -0.644  -3.587  0.00  0.00    +0.306 C 
ATOM      7  O   UNL     1       2.769  -0.882  -3.363  0.00  0.00    -0.252 OA
ATOM      8  N   UNL     1       1.136  -0.671  -4.852  0.00  0.00    -0.302 N 
ATOM      9  C   UNL     1       2.043  -0.987  -5.958  0.00  0.00    +0.129 C 
ATOM     10  H   UNL     1      -0.171  -0.164  -2.748  0.00  0.00    +0.159 HD
ATOM     11  H   UNL     1       0.201  -0.482  -5.031  0.00  0.00    +0.150 HD
ENDBRANCH   2   3
BRANCH   2  12
ATOM     12  S   UNL     1       1.004  -0.603   1.390  0.00  0.00    -0.111 S 
BRANCH  12  13
ATOM     13  C   UNL     1       0.931  -2.357   1.244  0.00  0.00    +0.032 A 
ATOM     14  C   UNL     1       0.300  -2.958   0.157  0.00  0.00    +0.036 A 
ATOM     15  C   UNL     1       0.263  -4.336   0.079  0.00  0.00    +0.112 A 
ATOM     16  N   UNL     1       0.815  -5.084   1.015  0.00  0.00    -0.261 NA
ATOM     17  C   UNL     1       1.423  -4.558   2.062  0.00  0.00    +0.134 A 
ATOM     18  C   UNL     1       1.510  -3.185   2.214  0.00  0.00    +0.057 A 
BRANCH  18  19
ATOM     19  N   UNL     1       2.162  -2.632   3.324  0.00  0.00    -0.356 N 
ATOM     20  H   UNL     1       2.215  -1.668   3.425  0.00  0.00    +0.142 HD
ATOM     21  H   UNL     1       2.560  -3.212   3.991  0.00  0.00    +0.142 HD
ENDBRANCH  18  19
ENDBRANCH  12  13
ENDBRANCH   2  12
TORSDOF 4
