REMARK  Name = ZINC44024144
REMARK  7 active torsions:
REMARK  status: ('A' for Active; 'I' for Inactive)
REMARK    1  A    between atoms: C_1  and  C_2
REMARK    2  A    between atoms: C_8  and  N_10
REMARK    3  A    between atoms: N_10  and  C_11
REMARK    4  A    between atoms: C_11  and  N_13
REMARK    5  A    between atoms: N_13  and  N_14
REMARK    6  A    between atoms: C_15  and  C_17
REMARK    7  A    between atoms: C_20  and  C_22
REMARK                            x       y       z     vdW  Elec       q    Type
REMARK                         _______ _______ _______ _____ _____    ______ ____
ROOT
ATOM      1  N   UNL     1      -1.257   0.843   4.663  0.00  0.00    -0.230 N 
ATOM      2  C   UNL     1      -1.888   1.278   5.772  0.00  0.00    +0.279 C 
ATOM      3  O   UNL     1      -1.273   1.396   6.814  0.00  0.00    -0.267 OA
ATOM      4  H   UNL     1      -1.748   0.748   3.831  0.00  0.00    +0.173 HD
ENDROOT
BRANCH   2   5
ATOM      5  C   UNL     1      -3.322   1.609   5.721  0.00  0.00    +0.135 A 
ATOM      6  C   UNL     1      -3.971   2.056   6.841  0.00  0.00    +0.080 A 
ATOM      7  S   UNL     1      -5.543   2.288   6.284  0.00  0.00    -0.072 S 
ATOM      8  C   UNL     1      -5.290   1.787   4.591  0.00  0.00    +0.144 A 
ATOM      9  N   UNL     1      -4.002   1.483   4.589  0.00  0.00    -0.231 NA
BRANCH   8  10
ATOM     10  C   UNL     1      -6.258   1.731   3.485  0.00  0.00    +0.160 A 
ATOM     11  C   UNL     1      -7.575   2.072   3.557  0.00  0.00    +0.052 A 
ATOM     12  C   UNL     1      -8.118   1.866   2.274  0.00  0.00    +0.042 A 
ATOM     13  C   UNL     1      -7.118   1.414   1.490  0.00  0.00    +0.196 A 
ATOM     14  O   UNL     1      -5.996   1.340   2.222  0.00  0.00    -0.461 OA
ENDBRANCH   8  10
ENDBRANCH   2   5
BRANCH   1  15
ATOM     15  N   UNL     1       0.107   0.528   4.711  0.00  0.00    -0.246 N 
ATOM     16  H   UNL     1       0.598   0.623   5.542  0.00  0.00    +0.172 HD
BRANCH  15  17
ATOM     17  C   UNL     1       0.738   0.093   3.602  0.00  0.00    +0.147 C 
ATOM     18  S   UNL     1       2.405  -0.292   3.661  0.00  0.00    -0.017 S 
BRANCH  17  19
ATOM     19  N   UNL     1       0.056  -0.038   2.447  0.00  0.00    -0.322 N 
ATOM     20  H   UNL     1      -0.888   0.180   2.413  0.00  0.00    +0.148 HD
BRANCH  19  27
ATOM     21  C   UNL     1      -0.019   1.526   0.010  0.00  0.00    +0.009 C 
ATOM     22  C   UNL     1       0.002  -0.004   0.002  0.00  0.00    +0.006 C 
ATOM     23  C   UNL     1      -1.433  -0.534   0.013  0.00  0.00    +0.005 C 
ATOM     24  C   UNL     1      -1.413  -2.063   0.004  0.00  0.00    +0.000 C 
ATOM     25  C   UNL     1      -0.673  -2.570   1.244  0.00  0.00    +0.002 C 
ATOM     26  C   UNL     1       0.763  -2.041   1.233  0.00  0.00    +0.022 C 
ATOM     27  C   UNL     1       0.742  -0.511   1.242  0.00  0.00    +0.075 C 
ENDBRANCH  19  27
ENDBRANCH  17  19
ENDBRANCH  15  17
ENDBRANCH   1  15
TORSDOF 6
