REMARK  Name = ZINC27441787
REMARK  10 active torsions:
REMARK  status: ('A' for Active; 'I' for Inactive)
REMARK    1  A    between atoms: C_1  and  C_2
REMARK    2  A    between atoms: C_2  and  C_4
REMARK    3  A    between atoms: C_2  and  N_32
REMARK    4  A    between atoms: C_7  and  S_16
REMARK    5  A    between atoms: N_8  and  C_9
REMARK    6  A    between atoms: S_16  and  C_17
REMARK    7  A    between atoms: C_17  and  C_18
REMARK    8  A    between atoms: N_20  and  C_21
REMARK    9  A    between atoms: N_32  and  C_33
REMARK   10  A    between atoms: N_32  and  C_34
REMARK                            x       y       z     vdW  Elec       q    Type
REMARK                         _______ _______ _______ _____ _____    ______ ____
ROOT
ATOM      1  C   UNL     1       2.041   0.584  -0.014  0.00  0.00    +0.125 A 
ATOM      2  N   UNL     1       1.216  -0.425  -0.012  0.00  0.00    -0.135 NA
ATOM      3  N   UNL     1       0.002  -0.004   0.002  0.00  0.00    -0.122 NA
ATOM      4  C   UNL     1      -0.016   1.309   0.009  0.00  0.00    +0.197 A 
ATOM      5  N   UNL     1       1.287   1.726  -0.001  0.00  0.00    -0.275 N 
ENDROOT
BRANCH   5   6
ATOM      6  C   UNL     1       1.753   3.050   0.001  0.00  0.00    +0.050 A 
ATOM      7  C   UNL     1       2.457   3.540  -1.090  0.00  0.00    +0.029 A 
ATOM      8  C   UNL     1       2.911   4.845  -1.089  0.00  0.00    +0.040 A 
ATOM      9  C   UNL     1       2.673   5.660   0.005  0.00  0.00    +0.124 A 
ATOM     10  C   UNL     1       1.975   5.171   1.096  0.00  0.00    +0.040 A 
ATOM     11  C   UNL     1       1.515   3.869   1.096  0.00  0.00    +0.029 A 
ATOM     12  F   UNL     1       3.123   6.934   0.007  0.00  0.00    -0.205 F 
ENDBRANCH   5   6
BRANCH   1  14
ATOM     13  C   UNL     1       4.023   0.115  -1.430  0.00  0.00    -0.005 C 
ATOM     14  C   UNL     1       3.546   0.507  -0.029  0.00  0.00    -0.003 C 
BRANCH  14  15
ATOM     15  N   UNL     1       3.995  -0.501   0.940  0.00  0.00    +0.382 N 
ATOM     16  C   UNL     1       5.460  -0.604   0.953  0.00  0.00    -0.096 C 
ATOM     17  C   UNL     1       3.476  -0.208   2.283  0.00  0.00    -0.096 C 
ATOM     18  H   UNL     1       3.590  -1.475   0.627  0.00  0.00    -0.082 HD
ENDBRANCH  14  15
ENDBRANCH   1  14
BRANCH   4  19
ATOM     19  S   UNL     1      -1.446   2.337   0.022  0.00  0.00    -0.076 S 
BRANCH  19  20
ATOM     20  C   UNL     1      -2.742   1.074   0.022  0.00  0.00    +0.173 C 
BRANCH  20  21
ATOM     21  C   UNL     1      -4.094   1.740   0.033  0.00  0.00    +0.224 C 
ATOM     22  O   UNL     1      -4.173   2.951   0.039  0.00  0.00    -0.275 OA
ATOM     23  N   UNL     1      -5.214   0.992   0.035  0.00  0.00    -0.308 N 
ATOM     24  H   UNL     1      -5.142  -0.106   0.029  0.00  0.00    +0.149 HD
BRANCH  23  25
ATOM     25  C   UNL     1      -6.528   1.639   0.045  0.00  0.00    +0.110 C 
ATOM     26  C   UNL     1      -7.566   0.697  -0.570  0.00  0.00    +0.068 C 
ATOM     27  C   UNL     1      -8.962   1.264  -0.283  0.00  0.00    +0.231 C 
ATOM     28  O   UNL     1      -9.176   1.241   1.129  0.00  0.00    -0.492 OA
ATOM     29  C   UNL     1      -8.204   1.757   1.927  0.00  0.00    +0.125 A 
ATOM     30  C   UNL     1      -6.916   1.965   1.465  0.00  0.00    +0.014 A 
ATOM     31  C   UNL     1      -5.955   2.484   2.316  0.00  0.00    +0.009 A 
ATOM     32  C   UNL     1      -6.276   2.797   3.622  0.00  0.00    +0.001 A 
ATOM     33  C   UNL     1      -7.562   2.593   4.086  0.00  0.00    +0.004 A 
ATOM     34  C   UNL     1      -8.524   2.075   3.242  0.00  0.00    +0.046 A 
ENDBRANCH  23  25
ENDBRANCH  20  21
ENDBRANCH  19  20
ENDBRANCH   4  19
TORSDOF 7
