REMARK  Name = ZINC67456857
REMARK  10 active torsions:
REMARK  status: ('A' for Active; 'I' for Inactive)
REMARK    1  A    between atoms: C_1  and  C_2
REMARK    2  A    between atoms: C_2  and  C_3
REMARK    3  A    between atoms: C_2  and  C_4
REMARK    4  A    between atoms: N_6  and  C_7
REMARK    5  A    between atoms: C_7  and  C_8
REMARK    6  A    between atoms: C_8  and  N_9
REMARK    7  A    between atoms: N_12  and  C_13
REMARK    8  A    between atoms: C_13  and  C_14
REMARK    9  A    between atoms: N_19  and  C_20
REMARK   10  A    between atoms: C_20  and  C_21
REMARK                            x       y       z     vdW  Elec       q    Type
REMARK                         _______ _______ _______ _____ _____    ______ ____
ROOT
ATOM      1  N   UNL     1       4.798  -0.561  -3.883  0.00  0.00    -0.298 N 
ATOM      2  C   UNL     1       6.082  -0.217  -4.107  0.00  0.00    +0.300 C 
ATOM      3  O   UNL     1       6.671   0.486  -3.308  0.00  0.00    -0.253 OA
ATOM      4  N   UNL     1       6.713  -0.651  -5.216  0.00  0.00    -0.301 N 
ATOM      5  H   UNL     1       4.328  -1.122  -4.520  0.00  0.00    +0.150 HD
ATOM      6  H   UNL     1       6.243  -1.212  -5.853  0.00  0.00    +0.150 HD
ENDROOT
BRANCH   1   7
ATOM      7  C   UNL     1       4.112  -0.089  -2.678  0.00  0.00    +0.124 C 
BRANCH   7   8
ATOM      8  C   UNL     1       2.677  -0.618  -2.667  0.00  0.00    +0.123 C 
BRANCH   8  11
ATOM      9  C   UNL     1       0.707  -0.490  -1.238  0.00  0.00    +0.216 C 
ATOM     10  O   UNL     1       0.120  -1.191  -2.034  0.00  0.00    -0.276 OA
ATOM     11  N   UNL     1       1.991  -0.146  -1.462  0.00  0.00    -0.314 N 
ATOM     12  H   UNL     1       2.461   0.415  -0.825  0.00  0.00    +0.149 HD
BRANCH   9  14
ATOM     13  C   UNL     1      -0.019   1.526   0.010  0.00  0.00    +0.017 C 
ATOM     14  C   UNL     1       0.002  -0.004   0.002  0.00  0.00    +0.069 C 
ATOM     15  C   UNL     1      -1.433  -0.534   0.013  0.00  0.00    +0.017 C 
ENDBRANCH   9  14
ENDBRANCH   8  11
ENDBRANCH   7   8
ENDBRANCH   1   7
BRANCH   4  16
ATOM     16  C   UNL     1       8.108  -0.277  -5.459  0.00  0.00    +0.090 C 
BRANCH  16  17
ATOM     17  C   UNL     1       8.580  -0.897  -6.776  0.00  0.00    -0.051 C 
ATOM     18  C   UNL     1       9.989  -0.374  -7.127  0.00  0.00    -0.016 C 
ATOM     19  C   UNL     1       9.923  -0.199  -8.666  0.00  0.00    -0.020 C 
ATOM     20  C   UNL     1       8.461   0.272  -8.866  0.00  0.00    -0.078 C 
ATOM     21  N   UNL     1       7.677  -0.497  -7.870  0.00  0.00    +0.383 N 
ATOM     22  H   UNL     1       6.934   0.079  -7.504  0.00  0.00    -0.081 HD
BRANCH  21  23
ATOM     23  C   UNL     1       7.107  -1.694  -8.503  0.00  0.00    -0.075 C 
BRANCH  23  24
ATOM     24  C   UNL     1       6.077  -1.274  -9.554  0.00  0.00    -0.028 C 
ATOM     25  C   UNL     1       4.900  -0.580  -8.866  0.00  0.00    +0.002 C 
ATOM     26  C   UNL     1       3.870  -0.161  -9.916  0.00  0.00    +0.000 C 
ATOM     27  C   UNL     1       3.368  -1.399 -10.661  0.00  0.00    +0.000 C 
ATOM     28  C   UNL     1       4.545  -2.092 -11.350  0.00  0.00    +0.000 C 
ATOM     29  C   UNL     1       5.574  -2.512 -10.299  0.00  0.00    +0.002 C 
ENDBRANCH  23  24
ENDBRANCH  21  23
ENDBRANCH  16  17
ENDBRANCH   4  16
TORSDOF 8
