REMARK  Name = ZINC38776897
REMARK  10 active torsions:
REMARK  status: ('A' for Active; 'I' for Inactive)
REMARK    1  A    between atoms: C_1  and  C_2
REMARK    2  A    between atoms: C_2  and  O_3
REMARK    3  A    between atoms: O_3  and  C_4
REMARK    4  A    between atoms: C_7  and  C_10
REMARK    5  A    between atoms: N_12  and  C_13
REMARK    6  A    between atoms: C_13  and  C_15
REMARK    7  A    between atoms: C_13  and  C_19
REMARK    8  A    between atoms: C_15  and  C_16
REMARK    9  A    between atoms: C_16  and  S_17
REMARK   10  A    between atoms: S_17  and  C_18
REMARK                            x       y       z     vdW  Elec       q    Type
REMARK                         _______ _______ _______ _____ _____    ______ ____
ROOT
ATOM      1  C   UNL     1      -3.407  -8.053  -0.018  0.00  0.00    +0.160 C 
ENDROOT
BRANCH   1   2
ATOM      2  C   UNL     1      -4.789  -8.304  -0.565  0.00  0.00    +0.236 C 
ATOM      3  O   UNL     1      -5.578  -7.388  -0.662  0.00  0.00    -0.274 OA
ATOM      4  N   UNL     1      -5.147  -9.546  -0.947  0.00  0.00    -0.300 N 
ATOM      5  C   UNL     1      -4.247 -10.686  -0.727  0.00  0.00    +0.106 C 
ATOM      6  C   UNL     1      -4.035 -11.411  -2.060  0.00  0.00    +0.009 C 
ATOM      7  C   UNL     1      -5.393 -11.786  -2.655  0.00  0.00    -0.037 C 
ATOM      8  C   UNL     1      -6.211 -10.521  -2.915  0.00  0.00    +0.009 C 
ATOM      9  C   UNL     1      -6.448  -9.787  -1.586  0.00  0.00    +0.106 C 
ATOM     10  C   UNL     1      -5.187 -12.546  -3.965  0.00  0.00    +0.140 C 
ATOM     11  C   UNL     1      -4.485 -13.845  -3.582  0.00  0.00    +0.042 C 
ATOM     12  N   UNL     1      -3.414 -13.885  -4.273  0.00  0.00    -0.243 NA
ATOM     13  C   UNL     1      -3.244 -12.754  -5.000  0.00  0.00    +0.216 C 
ATOM     14  N   UNL     1      -4.231 -11.895  -4.862  0.00  0.00    -0.264 NA
ATOM     15  C   UNL     1      -5.017 -14.732  -2.485  0.00  0.00    +0.034 C 
ATOM     16  C   UNL     1      -5.306 -13.803  -1.292  0.00  0.00    -0.076 C 
ATOM     17  N   UNL     1      -6.116 -12.659  -1.719  0.00  0.00    +0.385 N 
ATOM     18  H   UNL     1      -6.380 -12.122  -0.907  0.00  0.00    -0.085 HD
ATOM     19  H   UNL     1      -6.952 -13.000  -2.170  0.00  0.00    -0.085 HD
ENDBRANCH   1   2
BRANCH   1  22
ATOM     20  C   UNL     1      -1.766  -6.270  -0.268  0.00  0.00    +0.245 C 
ATOM     21  O   UNL     1      -0.887  -7.106  -0.183  0.00  0.00    -0.270 OA
ATOM     22  N   UNL     1      -3.059  -6.642  -0.198  0.00  0.00    -0.300 N 
ATOM     23  H   UNL     1      -3.760  -5.974  -0.266  0.00  0.00    +0.150 HD
BRANCH  20  27
ATOM     24  C   UNL     1      -0.758  -2.178  -0.791  0.00  0.00    +0.121 A 
ATOM     25  C   UNL     1       0.248  -3.132  -0.693  0.00  0.00    +0.046 A 
ATOM     26  C   UNL     1      -0.075  -4.460  -0.523  0.00  0.00    +0.016 A 
ATOM     27  C   UNL     1      -1.416  -4.848  -0.450  0.00  0.00    +0.037 A 
ATOM     28  C   UNL     1      -2.424  -3.885  -0.548  0.00  0.00    +0.016 A 
ATOM     29  C   UNL     1      -2.093  -2.558  -0.713  0.00  0.00    +0.046 A 
BRANCH  24  30
ATOM     30  O   UNL     1      -0.436  -0.870  -0.958  0.00  0.00    -0.492 OA
BRANCH  30  32
ATOM     31  C   UNL     1       1.120   0.961  -1.218  0.00  0.00    +0.048 C 
ATOM     32  C   UNL     1       0.954  -0.548  -1.030  0.00  0.00    +0.225 C 
ENDBRANCH  30  32
ENDBRANCH  24  30
ENDBRANCH  20  27
ENDBRANCH   1  22
BRANCH   1  33
ATOM     33  C   UNL     1      -3.378  -8.400   1.472  0.00  0.00    +0.042 C 
BRANCH  33  34
ATOM     34  C   UNL     1      -1.946  -8.281   1.996  0.00  0.00    +0.071 C 
BRANCH  34  35
ATOM     35  S   UNL     1      -1.911  -8.692   3.762  0.00  0.00    -0.164 S 
ATOM     36  C   UNL     1      -0.167  -8.505   4.222  0.00  0.00    +0.084 C 
ENDBRANCH  34  35
ENDBRANCH  33  34
ENDBRANCH   1  33
TORSDOF 8
