REMARK  Name = ZINC62748824
REMARK  8 active torsions:
REMARK  status: ('A' for Active; 'I' for Inactive)
REMARK    1  A    between atoms: C_1  and  C_2
REMARK    2  A    between atoms: C_2  and  C_4
REMARK    3  A    between atoms: C_2  and  O_22
REMARK    4  A    between atoms: C_9  and  O_10
REMARK    5  A    between atoms: O_10  and  C_11
REMARK    6  A    between atoms: C_11  and  C_13
REMARK    7  A    between atoms: C_11  and  C_14
REMARK    8  A    between atoms: N_19  and  C_20
REMARK                            x       y       z     vdW  Elec       q    Type
REMARK                         _______ _______ _______ _____ _____    ______ ____
ROOT
ATOM      1  O   UNL     1      -1.520  -0.324  -2.355  0.00  0.00    -0.479 OA
ENDROOT
BRANCH   1   7
ATOM      2  C   UNL     1      -1.502  -0.332   0.024  0.00  0.00    +0.022 A 
ATOM      3  C   UNL     1      -2.180  -0.466   1.220  0.00  0.00    +0.012 A 
ATOM      4  C   UNL     1      -3.536  -0.732   1.223  0.00  0.00    +0.039 A 
ATOM      5  C   UNL     1      -4.219  -0.867   0.026  0.00  0.00    +0.127 A 
ATOM      6  C   UNL     1      -3.544  -0.734  -1.175  0.00  0.00    +0.084 A 
ATOM      7  C   UNL     1      -2.184  -0.460  -1.177  0.00  0.00    +0.130 A 
ATOM      8  F   UNL     1      -5.545  -1.128   0.030  0.00  0.00    -0.205 F 
BRANCH   2  10
ATOM      9  C   UNL     1       0.199   1.468  -0.096  0.00  0.00    +0.043 C 
ATOM     10  C   UNL     1      -0.024  -0.041   0.023  0.00  0.00    +0.145 C 
BRANCH  10  11
ATOM     11  O   UNL     1       0.555  -0.513   1.241  0.00  0.00    -0.387 OA
ATOM     12  H   UNL     1       1.508  -0.359   1.310  0.00  0.00    +0.210 HD
ENDBRANCH  10  11
ENDBRANCH   2  10
ENDBRANCH   1   7
BRANCH   1  13
ATOM     13  C   UNL     1      -2.257  -0.592  -3.550  0.00  0.00    +0.256 C 
ATOM     14  C   UNL     1      -3.021   0.665  -3.970  0.00  0.00    +0.062 C 
BRANCH  13  15
ATOM     15  C   UNL     1      -1.305  -0.991  -4.648  0.00  0.00    +0.261 C 
ATOM     16  O   UNL     1      -0.113  -1.042  -4.429  0.00  0.00    -0.271 OA
ATOM     17  N   UNL     1      -1.778  -1.292  -5.874  0.00  0.00    -0.237 N 
ATOM     18  C   UNL     1      -0.926  -1.650  -6.855  0.00  0.00    +0.306 C 
ATOM     19  O   UNL     1       0.268  -1.700  -6.636  0.00  0.00    -0.252 OA
ATOM     20  N   UNL     1      -1.399  -1.951  -8.081  0.00  0.00    -0.302 N 
ATOM     21  C   UNL     1      -0.474  -2.339  -9.148  0.00  0.00    +0.129 C 
ATOM     22  H   UNL     1      -2.731  -1.252  -6.049  0.00  0.00    +0.159 HD
ATOM     23  H   UNL     1      -2.352  -1.911  -8.256  0.00  0.00    +0.150 HD
ENDBRANCH  13  15
ENDBRANCH   1  13
TORSDOF 5
