REMARK  Name = ZINC00959309
REMARK  6 active torsions:
REMARK  status: ('A' for Active; 'I' for Inactive)
REMARK    1  A    between atoms: C_1  and  C_2
REMARK    2  A    between atoms: C_3  and  N_15
REMARK    3  A    between atoms: N_6  and  C_9
REMARK    4  A    between atoms: N_7  and  C_8
REMARK    5  A    between atoms: N_18  and  N_19
REMARK    6  A    between atoms: N_27  and  C_30
REMARK                            x       y       z     vdW  Elec       q    Type
REMARK                         _______ _______ _______ _____ _____    ______ ____
ROOT
ATOM      1  N   UNL     1       0.271  -0.360  -2.395  0.00  0.00    -0.217 NA
ATOM      2  C   UNL     1       1.205   0.488  -2.745  0.00  0.00    +0.185 C 
ATOM      3  S   UNL     1       2.281   1.167  -1.525  0.00  0.00    -0.012 SA
ATOM      4  N   UNL     1       1.348   0.851  -4.069  0.00  0.00    -0.214 N 
ATOM      5  H   UNL     1       2.040   1.479  -4.329  0.00  0.00    +0.176 HD
ENDROOT
BRANCH   4   6
ATOM      6  N   UNL     1       0.560   0.354  -4.962  0.00  0.00    -0.175 NA
ATOM      7  C   UNL     1       0.765   0.610  -6.234  0.00  0.00    +0.153 C 
ATOM      8  C   UNL     1       1.926   1.303  -6.839  0.00  0.00    +0.028 A 
ATOM      9  C   UNL     1       3.082   1.865  -6.309  0.00  0.00    +0.012 A 
ATOM     10  C   UNL     1       4.003   2.457  -7.149  0.00  0.00    +0.001 A 
ATOM     11  C   UNL     1       3.776   2.490  -8.515  0.00  0.00    +0.002 A 
ATOM     12  C   UNL     1       2.631   1.936  -9.051  0.00  0.00    +0.024 A 
ATOM     13  C   UNL     1       1.692   1.335  -8.220  0.00  0.00    +0.046 A 
ATOM     14  N   UNL     1       0.479   0.713  -8.493  0.00  0.00    -0.269 N 
ATOM     15  C   UNL     1      -0.107   0.263  -7.371  0.00  0.00    +0.271 C 
ATOM     16  O   UNL     1      -1.171  -0.324  -7.304  0.00  0.00    -0.268 OA
ATOM     17  C   UNL     1      -0.086   0.562  -9.837  0.00  0.00    +0.138 C 
ENDBRANCH   4   6
BRANCH   1  20
ATOM     18  C   UNL     1      -1.255   1.161  -0.221  0.00  0.00    +0.067 C 
ATOM     19  C   UNL     1      -0.494  -0.133  -0.087  0.00  0.00    +0.064 A 
ATOM     20  C   UNL     1       0.171  -0.771  -1.087  0.00  0.00    +0.153 A 
ATOM     21  C   UNL     1       0.762  -1.984  -0.505  0.00  0.00    +0.298 A 
ATOM     22  O   UNL     1       1.433  -2.815  -1.088  0.00  0.00    -0.264 OA
ATOM     23  N   UNL     1       0.418  -2.000   0.799  0.00  0.00    -0.215 N 
ATOM     24  N   UNL     1      -0.351  -0.861   1.064  0.00  0.00    -0.282 N 
ATOM     25  C   UNL     1      -0.916  -0.505   2.368  0.00  0.00    +0.171 C 
BRANCH  23  26
ATOM     26  C   UNL     1       0.772  -2.983   1.728  0.00  0.00    +0.067 A 
ATOM     27  C   UNL     1      -0.189  -3.520   2.574  0.00  0.00    +0.028 A 
ATOM     28  C   UNL     1       0.164  -4.491   3.490  0.00  0.00    +0.002 A 
ATOM     29  C   UNL     1       1.474  -4.929   3.566  0.00  0.00    +0.000 A 
ATOM     30  C   UNL     1       2.434  -4.396   2.725  0.00  0.00    +0.002 A 
ATOM     31  C   UNL     1       2.086  -3.429   1.802  0.00  0.00    +0.028 A 
ENDBRANCH  23  26
ENDBRANCH   1  20
TORSDOF 3
