REMARK  Name = ZINC32610508
REMARK  8 active torsions:
REMARK  status: ('A' for Active; 'I' for Inactive)
REMARK    1  A    between atoms: C_1  and  C_2
REMARK    2  A    between atoms: C_5  and  C_17
REMARK    3  A    between atoms: C_7  and  S_8
REMARK    4  A    between atoms: S_8  and  N_11
REMARK    5  A    between atoms: N_11  and  C_12
REMARK    6  A    between atoms: C_17  and  C_18
REMARK    7  A    between atoms: C_17  and  C_19
REMARK    8  A    between atoms: C_17  and  C_20
REMARK                            x       y       z     vdW  Elec       q    Type
REMARK                         _______ _______ _______ _____ _____    ______ ____
ROOT
ATOM      1  C   UNL     1      -0.018   1.503   0.010  0.00  0.00    +0.046 C 
ATOM      2  C   UNL     1       0.002  -0.004   0.002  0.00  0.00    -0.024 A 
ATOM      3  C   UNL     1       0.006  -0.689  -1.199  0.00  0.00    +0.005 A 
ATOM      4  C   UNL     1       0.025  -2.071  -1.207  0.00  0.00    +0.004 A 
ATOM      5  C   UNL     1       0.040  -2.768  -0.013  0.00  0.00    -0.040 A 
ATOM      6  C   UNL     1       0.037  -2.084   1.188  0.00  0.00    +0.033 A 
ATOM      7  C   UNL     1       0.023  -0.702   1.195  0.00  0.00    +0.114 A 
ENDROOT
BRANCH   5   8
ATOM      8  C   UNL     1       0.059  -4.275  -0.021  0.00  0.00    -0.013 C 
ATOM      9  C   UNL     1       0.058  -4.777  -1.467  0.00  0.00    +0.015 C 
ATOM     10  C   UNL     1       1.319  -4.773   0.690  0.00  0.00    +0.015 C 
ATOM     11  C   UNL     1      -1.179  -4.805   0.704  0.00  0.00    +0.015 C 
ENDBRANCH   5   8
BRANCH   7  12
ATOM     12  S   UNL     1       0.026   0.171   2.726  0.00  0.00    +0.095 S 
ATOM     13  O   UNL     1      -1.014   1.137   2.645  0.00  0.00    -0.148 OA
ATOM     14  O   UNL     1       0.076  -0.810   3.753  0.00  0.00    -0.148 OA
BRANCH  12  15
ATOM     15  N   UNL     1       1.449   1.014   2.806  0.00  0.00    -0.058 NA
BRANCH  15  16
ATOM     16  C   UNL     1       1.727   1.800   3.913  0.00  0.00    +0.256 A 
ATOM     17  N   UNL     1       2.849   2.549   4.115  0.00  0.00    -0.313 N 
ATOM     18  C   UNL     1       2.683   3.147   5.333  0.00  0.00    +0.223 A 
ATOM     19  N   UNL     1       1.530   2.759   5.801  0.00  0.00    -0.136 NA
ATOM     20  N   UNL     1       0.959   1.968   4.964  0.00  0.00    -0.110 NA
ATOM     21  H   UNL     1       3.608   2.640   3.517  0.00  0.00    +0.170 HD
ENDBRANCH  15  16
ENDBRANCH  12  15
ENDBRANCH   7  12
TORSDOF 4
