REMARK  Name = ZINC05106368
REMARK  6 active torsions:
REMARK  status: ('A' for Active; 'I' for Inactive)
REMARK    1  A    between atoms: C_1  and  C_2
REMARK    2  A    between atoms: C_5  and  C_28
REMARK    3  A    between atoms: C_6  and  N_8
REMARK    4  A    between atoms: C_22  and  S_23
REMARK    5  A    between atoms: S_23  and  C_24
REMARK    6  A    between atoms: C_24  and  C_25
REMARK                            x       y       z     vdW  Elec       q    Type
REMARK                         _______ _______ _______ _____ _____    ______ ____
ROOT
ATOM      1  N   UNL     1       2.693   5.960   0.011  0.00  0.00    -0.254 N 
ATOM      2  C   UNL     1       3.496   4.874  -0.003  0.00  0.00    +0.283 A 
ATOM      3  O   UNL     1       4.709   4.998  -0.015  0.00  0.00    -0.265 OA
ATOM      4  C   UNL     1       2.902   3.595  -0.005  0.00  0.00    +0.132 A 
ATOM      5  C   UNL     1       1.511   3.507   0.007  0.00  0.00    +0.104 A 
ATOM      6  C   UNL     1       1.184   2.074   0.002  0.00  0.00    +0.026 A 
ATOM      7  C   UNL     1      -0.017   1.362   0.009  0.00  0.00    +0.012 A 
ATOM      8  C   UNL     1       0.002  -0.004   0.002  0.00  0.00    +0.001 A 
ATOM      9  C   UNL     1       1.208  -0.691  -0.013  0.00  0.00    +0.002 A 
ATOM     10  C   UNL     1       2.404  -0.009  -0.021  0.00  0.00    +0.026 A 
ATOM     11  C   UNL     1       2.408   1.384  -0.014  0.00  0.00    +0.049 A 
ATOM     12  N   UNL     1       3.427   2.312  -0.018  0.00  0.00    -0.349 N 
ATOM     13  H   UNL     1       4.374   2.099  -0.029  0.00  0.00    +0.166 HD
ATOM     14  N   UNL     1       0.770   4.627   0.022  0.00  0.00    -0.221 NA
ATOM     15  C   UNL     1       1.335   5.813   0.023  0.00  0.00    +0.177 A 
ENDROOT
BRANCH   1  21
ATOM     16  C   UNL     1       4.370   9.852  -2.484  0.00  0.00    +0.044 C 
ATOM     17  C   UNL     1       4.078   9.152  -1.182  0.00  0.00    -0.048 A 
ATOM     18  C   UNL     1       4.367   9.777   0.018  0.00  0.00    +0.004 A 
ATOM     19  C   UNL     1       4.101   9.138   1.215  0.00  0.00    +0.005 A 
ATOM     20  C   UNL     1       3.541   7.875   1.216  0.00  0.00    -0.026 A 
ATOM     21  C   UNL     1       3.256   7.243   0.013  0.00  0.00    +0.055 A 
ATOM     22  C   UNL     1       3.524   7.887  -1.188  0.00  0.00    +0.030 A 
ATOM     23  C   UNL     1       3.246   7.181   2.521  0.00  0.00    +0.046 C 
ENDBRANCH   1  21
BRANCH  15  24
ATOM     24  S   UNL     1       0.315   7.250   0.043  0.00  0.00    -0.078 S 
BRANCH  24  25
ATOM     25  C   UNL     1      -1.320   6.475   0.054  0.00  0.00    +0.172 C 
BRANCH  25  26
ATOM     26  C   UNL     1      -2.383   7.544   0.072  0.00  0.00    +0.221 C 
ATOM     27  O   UNL     1      -2.065   8.714   0.076  0.00  0.00    -0.275 OA
ATOM     28  N   UNL     1      -3.686   7.199   0.083  0.00  0.00    -0.329 N 
ATOM     29  H   UNL     1      -3.939   6.263   0.079  0.00  0.00    +0.145 HD
ATOM     30  H   UNL     1      -4.369   7.887   0.094  0.00  0.00    +0.145 HD
ENDBRANCH  25  26
ENDBRANCH  24  25
ENDBRANCH  15  24
TORSDOF 4
