REMARK  Name = ZINC16579636
REMARK  3 active torsions:
REMARK  status: ('A' for Active; 'I' for Inactive)
REMARK    1  A    between atoms: N_11  and  S_12
REMARK    2  A    between atoms: S_12  and  C_15
REMARK    3  A    between atoms: C_15  and  C_16
REMARK                            x       y       z     vdW  Elec       q    Type
REMARK                         _______ _______ _______ _____ _____    ______ ____
ROOT
ATOM      1  C   UNL     1       2.400   0.036  -0.013  0.00  0.00    +0.002 A 
ATOM      2  C   UNL     1       1.213  -0.674  -0.009  0.00  0.00    +0.002 A 
ATOM      3  C   UNL     1       0.002  -0.004   0.002  0.00  0.00    +0.026 A 
ATOM      4  C   UNL     1      -0.017   1.379   0.010  0.00  0.00    +0.073 A 
ATOM      5  C   UNL     1       1.180   2.098   0.002  0.00  0.00    +0.056 A 
ATOM      6  C   UNL     1       2.388   1.419  -0.007  0.00  0.00    +0.025 A 
ATOM      7  N   UNL     1       1.146   3.497  -0.002  0.00  0.00    -0.283 N 
ATOM      8  C   UNL     1       0.008   4.157   0.288  0.00  0.00    +0.236 C 
ATOM      9  O   UNL     1      -0.011   5.369   0.237  0.00  0.00    -0.274 OA
ATOM     10  C   UNL     1      -1.240   3.408   0.677  0.00  0.00    +0.227 C 
ATOM     11  N   UNL     1      -1.227   2.087   0.031  0.00  0.00    -0.196 N 
ATOM     12  H   UNL     1       1.949   3.997  -0.216  0.00  0.00    +0.155 HD
ENDROOT
BRANCH  11  13
ATOM     13  S   UNL     1      -2.598   1.454  -0.649  0.00  0.00    +0.050 S 
ATOM     14  O   UNL     1      -3.385   2.585  -0.997  0.00  0.00    -0.155 OA
ATOM     15  O   UNL     1      -2.128   0.563  -1.651  0.00  0.00    -0.155 OA
BRANCH  13  16
ATOM     16  C   UNL     1      -3.396   0.525   0.689  0.00  0.00    +0.224 C 
BRANCH  16  17
ATOM     17  C   UNL     1      -4.668  -0.101   0.177  0.00  0.00    -0.023 A 
ATOM     18  C   UNL     1      -5.862   0.591   0.265  0.00  0.00    +0.005 A 
ATOM     19  C   UNL     1      -7.028   0.020  -0.208  0.00  0.00    +0.002 A 
ATOM     20  C   UNL     1      -7.003  -1.247  -0.760  0.00  0.00    +0.020 A 
ATOM     21  C   UNL     1      -5.810  -1.942  -0.844  0.00  0.00    +0.041 A 
ATOM     22  C   UNL     1      -4.642  -1.367  -0.374  0.00  0.00    +0.025 A 
ATOM     23 CL   UNL     1      -5.778  -3.533  -1.536  0.00  0.00    -0.084 Cl
ENDBRANCH  16  17
ENDBRANCH  13  16
ENDBRANCH  11  13
TORSDOF 3
