REMARK  Name = ZINC34749266
REMARK  7 active torsions:
REMARK  status: ('A' for Active; 'I' for Inactive)
REMARK    1  A    between atoms: C_1  and  C_2
REMARK    2  A    between atoms: C_2  and  C_3
REMARK    3  A    between atoms: C_4  and  C_29
REMARK    4  A    between atoms: N_10  and  C_23
REMARK    5  A    between atoms: N_16  and  C_19
REMARK    6  A    between atoms: C_19  and  C_20
REMARK    7  A    between atoms: C_23  and  C_24
REMARK                            x       y       z     vdW  Elec       q    Type
REMARK                         _______ _______ _______ _____ _____    ______ ____
ROOT
ATOM      1  C   UNL     1       0.716  -0.430  -1.304  0.00  0.00    -0.023 A 
ATOM      2  C   UNL     1       0.060  -0.579  -2.464  0.00  0.00    -0.007 A 
ATOM      3  S   UNL     1       1.336  -1.099  -3.596  0.00  0.00    -0.073 S 
ATOM      4  C   UNL     1       2.713  -1.101  -2.477  0.00  0.00    +0.117 A 
ATOM      5  C   UNL     1       2.144  -0.692  -1.256  0.00  0.00    +0.076 A 
ATOM      6  C   UNL     1       3.046  -0.598  -0.150  0.00  0.00    +0.264 A 
ATOM      7  O   UNL     1       2.642  -0.256   0.949  0.00  0.00    -0.267 OA
ATOM      8  N   UNL     1       4.346  -0.892  -0.337  0.00  0.00    -0.271 N 
ATOM      9  C   UNL     1       4.815  -1.276  -1.558  0.00  0.00    +0.202 A 
ATOM     10  N   UNL     1       4.006  -1.382  -2.592  0.00  0.00    -0.208 NA
ATOM     11  N   UNL     1       6.148  -1.568  -1.710  0.00  0.00    -0.304 N 
ATOM     12  C   UNL     1       6.650  -2.937  -1.516  0.00  0.00    +0.089 C 
ATOM     13  C   UNL     1       7.503  -3.318  -2.730  0.00  0.00    -0.059 C 
ATOM     14  N   UNL     1       8.553  -2.310  -2.925  0.00  0.00    +0.387 N 
ATOM     15  C   UNL     1       7.946  -1.015  -3.260  0.00  0.00    -0.059 C 
ATOM     16  C   UNL     1       7.114  -0.521  -2.077  0.00  0.00    +0.089 C 
ATOM     17  C   UNL     1      -1.404  -0.360  -2.744  0.00  0.00    +0.052 C 
ATOM     18  H   UNL     1       9.092  -2.219  -2.077  0.00  0.00    -0.081 HD
ENDROOT
BRANCH   1  20
ATOM     19  C   UNL     1      -0.005   1.537   0.022  0.00  0.00    +0.009 C 
ATOM     20  C   UNL     1      -0.020   0.010  -0.064  0.00  0.00    +0.033 C 
ENDBRANCH   1  20
BRANCH  14  21
ATOM     21  C   UNL     1       9.437  -2.732  -4.020  0.00  0.00    +0.018 C 
BRANCH  21  22
ATOM     22  C   UNL     1      10.584  -1.763  -4.142  0.00  0.00    +0.194 C 
ATOM     23  O   UNL     1      10.658  -0.814  -3.390  0.00  0.00    -0.278 OA
ATOM     24  N   UNL     1      11.528  -1.950  -5.085  0.00  0.00    -0.331 N 
ATOM     25  H   UNL     1      11.469  -2.710  -5.686  0.00  0.00    +0.145 HD
ATOM     26  H   UNL     1      12.266  -1.326  -5.163  0.00  0.00    +0.145 HD
ENDBRANCH  21  22
ENDBRANCH  14  21
BRANCH   8  27
ATOM     27  C   UNL     1       5.274  -0.797   0.792  0.00  0.00    +0.224 C 
BRANCH  27  28
ATOM     28  C   UNL     1       5.264  -2.094   1.560  0.00  0.00    +0.236 C 
ATOM     29  O   UNL     1       4.552  -3.007   1.200  0.00  0.00    -0.274 OA
ATOM     30  N   UNL     1       6.047  -2.238   2.648  0.00  0.00    -0.297 N 
ATOM     31  C   UNL     1       7.030  -1.658   3.566  0.00  0.00    +0.127 C 
ATOM     32  C   UNL     1       6.511  -3.085   3.750  0.00  0.00    +0.127 C 
ENDBRANCH  27  28
ENDBRANCH   8  27
TORSDOF 5
