REMARK  Name = ZINC00212482
REMARK  3 active torsions:
REMARK  status: ('A' for Active; 'I' for Inactive)
REMARK    1  A    between atoms: C_6  and  N_7
REMARK    2  A    between atoms: C_8  and  C_10
REMARK    3  A    between atoms: C_10  and  N_11
REMARK                            x       y       z     vdW  Elec       q    Type
REMARK                         _______ _______ _______ _____ _____    ______ ____
ROOT
ATOM      1  N   UNL     1      -1.960   8.342  -1.601  0.00  0.00    -0.284 N 
ATOM      2  C   UNL     1      -1.081   7.347  -1.368  0.00  0.00    +0.237 C 
ATOM      3  O   UNL     1      -0.564   6.766  -2.299  0.00  0.00    -0.274 OA
ATOM      4  H   UNL     1      -2.424   8.762  -0.860  0.00  0.00    +0.155 HD
ENDROOT
BRANCH   1  10
ATOM      5  C   UNL     1      -2.461  10.110  -3.169  0.00  0.00    +0.026 A 
ATOM      6  C   UNL     1      -2.694  10.533  -4.463  0.00  0.00    +0.043 A 
ATOM      7  C   UNL     1      -2.683   9.620  -5.503  0.00  0.00    +0.159 A 
ATOM      8  C   UNL     1      -2.430   8.280  -5.249  0.00  0.00    +0.160 A 
ATOM      9  C   UNL     1      -2.190   7.855  -3.955  0.00  0.00    +0.064 A 
ATOM     10  C   UNL     1      -2.202   8.771  -2.912  0.00  0.00    +0.036 A 
ATOM     11  F   UNL     1      -2.418   7.390  -6.266  0.00  0.00    -0.202 F 
ATOM     12  F   UNL     1      -2.917  10.034  -6.768  0.00  0.00    -0.202 F 
ENDBRANCH   1  10
BRANCH   2  13
ATOM     13  C   UNL     1      -0.742   6.957   0.047  0.00  0.00    +0.224 C 
BRANCH  13  14
ATOM     14  N   UNL     1       0.228   5.859   0.032  0.00  0.00    -0.265 N 
ATOM     15  C   UNL     1      -0.068   4.496   0.019  0.00  0.00    +0.091 A 
ATOM     16  C   UNL     1      -1.255   3.780   0.017  0.00  0.00    +0.031 A 
ATOM     17  C   UNL     1      -1.225   2.400  -0.002  0.00  0.00    +0.022 A 
ATOM     18  C   UNL     1      -0.013   1.729  -0.008  0.00  0.00    +0.045 A 
ATOM     19  C   UNL     1       1.174   2.437  -0.006  0.00  0.00    +0.068 A 
ATOM     20  C   UNL     1       1.153   3.823   0.008  0.00  0.00    +0.158 A 
ATOM     21  O   UNL     1       2.131   4.762   0.013  0.00  0.00    -0.407 OA
ATOM     22  C   UNL     1       1.570   5.982   0.027  0.00  0.00    +0.422 A 
ATOM     23  O   UNL     1       2.179   7.034   0.036  0.00  0.00    -0.223 OA
ATOM     24 CL   UNL     1       0.015  -0.006  -0.025  0.00  0.00    -0.083 Cl
ENDBRANCH  13  14
ENDBRANCH   2  13
TORSDOF 3
