REMARK  Name = ZINC02853174
REMARK  8 active torsions:
REMARK  status: ('A' for Active; 'I' for Inactive)
REMARK    1  A    between atoms: C_1  and  C_2
REMARK    2  A    between atoms: C_4  and  O_10
REMARK    3  A    between atoms: C_6  and  C_9
REMARK    4  A    between atoms: O_10  and  C_11
REMARK    5  A    between atoms: C_11  and  C_13
REMARK    6  A    between atoms: C_11  and  C_14
REMARK    7  A    between atoms: N_16  and  N_17
REMARK    8  A    between atoms: N_20  and  C_21
REMARK                            x       y       z     vdW  Elec       q    Type
REMARK                         _______ _______ _______ _____ _____    ______ ____
ROOT
ATOM      1  C   UNL     1       5.248   3.037   0.161  0.00  0.00    +0.270 C 
ATOM      2  O   UNL     1       6.198   2.398   0.562  0.00  0.00    -0.270 OA
ATOM      3  N   UNL     1       3.995   2.588   0.372  0.00  0.00    -0.230 N 
ATOM      4  H   UNL     1       3.236   3.099   0.051  0.00  0.00    +0.173 HD
ENDROOT
BRANCH   3   5
ATOM      5  N   UNL     1       3.790   1.382   1.055  0.00  0.00    -0.218 N 
ATOM      6  C   UNL     1       2.537   0.932   1.266  0.00  0.00    +0.316 C 
ATOM      7  O   UNL     1       2.358  -0.115   1.858  0.00  0.00    -0.251 OA
ATOM      8  N   UNL     1       1.482   1.643   0.821  0.00  0.00    -0.295 N 
ATOM      9  H   UNL     1       4.549   0.870   1.375  0.00  0.00    +0.174 HD
ATOM     10  H   UNL     1       1.624   2.478   0.348  0.00  0.00    +0.151 HD
BRANCH   8  11
ATOM     11  C   UNL     1       0.120   1.154   1.050  0.00  0.00    +0.074 C 
ATOM     12  C   UNL     1      -0.354   1.596   2.436  0.00  0.00    +0.022 C 
ATOM     13  C   UNL     1      -1.776   1.086   2.676  0.00  0.00    +0.002 C 
ATOM     14  C   UNL     1      -2.711   1.661   1.610  0.00  0.00    +0.000 C 
ATOM     15  C   UNL     1      -2.237   1.218   0.224  0.00  0.00    +0.002 C 
ATOM     16  C   UNL     1      -0.815   1.729  -0.016  0.00  0.00    +0.022 C 
ENDBRANCH   8  11
ENDBRANCH   3   5
BRANCH   1  17
ATOM     17  C   UNL     1       5.470   4.335  -0.574  0.00  0.00    +0.257 C 
ATOM     18  C   UNL     1       4.983   4.193  -2.017  0.00  0.00    +0.062 C 
BRANCH  17  19
ATOM     19  O   UNL     1       6.863   4.653  -0.569  0.00  0.00    -0.480 OA
BRANCH  19  23
ATOM     20  C   UNL     1       5.484   9.271  -1.338  0.00  0.00    +0.045 C 
ATOM     21  C   UNL     1       6.553   8.243  -1.074  0.00  0.00    -0.028 A 
ATOM     22  C   UNL     1       6.212   6.910  -0.942  0.00  0.00    +0.050 A 
ATOM     23  C   UNL     1       7.196   5.964  -0.699  0.00  0.00    +0.122 A 
ATOM     24  C   UNL     1       8.521   6.358  -0.584  0.00  0.00    +0.050 A 
ATOM     25  C   UNL     1       8.859   7.691  -0.722  0.00  0.00    -0.028 A 
ATOM     26  C   UNL     1       7.876   8.633  -0.964  0.00  0.00    +0.047 A 
ATOM     27 CL   UNL     1       8.302  10.308  -1.130  0.00  0.00    -0.083 Cl
ATOM     28  C   UNL     1      10.299   8.118  -0.602  0.00  0.00    +0.045 C 
ENDBRANCH  19  23
ENDBRANCH  17  19
ENDBRANCH   1  17
TORSDOF 5
