REMARK  Name = ZINC63209121
REMARK  8 active torsions:
REMARK  status: ('A' for Active; 'I' for Inactive)
REMARK    1  A    between atoms: C_1  and  O_2
REMARK    2  A    between atoms: O_2  and  C_3
REMARK    3  A    between atoms: C_3  and  C_5
REMARK    4  A    between atoms: C_13  and  N_15
REMARK    5  A    between atoms: C_16  and  C_18
REMARK    6  A    between atoms: C_18  and  S_19
REMARK    7  A    between atoms: S_19  and  C_20
REMARK    8  A    between atoms: C_23  and  C_25
REMARK                            x       y       z     vdW  Elec       q    Type
REMARK                         _______ _______ _______ _____ _____    ______ ____
ROOT
ATOM      1  C   UNL     1       1.961  -4.083  -3.108  0.00  0.00    +0.174 C 
ENDROOT
BRANCH   1   3
ATOM      2  N   UNL     1       0.875  -2.925  -1.211  0.00  0.00    -0.299 N 
ATOM      3  C   UNL     1       1.111  -4.080  -1.864  0.00  0.00    +0.224 C 
ATOM      4  O   UNL     1       0.639  -5.118  -1.450  0.00  0.00    -0.275 OA
ATOM      5  H   UNL     1       1.252  -2.095  -1.542  0.00  0.00    +0.150 HD
BRANCH   2  13
ATOM      6  C   UNL     1       0.680  -2.081   1.091  0.00  0.00    +0.067 C 
ATOM      7  C   UNL     1       1.278  -2.689   2.098  0.00  0.00    -0.044 C 
ATOM      8  C   UNL     1       1.833  -2.365   3.484  0.00  0.00    +0.032 C 
ATOM      9  C   UNL     1       1.865  -3.692   4.274  0.00  0.00    +0.006 C 
ATOM     10  C   UNL     1       0.972  -4.655   3.437  0.00  0.00    +0.019 C 
ATOM     11  C   UNL     1       1.364  -4.216   2.015  0.00  0.00    +0.075 C 
ATOM     12  S   UNL     1       0.042  -4.585   0.800  0.00  0.00    -0.126 S 
ATOM     13  C   UNL     1       0.048  -2.922  -0.002  0.00  0.00    +0.169 C 
BRANCH   6  14
ATOM     14  C   UNL     1       0.621  -0.613   1.033  0.00  0.00    +0.338 C 
ATOM     15  O   UNL     1       1.130   0.051   1.915  0.00  0.00    -0.245 OA
BRANCH  14  17
ATOM     16  C   UNL     1      -0.017   1.425   0.010  0.00  0.00    +0.280 C 
ATOM     17  O   UNL     1       0.002  -0.004   0.002  0.00  0.00    -0.465 OA
ENDBRANCH  14  17
ENDBRANCH   6  14
ENDBRANCH   2  13
ENDBRANCH   1   3
BRANCH   1  18
ATOM     18  S   UNL     1       2.091  -5.775  -3.748  0.00  0.00    -0.056 S 
BRANCH  18  19
ATOM     19  C   UNL     1       3.101  -5.612  -5.183  0.00  0.00    +0.278 A 
ATOM     20  N   UNL     1       3.628  -4.488  -5.644  0.00  0.00    -0.101 NA
ATOM     21  N   UNL     1       4.307  -4.741  -6.708  0.00  0.00    -0.107 NA
ATOM     22  C   UNL     1       4.242  -6.037  -6.970  0.00  0.00    +0.248 A 
ATOM     23  O   UNL     1       3.482  -6.606  -6.004  0.00  0.00    -0.411 OA
BRANCH  22  24
ATOM     24  C   UNL     1       4.851  -6.699  -8.045  0.00  0.00    +0.044 C 
ATOM     25  C   UNL     1       5.646  -6.133  -9.042  0.00  0.00    +0.008 A 
ATOM     26  C   UNL     1       6.072  -4.810  -9.287  0.00  0.00    +0.010 A 
ATOM     27  C   UNL     1       6.861  -4.543 -10.359  0.00  0.00    +0.001 A 
ATOM     28  C   UNL     1       7.267  -5.551 -11.236  0.00  0.00    +0.002 A 
ATOM     29  C   UNL     1       6.897  -6.843 -11.063  0.00  0.00    +0.026 A 
ATOM     30  C   UNL     1       6.073  -7.199  -9.964  0.00  0.00    +0.043 A 
ATOM     31  N   UNL     1       5.584  -8.362  -9.581  0.00  0.00    -0.380 N 
ATOM     32  C   UNL     1       4.790  -8.176  -8.363  0.00  0.00    +0.154 C 
ATOM     33  H   UNL     1       5.729  -9.208 -10.033  0.00  0.00    +0.160 HD
ENDBRANCH  22  24
ENDBRANCH  18  19
ENDBRANCH   1  18
TORSDOF 7
