REMARK  Name = ZINC58153057
REMARK  4 active torsions:
REMARK  status: ('A' for Active; 'I' for Inactive)
REMARK    1  A    between atoms: N_11  and  C_15
REMARK    2  A    between atoms: C_15  and  C_16
REMARK    3  A    between atoms: N_21  and  C_22
REMARK    4  A    between atoms: C_22  and  C_23
REMARK                            x       y       z     vdW  Elec       q    Type
REMARK                         _______ _______ _______ _____ _____    ______ ____
ROOT
ATOM      1  C   UNL     1      -0.017   1.385   0.010  0.00  0.00    +0.002 A 
ATOM      2  C   UNL     1       1.125   2.132   0.003  0.00  0.00    +0.009 A 
ATOM      3  C   UNL     1       2.365   1.473  -0.012  0.00  0.00    -0.014 A 
ATOM      4  C   UNL     1       3.596   2.151  -0.019  0.00  0.00    +0.009 A 
ATOM      5  C   UNL     1       4.760   1.440  -0.034  0.00  0.00    +0.003 A 
ATOM      6  C   UNL     1       4.758   0.040  -0.042  0.00  0.00    +0.029 A 
ATOM      7  C   UNL     1       3.590  -0.629  -0.036  0.00  0.00    +0.118 A 
ATOM      8  C   UNL     1       2.374   0.063  -0.020  0.00  0.00    +0.031 A 
ATOM      9  C   UNL     1       1.209  -0.701  -0.013  0.00  0.00    +0.061 A 
ATOM     10  C   UNL     1       0.002  -0.004   0.002  0.00  0.00    +0.025 A 
ATOM     11  N   UNL     1       1.399  -2.093  -0.022  0.00  0.00    -0.194 N 
ATOM     12  S   UNL     1       3.061  -2.318  -0.041  0.00  0.00    +0.076 S 
ATOM     13  O   UNL     1       3.409  -2.878  -1.299  0.00  0.00    -0.150 OA
ATOM     14  O   UNL     1       3.434  -2.893   1.204  0.00  0.00    -0.150 OA
ENDROOT
BRANCH  11  15
ATOM     15  C   UNL     1       0.364  -3.130  -0.017  0.00  0.00    +0.227 C 
BRANCH  15  16
ATOM     16  C   UNL     1      -0.093  -3.390  -1.430  0.00  0.00    +0.240 C 
ATOM     17  O   UNL     1       0.398  -2.771  -2.349  0.00  0.00    -0.274 OA
ATOM     18  N   UNL     1      -1.047  -4.311  -1.671  0.00  0.00    -0.239 N 
ATOM     19  C   UNL     1      -1.455  -4.544  -2.934  0.00  0.00    +0.306 C 
ATOM     20  O   UNL     1      -0.963  -3.923  -3.856  0.00  0.00    -0.252 OA
ATOM     21  N   UNL     1      -2.409  -5.465  -3.175  0.00  0.00    -0.291 N 
ATOM     22  H   UNL     1      -1.439  -4.806  -0.935  0.00  0.00    +0.159 HD
ATOM     23  H   UNL     1      -2.802  -5.960  -2.439  0.00  0.00    +0.151 HD
BRANCH  21  24
ATOM     24  C   UNL     1      -2.853  -5.718  -4.548  0.00  0.00    +0.219 C 
BRANCH  24  25
ATOM     25  C   UNL     1      -3.934  -6.801  -4.543  0.00  0.00    +0.405 C 
ATOM     26  F   UNL     1      -5.021  -6.371  -3.773  0.00  0.00    -0.169 F 
ATOM     27  F   UNL     1      -4.358  -7.042  -5.854  0.00  0.00    -0.169 F 
ATOM     28  F   UNL     1      -3.413  -7.978  -3.997  0.00  0.00    -0.169 F 
ENDBRANCH  24  25
ENDBRANCH  21  24
ENDBRANCH  15  16
ENDBRANCH  11  15
TORSDOF 4
