REMARK  Name = ZINC39598563
REMARK  10 active torsions:
REMARK  status: ('A' for Active; 'I' for Inactive)
REMARK    1  A    between atoms: C_1  and  C_2
REMARK    2  A    between atoms: C_2  and  N_3
REMARK    3  A    between atoms: C_4  and  C_6
REMARK    4  A    between atoms: C_17  and  C_19
REMARK    5  A    between atoms: C_21  and  O_29
REMARK    6  A    between atoms: C_22  and  O_27
REMARK    7  A    between atoms: C_23  and  O_25
REMARK    8  A    between atoms: O_25  and  C_26
REMARK    9  A    between atoms: O_27  and  C_28
REMARK   10  A    between atoms: O_29  and  C_30
REMARK                            x       y       z     vdW  Elec       q    Type
REMARK                         _______ _______ _______ _____ _____    ______ ____
ROOT
ATOM      1  C   UNL     1      -2.641  -2.374   0.594  0.00  0.00    +0.100 C 
ATOM      2  C   UNL     1      -3.608  -2.001   1.740  0.00  0.00    +0.121 C 
ATOM      3  N   UNL     1      -4.446  -3.209   1.931  0.00  0.00    -0.296 N 
ATOM      4  C   UNL     1      -3.502  -4.341   1.770  0.00  0.00    +0.115 C 
ATOM      5  C   UNL     1      -2.574  -3.910   0.618  0.00  0.00    -0.004 C 
ATOM      6  C   UNL     1      -1.146  -4.372   0.890  0.00  0.00    -0.010 C 
ATOM      7  C   UNL     1      -1.093  -5.902   0.851  0.00  0.00    -0.082 C 
ATOM      8  N   UNL     1      -1.539  -6.376  -0.465  0.00  0.00    +0.379 N 
ATOM      9  C   UNL     1      -2.943  -6.007  -0.680  0.00  0.00    -0.082 C 
ATOM     10  C   UNL     1      -3.074  -4.482  -0.705  0.00  0.00    -0.010 C 
ATOM     11  C   UNL     1      -5.767  -3.265   2.190  0.00  0.00    +0.247 C 
ATOM     12  O   UNL     1      -6.435  -2.249   2.166  0.00  0.00    -0.270 OA
ATOM     13  H   UNL     1      -0.968  -5.955  -1.183  0.00  0.00    -0.086 HD
ATOM     14  H   UNL     1      -1.445  -7.379  -0.509  0.00  0.00    -0.086 HD
ENDROOT
BRANCH  11  15
ATOM     15  C   UNL     1      -6.403  -4.560   2.504  0.00  0.00    +0.044 A 
ATOM     16  C   UNL     1      -5.628  -5.628   2.962  0.00  0.00    +0.062 A 
ATOM     17  C   UNL     1      -6.226  -6.839   3.255  0.00  0.00    +0.166 A 
ATOM     18  C   UNL     1      -7.600  -6.995   3.095  0.00  0.00    +0.204 A 
ATOM     19  C   UNL     1      -8.375  -5.932   2.638  0.00  0.00    +0.166 A 
ATOM     20  C   UNL     1      -7.783  -4.717   2.349  0.00  0.00    +0.062 A 
BRANCH  19  21
ATOM     21  O   UNL     1      -9.717  -6.088   2.482  0.00  0.00    -0.491 OA
ATOM     22  C   UNL     1     -10.451  -4.956   2.010  0.00  0.00    +0.277 C 
ENDBRANCH  19  21
BRANCH  18  23
ATOM     23  O   UNL     1      -8.186  -8.187   3.383  0.00  0.00    -0.488 OA
ATOM     24  C   UNL     1      -8.649  -8.374   4.722  0.00  0.00    +0.277 C 
ENDBRANCH  18  23
BRANCH  17  25
ATOM     25  O   UNL     1      -5.471  -7.879   3.701  0.00  0.00    -0.491 OA
ATOM     26  C   UNL     1      -4.068  -7.649   3.842  0.00  0.00    +0.277 C 
ENDBRANCH  17  25
ENDBRANCH  11  15
BRANCH   1  28
ATOM     27  N   UNL     1      -0.488  -1.446  -0.193  0.00  0.00    -0.315 N 
ATOM     28  C   UNL     1      -1.277  -1.785   0.846  0.00  0.00    +0.218 C 
ATOM     29  O   UNL     1      -0.890  -1.616   1.982  0.00  0.00    -0.275 OA
ATOM     30  H   UNL     1      -0.797  -1.581  -1.102  0.00  0.00    +0.149 HD
BRANCH  27  32
ATOM     31  C   UNL     1       1.522  -0.580  -1.285  0.00  0.00    +0.024 C 
ATOM     32  C   UNL     1       0.838  -0.873   0.052  0.00  0.00    +0.101 C 
ENDBRANCH  27  32
ENDBRANCH   1  28
TORSDOF 6
