REMARK  Name = ZINC06670377
REMARK  6 active torsions:
REMARK  status: ('A' for Active; 'I' for Inactive)
REMARK    1  A    between atoms: C_6  and  C_22
REMARK    2  A    between atoms: C_7  and  N_9
REMARK    3  A    between atoms: C_10  and  C_12
REMARK    4  A    between atoms: N_14  and  C_15
REMARK    5  A    between atoms: C_15  and  C_16
REMARK    6  A    between atoms: C_16  and  N_50
REMARK                            x       y       z     vdW  Elec       q    Type
REMARK                         _______ _______ _______ _____ _____    ______ ____
ROOT
ATOM      1  N   UNL     1      -2.475   1.249   0.021  0.00  0.00    -0.272 N 
ATOM      2  C   UNL     1      -1.317   1.938   0.019  0.00  0.00    +0.304 C 
ATOM      3  O   UNL     1      -1.334   3.152   0.025  0.00  0.00    -0.265 OA
ATOM      4  H   UNL     1      -2.462   0.279   0.015  0.00  0.00    +0.156 HD
ENDROOT
BRANCH   1  11
ATOM      5  C   UNL     1      -8.393   3.091   0.514  0.00  0.00    +0.005 C 
ATOM      6  C   UNL     1      -8.061   4.333  -0.318  0.00  0.00    +0.005 C 
ATOM      7  C   UNL     1      -6.653   4.817   0.057  0.00  0.00    +0.043 C 
ATOM      8  C   UNL     1      -5.730   3.638   0.048  0.00  0.00    -0.004 A 
ATOM      9  C   UNL     1      -6.078   2.332   0.043  0.00  0.00    -0.023 A 
ATOM     10  C   UNL     1      -4.967   1.396   0.028  0.00  0.00    +0.068 A 
ATOM     11  C   UNL     1      -3.683   1.924   0.030  0.00  0.00    +0.085 A 
ATOM     12  S   UNL     1      -3.960   3.635   0.040  0.00  0.00    -0.077 S 
ATOM     13  C   UNL     1      -7.542   1.909   0.048  0.00  0.00    +0.037 C 
BRANCH  10  14
ATOM     14  C   UNL     1      -5.194  -0.053   0.013  0.00  0.00    +0.244 C 
ATOM     15  O   UNL     1      -5.285  -0.665   1.061  0.00  0.00    -0.270 OA
ATOM     16  N   UNL     1      -5.300  -0.707  -1.160  0.00  0.00    -0.325 N 
ATOM     17  H   UNL     1      -5.226  -0.219  -1.996  0.00  0.00    +0.145 HD
ATOM     18  H   UNL     1      -5.449  -1.665  -1.170  0.00  0.00    +0.145 HD
ENDBRANCH  10  14
ENDBRANCH   1  11
BRANCH   2  19
ATOM     19  C   UNL     1      -0.014   1.210   0.009  0.00  0.00    +0.299 C 
ATOM     20  O   UNL     1       0.002  -0.004   0.002  0.00  0.00    -0.265 OA
ATOM     21  N   UNL     1       1.143   1.899   0.001  0.00  0.00    -0.309 N 
ATOM     22  H   UNL     1       1.130   2.869   0.007  0.00  0.00    +0.149 HD
BRANCH  21  23
ATOM     23  C   UNL     1       2.422   1.184  -0.015  0.00  0.00    +0.086 C 
BRANCH  23  24
ATOM     24  C   UNL     1       3.571   2.194  -0.020  0.00  0.00    -0.060 C 
BRANCH  24  30
ATOM     25  C   UNL     1       5.056   0.733   1.215  0.00  0.00    -0.050 C 
ATOM     26  C   UNL     1       6.372  -0.045   1.132  0.00  0.00    +0.141 C 
ATOM     27  O   UNL     1       7.442   0.865   0.863  0.00  0.00    -0.383 OA
ATOM     28  C   UNL     1       7.277   1.606  -0.349  0.00  0.00    +0.141 C 
ATOM     29  C   UNL     1       5.971   2.401  -0.280  0.00  0.00    -0.050 C 
ATOM     30  N   UNL     1       4.854   1.459  -0.057  0.00  0.00    +0.384 N 
ATOM     31  H   UNL     1       4.829   0.781  -0.828  0.00  0.00    -0.082 HD
ENDBRANCH  24  30
ENDBRANCH  23  24
ENDBRANCH  21  23
ENDBRANCH   2  19
TORSDOF 6
