REMARK  Name = ZINC47937542
REMARK  12 active torsions:
REMARK  status: ('A' for Active; 'I' for Inactive)
REMARK    1  A    between atoms: C_1  and  C_2
REMARK    2  A    between atoms: C_2  and  C_3
REMARK    3  A    between atoms: C_6  and  C_9
REMARK    4  A    between atoms: C_9  and  C_10
REMARK    5  A    between atoms: C_9  and  N_26
REMARK    6  A    between atoms: C_10  and  N_11
REMARK    7  A    between atoms: N_14  and  C_15
REMARK    8  A    between atoms: C_15  and  C_16
REMARK    9  A    between atoms: C_20  and  C_22
REMARK   10  A    between atoms: N_24  and  C_25
REMARK   11  A    between atoms: N_26  and  C_27
REMARK   12  A    between atoms: N_26  and  C_28
REMARK                            x       y       z     vdW  Elec       q    Type
REMARK                         _______ _______ _______ _____ _____    ______ ____
ROOT
ATOM      1  N   UNL     1       3.835  -3.673  -5.913  0.00  0.00    -0.301 N 
ATOM      2  C   UNL     1       4.211  -4.951  -6.118  0.00  0.00    +0.300 C 
ATOM      3  O   UNL     1       3.968  -5.798  -5.280  0.00  0.00    -0.253 OA
ATOM      4  N   UNL     1       4.856  -5.290  -7.252  0.00  0.00    -0.295 N 
ATOM      5  H   UNL     1       4.029  -2.997  -6.581  0.00  0.00    +0.150 HD
ATOM      6  H   UNL     1       5.050  -4.614  -7.920  0.00  0.00    +0.151 HD
ENDROOT
BRANCH   1   7
ATOM      7  C   UNL     1       3.134  -3.304  -4.680  0.00  0.00    +0.095 C 
BRANCH   7   8
ATOM      8  C   UNL     1       2.708  -1.837  -4.755  0.00  0.00    -0.021 C 
BRANCH   8  12
ATOM      9  C   UNL     1      -0.166  -1.349  -7.877  0.00  0.00    -0.048 A 
ATOM     10  C   UNL     1       1.156  -1.010  -8.096  0.00  0.00    +0.004 A 
ATOM     11  C   UNL     1       2.086  -1.168  -7.086  0.00  0.00    +0.002 A 
ATOM     12  C   UNL     1       1.694  -1.664  -5.856  0.00  0.00    -0.059 A 
ATOM     13  C   UNL     1       0.371  -2.001  -5.637  0.00  0.00    +0.002 A 
ATOM     14  C   UNL     1      -0.559  -1.840  -6.646  0.00  0.00    +0.004 A 
BRANCH   9  16
ATOM     15  C   UNL     1      -1.786   0.226  -8.900  0.00  0.00    +0.009 C 
ATOM     16  C   UNL     1      -1.180  -1.177  -8.979  0.00  0.00    +0.032 C 
ENDBRANCH   9  16
ENDBRANCH   8  12
BRANCH   8  17
ATOM     17  N   UNL     1       2.113  -1.434  -3.474  0.00  0.00    +0.382 N 
ATOM     18  C   UNL     1       3.107  -1.585  -2.403  0.00  0.00    -0.096 C 
ATOM     19  C   UNL     1       1.688  -0.030  -3.552  0.00  0.00    -0.096 C 
ATOM     20  H   UNL     1       1.314  -2.017  -3.276  0.00  0.00    -0.082 HD
ENDBRANCH   8  17
ENDBRANCH   7   8
ENDBRANCH   1   7
BRANCH   4  21
ATOM     21  C   UNL     1       5.264  -6.679  -7.475  0.00  0.00    +0.141 C 
BRANCH  21  22
ATOM     22  C   UNL     1       5.961  -6.790  -8.806  0.00  0.00    -0.030 A 
ATOM     23  C   UNL     1       5.228  -7.059  -9.949  0.00  0.00    +0.005 A 
ATOM     24  C   UNL     1       5.859  -7.162 -11.175  0.00  0.00    +0.001 A 
ATOM     25  C   UNL     1       7.226  -6.998 -11.267  0.00  0.00    +0.013 A 
ATOM     26  C   UNL     1       7.972  -6.726 -10.119  0.00  0.00    +0.037 A 
ATOM     27  C   UNL     1       7.327  -6.618  -8.885  0.00  0.00    +0.018 A 
BRANCH  26  28
ATOM     28  C   UNL     1       9.437  -6.549 -10.209  0.00  0.00    +0.244 C 
ATOM     29  O   UNL     1      10.083  -6.313  -9.207  0.00  0.00    -0.270 OA
ATOM     30  N   UNL     1      10.055  -6.650 -11.402  0.00  0.00    -0.314 N 
ATOM     31  C   UNL     1      11.507  -6.474 -11.492  0.00  0.00    +0.128 C 
ATOM     32  H   UNL     1       9.539  -6.838 -12.202  0.00  0.00    +0.149 HD
ENDBRANCH  26  28
ENDBRANCH  21  22
ENDBRANCH   4  21
TORSDOF 8
