REMARK  Name = ZINC09422160
REMARK  9 active torsions:
REMARK  status: ('A' for Active; 'I' for Inactive)
REMARK    1  A    between atoms: C_1  and  C_2
REMARK    2  A    between atoms: C_3  and  C_36
REMARK    3  A    between atoms: N_6  and  C_24
REMARK    4  A    between atoms: C_10  and  N_11
REMARK    5  A    between atoms: N_11  and  C_12
REMARK    6  A    between atoms: C_15  and  C_18
REMARK    7  A    between atoms: C_18  and  N_19
REMARK    8  A    between atoms: C_24  and  C_25
REMARK    9  A    between atoms: C_25  and  C_26
REMARK                            x       y       z     vdW  Elec       q    Type
REMARK                         _______ _______ _______ _____ _____    ______ ____
ROOT
ATOM      1  C   UNL     1       2.497  -0.335   0.221  0.00  0.00    +0.046 C 
ATOM      2  C   UNL     1       2.419   1.161   0.056  0.00  0.00    -0.015 C 
ATOM      3  C   UNL     1       3.575   1.926  -0.006  0.00  0.00    +0.118 C 
ATOM      4  C   UNL     1       3.473   3.378  -0.160  0.00  0.00    +0.264 C 
ATOM      5  O   UNL     1       4.486   4.050  -0.210  0.00  0.00    -0.269 OA
ATOM      6  N   UNL     1       2.273   3.978  -0.249  0.00  0.00    -0.233 N 
ATOM      7  C   UNL     1       1.130   3.270  -0.199  0.00  0.00    +0.255 C 
ATOM      8  O   UNL     1       0.059   3.842  -0.281  0.00  0.00    -0.269 OA
ATOM      9  C   UNL     1       1.169   1.810  -0.044  0.00  0.00    +0.055 C 
ATOM     10  C   UNL     1      -0.013   1.076   0.008  0.00  0.00    +0.085 C 
ENDROOT
BRANCH  10  11
ATOM     11  N   UNL     1      -1.198   1.711   0.069  0.00  0.00    -0.320 N 
ATOM     12  H   UNL     1      -1.230   2.680   0.038  0.00  0.00    +0.152 HD
BRANCH  11  13
ATOM     13  C   UNL     1      -2.380   0.975   0.177  0.00  0.00    +0.031 A 
ATOM     14  C   UNL     1      -2.335  -0.413   0.216  0.00  0.00    +0.023 A 
ATOM     15  C   UNL     1      -3.505  -1.137   0.328  0.00  0.00    +0.007 A 
ATOM     16  C   UNL     1      -4.722  -0.483   0.390  0.00  0.00    -0.026 A 
ATOM     17  C   UNL     1      -4.771   0.898   0.346  0.00  0.00    +0.007 A 
ATOM     18  C   UNL     1      -3.604   1.629   0.240  0.00  0.00    +0.023 A 
BRANCH  16  19
ATOM     19  C   UNL     1      -5.998  -1.277   0.507  0.00  0.00    +0.180 C 
BRANCH  19  20
ATOM     20  N   UNL     1      -6.507  -1.582  -0.833  0.00  0.00    -0.248 N 
ATOM     21  C   UNL     1      -6.800  -2.797  -1.326  0.00  0.00    +0.219 A 
ATOM     22  N   UNL     1      -7.227  -2.645  -2.553  0.00  0.00    -0.223 NA
ATOM     23  C   UNL     1      -7.220  -1.353  -2.877  0.00  0.00    +0.245 A 
ATOM     24  N   UNL     1      -6.793  -0.661  -1.854  0.00  0.00    -0.158 NA
ENDBRANCH  19  20
ENDBRANCH  16  19
ENDBRANCH  11  13
ENDBRANCH  10  11
BRANCH   3  25
ATOM     25  C   UNL     1       4.859   1.300   0.087  0.00  0.00    +0.105 C 
ATOM     26  N   UNL     1       5.878   0.803   0.161  0.00  0.00    -0.191 NA
ENDBRANCH   3  25
BRANCH   6  27
ATOM     27  C   UNL     1       2.209   5.434  -0.403  0.00  0.00    +0.122 C 
BRANCH  27  28
ATOM     28  C   UNL     1       2.155   6.091   0.978  0.00  0.00    +0.056 C 
BRANCH  28  29
ATOM     29  C   UNL     1       2.089   7.588   0.819  0.00  0.00    -0.021 A 
ATOM     30  C   UNL     1       3.125   8.441   0.852  0.00  0.00    +0.087 A 
ATOM     31  N   UNL     1       2.681   9.722   0.667  0.00  0.00    -0.360 N 
ATOM     32  H   UNL     1       3.246  10.511   0.649  0.00  0.00    +0.165 HD
ATOM     33  C   UNL     1       1.312   9.726   0.517  0.00  0.00    +0.047 A 
ATOM     34  C   UNL     1       0.882   8.389   0.606  0.00  0.00    +0.003 A 
ATOM     35  C   UNL     1      -0.476   8.086   0.488  0.00  0.00    +0.010 A 
ATOM     36  C   UNL     1      -1.381   9.090   0.288  0.00  0.00    +0.001 A 
ATOM     37  C   UNL     1      -0.961  10.410   0.200  0.00  0.00    +0.002 A 
ATOM     38  C   UNL     1       0.374  10.732   0.313  0.00  0.00    +0.026 A 
ENDBRANCH  28  29
ENDBRANCH  27  28
ENDBRANCH   6  27
TORSDOF 8
