REMARK  Name = ZINC13695259
REMARK  9 active torsions:
REMARK  status: ('A' for Active; 'I' for Inactive)
REMARK    1  A    between atoms: C_1  and  C_2
REMARK    2  A    between atoms: C_2  and  O_3
REMARK    3  A    between atoms: O_3  and  C_4
REMARK    4  A    between atoms: C_9  and  C_10
REMARK    5  A    between atoms: N_12  and  C_13
REMARK    6  A    between atoms: C_22  and  C_24
REMARK    7  A    between atoms: C_24  and  C_25
REMARK    8  A    between atoms: C_24  and  C_26
REMARK    9  A    between atoms: C_24  and  C_27
REMARK                            x       y       z     vdW  Elec       q    Type
REMARK                         _______ _______ _______ _____ _____    ______ ____
ROOT
ATOM      1  C   UNL     1       0.053   2.404   0.788  0.00  0.00    +0.035 A 
ATOM      2  C   UNL     1       1.085   1.499   1.008  0.00  0.00    +0.024 A 
ATOM      3  C   UNL     1       2.380   1.958   1.152  0.00  0.00    +0.007 A 
ATOM      4  C   UNL     1       2.651   3.312   1.079  0.00  0.00    -0.024 A 
ATOM      5  C   UNL     1       1.631   4.225   0.860  0.00  0.00    +0.041 A 
ATOM      6  C   UNL     1       0.324   3.759   0.709  0.00  0.00    +0.047 A 
ATOM      7  N   UNL     1       2.113   5.537   0.820  0.00  0.00    -0.270 N 
ATOM      8  C   UNL     1       3.564   5.545   1.023  0.00  0.00    +0.118 C 
ATOM      9  C   UNL     1       3.955   4.068   1.200  0.00  0.00    +0.056 C 
ATOM     10  C   UNL     1       1.355   6.633   0.623  0.00  0.00    +0.225 C 
ATOM     11  O   UNL     1       0.148   6.532   0.558  0.00  0.00    -0.275 OA
ENDROOT
BRANCH   1  14
ATOM     12  C   UNL     1      -1.686   0.884   1.356  0.00  0.00    +0.252 C 
ATOM     13  O   UNL     1      -0.908   0.275   2.064  0.00  0.00    -0.270 OA
ATOM     14  N   UNL     1      -1.259   1.943   0.640  0.00  0.00    -0.281 N 
ATOM     15  H   UNL     1      -1.861   2.384   0.020  0.00  0.00    +0.155 HD
BRANCH  12  21
ATOM     16  C   UNL     1      -3.546  -0.638   2.022  0.00  0.00    +0.133 A 
ATOM     17  C   UNL     1      -4.876  -1.024   1.942  0.00  0.00    +0.046 A 
ATOM     18  C   UNL     1      -5.753  -0.327   1.135  0.00  0.00    +0.004 A 
ATOM     19  C   UNL     1      -5.313   0.762   0.400  0.00  0.00    +0.001 A 
ATOM     20  C   UNL     1      -3.997   1.163   0.471  0.00  0.00    +0.017 A 
ATOM     21  C   UNL     1      -3.098   0.463   1.279  0.00  0.00    +0.079 A 
BRANCH  16  22
ATOM     22  O   UNL     1      -2.684  -1.322   2.814  0.00  0.00    -0.491 OA
BRANCH  22  24
ATOM     23  C   UNL     1      -2.100  -3.074   4.373  0.00  0.00    +0.048 C 
ATOM     24  C   UNL     1      -3.213  -2.433   3.541  0.00  0.00    +0.226 C 
ENDBRANCH  22  24
ENDBRANCH  16  22
ENDBRANCH  12  21
ENDBRANCH   1  14
BRANCH  10  25
ATOM     25  C   UNL     1       2.006   7.985   0.482  0.00  0.00    +0.039 C 
ATOM     26  C   UNL     1       0.926   9.061   0.353  0.00  0.00    +0.020 C 
ATOM     27  C   UNL     1       2.863   8.268   1.718  0.00  0.00    +0.020 C 
ATOM     28  C   UNL     1       2.890   7.998  -0.766  0.00  0.00    +0.020 C 
ENDBRANCH  10  25
TORSDOF 5
