REMARK  Name = ZINC07124777
REMARK  7 active torsions:
REMARK  status: ('A' for Active; 'I' for Inactive)
REMARK    1  A    between atoms: C_1  and  C_2
REMARK    2  A    between atoms: C_2  and  N_3
REMARK    3  A    between atoms: C_4  and  C_18
REMARK    4  A    between atoms: C_7  and  S_8
REMARK    5  A    between atoms: S_8  and  C_9
REMARK    6  A    between atoms: C_9  and  C_11
REMARK    7  A    between atoms: C_9  and  C_12
REMARK                            x       y       z     vdW  Elec       q    Type
REMARK                         _______ _______ _______ _____ _____    ______ ____
ROOT
ATOM      1  N   UNL     1      -0.044   0.970   2.414  0.00  0.00    -0.319 N 
ATOM      2  C   UNL     1       0.894   1.581   3.228  0.00  0.00    +0.069 A 
ATOM      3  C   UNL     1       1.140   0.721   4.251  0.00  0.00    +0.140 A 
ATOM      4  N   UNL     1       0.386  -0.370   4.071  0.00  0.00    -0.230 NA
ATOM      5  C   UNL     1      -0.333  -0.235   2.979  0.00  0.00    +0.170 A 
ENDROOT
BRANCH   2   6
ATOM      6  C   UNL     1       1.507   2.910   3.025  0.00  0.00    +0.000 A 
ATOM      7  C   UNL     1       1.529   3.485   1.752  0.00  0.00    +0.011 A 
ATOM      8  C   UNL     1       2.098   4.728   1.570  0.00  0.00    +0.016 A 
ATOM      9  C   UNL     1       2.657   5.401   2.643  0.00  0.00    +0.018 A 
ATOM     10  C   UNL     1       2.644   4.833   3.906  0.00  0.00    +0.016 A 
ATOM     11  C   UNL     1       2.073   3.593   4.103  0.00  0.00    +0.011 A 
ATOM     12 BR   UNL     1       3.441   7.101   2.383  0.00  0.00    -0.050 Br
ENDBRANCH   2   6
BRANCH   1  14
ATOM     13  C   UNL     1       0.163   0.997  -0.023  0.00  0.00    +0.027 C 
ATOM     14  C   UNL     1      -0.621   1.517   1.183  0.00  0.00    +0.121 C 
ENDBRANCH   1  14
BRANCH   5  15
ATOM     15  S   UNL     1      -1.477  -1.418   2.349  0.00  0.00    -0.075 S 
BRANCH  15  16
ATOM     16  C   UNL     1      -1.316  -2.711   3.605  0.00  0.00    +0.137 C 
ATOM     17  C   UNL     1      -1.816  -2.182   4.950  0.00  0.00    +0.029 C 
BRANCH  16  18
ATOM     18  C   UNL     1      -2.135  -3.909   3.200  0.00  0.00    +0.233 C 
ATOM     19  O   UNL     1      -3.032  -3.786   2.393  0.00  0.00    -0.274 OA
ATOM     20  N   UNL     1      -1.873  -5.118   3.736  0.00  0.00    -0.239 N 
ATOM     21  C   UNL     1      -2.606  -6.189   3.374  0.00  0.00    +0.303 C 
ATOM     22  O   UNL     1      -3.504  -6.065   2.565  0.00  0.00    -0.253 OA
ATOM     23  N   UNL     1      -2.343  -7.398   3.909  0.00  0.00    -0.313 N 
ATOM     24  H   UNL     1      -1.060  -5.230   4.468  0.00  0.00    +0.159 HD
ATOM     25  H   UNL     1      -2.942  -8.272   3.614  0.00  0.00    +0.146 HD
ATOM     26  H   UNL     1      -1.530  -7.510   4.642  0.00  0.00    +0.146 HD
ENDBRANCH  16  18
ENDBRANCH  15  16
ENDBRANCH   5  15
TORSDOF 5
