REMARK  Name = ZINC62778381
REMARK  5 active torsions:
REMARK  status: ('A' for Active; 'I' for Inactive)
REMARK    1  A    between atoms: C_1  and  C_2
REMARK    2  A    between atoms: C_2  and  C_3
REMARK    3  A    between atoms: C_6  and  C_8
REMARK    4  A    between atoms: C_8  and  C_10
REMARK    5  A    between atoms: C_8  and  O_16
REMARK                            x       y       z     vdW  Elec       q    Type
REMARK                         _______ _______ _______ _____ _____    ______ ____
ROOT
ATOM      1  C   UNL     1      -5.223  -1.938   1.027  0.00  0.00    +0.199 C 
ENDROOT
BRANCH   1   2
ATOM      2  C   UNL     1      -6.114  -0.759   1.324  0.00  0.00    +0.069 A 
ATOM      3  C   UNL     1      -6.981  -0.178   0.463  0.00  0.00    +0.047 A 
ATOM      4  C   UNL     1      -7.609   0.878   1.131  0.00  0.00    +0.134 A 
ATOM      5  N   UNL     1      -7.136   0.929   2.350  0.00  0.00    -0.182 NA
ATOM      6  N   UNL     1      -6.195  -0.098   2.498  0.00  0.00    -0.279 N 
ATOM      7  H   UNL     1      -5.689  -0.297   3.301  0.00  0.00    +0.189 HD
ENDBRANCH   1   2
BRANCH   1  11
ATOM      8  C   UNL     1      -1.412  -0.526   0.013  0.00  0.00    -0.010 A 
ATOM      9  C   UNL     1      -2.221  -0.821  -1.034  0.00  0.00    +0.011 A 
ATOM     10  C   UNL     1      -3.495  -1.293  -0.784  0.00  0.00    +0.014 A 
ATOM     11  C   UNL     1      -3.899  -1.446   0.501  0.00  0.00    +0.024 A 
ATOM     12  S   UNL     1      -2.453  -0.923   1.407  0.00  0.00    -0.095 S 
BRANCH   8  14
ATOM     13  C   UNL     1      -0.019   1.526   0.010  0.00  0.00    +0.009 C 
ATOM     14  C   UNL     1       0.002  -0.004   0.002  0.00  0.00    +0.039 C 
ENDBRANCH   8  14
ENDBRANCH   1  11
BRANCH   1  15
ATOM     15  O   UNL     1      -5.011  -2.687   2.225  0.00  0.00    -0.381 OA
ATOM     16  H   UNL     1      -4.590  -2.183   2.936  0.00  0.00    +0.211 HD
ENDBRANCH   1  15
TORSDOF 4
