REMARK  Name = ZINC41406058
REMARK  9 active torsions:
REMARK  status: ('A' for Active; 'I' for Inactive)
REMARK    1  A    between atoms: C_1  and  C_2
REMARK    2  A    between atoms: C_2  and  C_3
REMARK    3  A    between atoms: C_2  and  C_4
REMARK    4  A    between atoms: C_2  and  N_20
REMARK    5  A    between atoms: C_4  and  N_5
REMARK    6  A    between atoms: N_8  and  C_9
REMARK    7  A    between atoms: C_9  and  C_10
REMARK    8  A    between atoms: C_14  and  C_16
REMARK    9  A    between atoms: N_18  and  C_19
REMARK                            x       y       z     vdW  Elec       q    Type
REMARK                         _______ _______ _______ _____ _____    ______ ____
ROOT
ATOM      1  N   UNL     1      -1.928  -1.502   0.115  0.00  0.00    -0.301 N 
ATOM      2  C   UNL     1      -3.235  -1.826   0.182  0.00  0.00    +0.300 C 
ATOM      3  O   UNL     1      -4.077  -0.950   0.213  0.00  0.00    -0.253 OA
ATOM      4  N   UNL     1      -3.607  -3.121   0.216  0.00  0.00    -0.295 N 
ATOM      5  H   UNL     1      -1.256  -2.201   0.090  0.00  0.00    +0.150 HD
ATOM      6  H   UNL     1      -2.934  -3.820   0.191  0.00  0.00    +0.151 HD
ENDROOT
BRANCH   1   7
ATOM      7  C   UNL     1      -1.523  -0.094   0.078  0.00  0.00    +0.093 C 
BRANCH   7   9
ATOM      8  C   UNL     1       0.425   1.466  -0.036  0.00  0.00    -0.008 C 
ATOM      9  C   UNL     1       0.002  -0.004   0.002  0.00  0.00    -0.055 C 
ATOM     10  C   UNL     1       0.615  -0.679   1.231  0.00  0.00    -0.008 C 
BRANCH   9  11
ATOM     11  N   UNL     1       0.473  -0.681  -1.214  0.00  0.00    +0.387 N 
ATOM     12  C   UNL     1       1.927  -0.503  -1.345  0.00  0.00    -0.073 C 
ATOM     13  C   UNL     1       2.439  -1.456  -2.426  0.00  0.00    +0.017 C 
ATOM     14  C   UNL     1       1.615  -1.297  -3.678  0.00  0.00    -0.048 A 
ATOM     15  C   UNL     1       2.113  -1.800  -4.870  0.00  0.00    +0.004 A 
ATOM     16  C   UNL     1       1.385  -1.676  -6.036  0.00  0.00    +0.000 A 
ATOM     17  C   UNL     1       0.153  -1.047  -6.014  0.00  0.00    +0.000 A 
ATOM     18  C   UNL     1      -0.342  -0.545  -4.828  0.00  0.00    +0.002 A 
ATOM     19  C   UNL     1       0.389  -0.667  -3.656  0.00  0.00    -0.061 A 
ATOM     20  C   UNL     1      -0.186  -0.097  -2.386  0.00  0.00    -0.042 C 
ATOM     21  H   UNL     1       0.255  -1.664  -1.159  0.00  0.00    -0.080 HD
ENDBRANCH   9  11
ENDBRANCH   7   9
ENDBRANCH   1   7
BRANCH   4  22
ATOM     22  C   UNL     1      -5.027  -3.473   0.290  0.00  0.00    +0.141 C 
BRANCH  22  23
ATOM     23  C   UNL     1      -5.172  -4.973   0.315  0.00  0.00    -0.030 A 
ATOM     24  C   UNL     1      -5.291  -5.675  -0.872  0.00  0.00    +0.005 A 
ATOM     25  C   UNL     1      -5.424  -7.051  -0.858  0.00  0.00    +0.001 A 
ATOM     26  C   UNL     1      -5.439  -7.734   0.341  0.00  0.00    +0.013 A 
ATOM     27  C   UNL     1      -5.319  -7.032   1.541  0.00  0.00    +0.037 A 
ATOM     28  C   UNL     1      -5.179  -5.644   1.520  0.00  0.00    +0.018 A 
BRANCH  27  29
ATOM     29  C   UNL     1      -5.334  -7.757   2.830  0.00  0.00    +0.244 C 
ATOM     30  O   UNL     1      -5.230  -7.144   3.874  0.00  0.00    -0.270 OA
ATOM     31  N   UNL     1      -5.465  -9.099   2.847  0.00  0.00    -0.314 N 
ATOM     32  C   UNL     1      -5.480  -9.817   4.124  0.00  0.00    +0.128 C 
ATOM     33  H   UNL     1      -5.548  -9.588   2.014  0.00  0.00    +0.149 HD
ENDBRANCH  27  29
ENDBRANCH  22  23
ENDBRANCH   4  22
TORSDOF 6
