REMARK  Name = ZINC37004673
REMARK  4 active torsions:
REMARK  status: ('A' for Active; 'I' for Inactive)
REMARK    1  A    between atoms: C_1  and  C_2
REMARK    2  A    between atoms: C_8  and  N_10
REMARK    3  A    between atoms: N_10  and  C_11
REMARK    4  A    between atoms: C_13  and  N_18
REMARK                            x       y       z     vdW  Elec       q    Type
REMARK                         _______ _______ _______ _____ _____    ______ ____
ROOT
ATOM      1  C   UNL     1       2.820   0.133   2.431  0.00  0.00    +0.048 A 
ATOM      2  C   UNL     1       2.220  -0.217   3.632  0.00  0.00    +0.052 A 
ATOM      3  C   UNL     1       2.921  -0.081   4.821  0.00  0.00    +0.071 A 
ATOM      4  C   UNL     1       4.222   0.406   4.806  0.00  0.00    +0.029 A 
ATOM      5  C   UNL     1       4.818   0.754   3.610  0.00  0.00    +0.024 A 
ATOM      6  C   UNL     1       4.124   0.614   2.422  0.00  0.00    +0.062 A 
ATOM      7 CL   UNL     1       4.880   1.045   0.920  0.00  0.00    -0.082 Cl
ENDROOT
BRANCH   3   8
ATOM      8  N   UNL     1       2.317  -0.433   6.037  0.00  0.00    -0.200 N 
ATOM      9  C   UNL     1       2.856  -0.356   7.273  0.00  0.00    +0.250 A 
ATOM     10  N   UNL     1       1.953  -0.782   8.117  0.00  0.00    -0.116 NA
ATOM     11  N   UNL     1       0.880  -1.123   7.499  0.00  0.00    -0.023 NA
ATOM     12  N   UNL     1       1.018  -0.936   6.231  0.00  0.00    -0.039 NA
ENDBRANCH   3   8
BRANCH   1  13
ATOM     13  N   UNL     1       2.116  -0.004   1.231  0.00  0.00    -0.340 N 
ATOM     14  H   UNL     1       2.538   0.237   0.392  0.00  0.00    +0.146 HD
BRANCH  13  21
ATOM     15  C   UNL     1      -0.019   1.526   0.010  0.00  0.00    +0.009 C 
ATOM     16  C   UNL     1       0.002  -0.004   0.002  0.00  0.00    +0.006 C 
ATOM     17  C   UNL     1       0.718  -0.497  -1.257  0.00  0.00    +0.005 C 
ATOM     18  C   UNL     1       0.739  -2.027  -1.265  0.00  0.00    +0.000 C 
ATOM     19  C   UNL     1       1.479  -2.534  -0.026  0.00  0.00    +0.002 C 
ATOM     20  C   UNL     1       0.763  -2.041   1.233  0.00  0.00    +0.022 C 
ATOM     21  C   UNL     1       0.742  -0.511   1.242  0.00  0.00    +0.073 C 
ENDBRANCH  13  21
ENDBRANCH   1  13
TORSDOF 3
