REMARK  Name = ZINC39571219
REMARK  5 active torsions:
REMARK  status: ('A' for Active; 'I' for Inactive)
REMARK    1  A    between atoms: C_1  and  C_2
REMARK    2  A    between atoms: C_2  and  C_10
REMARK    3  A    between atoms: C_3  and  C_4
REMARK    4  A    between atoms: N_11  and  N_12
REMARK    5  A    between atoms: C_13  and  C_15
REMARK                            x       y       z     vdW  Elec       q    Type
REMARK                         _______ _______ _______ _____ _____    ______ ____
ROOT
ATOM      1  N   UNL     1      -0.185  -0.711  -3.567  0.00  0.00    -0.205 N 
ATOM      2  C   UNL     1      -0.485  -0.060  -4.709  0.00  0.00    +0.263 C 
ATOM      3  O   UNL     1      -0.876   1.087  -4.668  0.00  0.00    -0.271 OA
ATOM      4  H   UNL     1       0.127  -1.629  -3.599  0.00  0.00    +0.177 HD
ENDROOT
BRANCH   2   5
ATOM      5  C   UNL     1      -0.336  -0.759  -6.035  0.00  0.00    +0.243 C 
ATOM      6  C   UNL     1       1.094  -0.704  -6.510  0.00  0.00    -0.012 C 
ATOM      7  C   UNL     1       1.049  -0.025  -7.661  0.00  0.00    +0.065 C 
ATOM      8  C   UNL     1       2.278   0.270  -8.492  0.00  0.00    +0.057 C 
ATOM      9  C   UNL     1       3.519   0.068  -7.614  0.00  0.00    +0.006 C 
ATOM     10  C   UNL     1       3.446  -1.297  -6.924  0.00  0.00    +0.005 C 
ATOM     11  C   UNL     1       2.328  -1.271  -5.872  0.00  0.00    +0.035 C 
ATOM     12  N   UNL     1      -0.225   0.334  -7.936  0.00  0.00    -0.158 NA
ATOM     13  N   UNL     1      -1.060  -0.031  -7.095  0.00  0.00    -0.170 NA
ENDBRANCH   2   5
BRANCH   1  15
ATOM     14  C   UNL     1      -0.035  -0.690  -1.230  0.00  0.00    +0.133 C 
ATOM     15  N   UNL     1      -0.325  -0.061  -2.333  0.00  0.00    -0.188 NA
BRANCH  14  17
ATOM     16  C   UNL     1      -0.661   1.393   0.069  0.00  0.00    +0.045 C 
ATOM     17  C   UNL     1      -0.176  -0.032   0.018  0.00  0.00    -0.030 C 
ATOM     18  C   UNL     1       0.124  -0.683   1.161  0.00  0.00    +0.012 C 
BRANCH  18  19
ATOM     19  C   UNL     1       0.127   0.042   2.442  0.00  0.00    -0.025 A 
ATOM     20  C   UNL     1      -0.261  -0.608   3.618  0.00  0.00    +0.008 A 
ATOM     21  C   UNL     1      -0.256   0.078   4.814  0.00  0.00    +0.001 A 
ATOM     22  C   UNL     1       0.132   1.406   4.853  0.00  0.00    +0.000 A 
ATOM     23  C   UNL     1       0.517   2.056   3.693  0.00  0.00    +0.001 A 
ATOM     24  C   UNL     1       0.522   1.382   2.490  0.00  0.00    +0.008 A 
ENDBRANCH  18  19
ENDBRANCH  14  17
ENDBRANCH   1  15
TORSDOF 4
