REMARK  Name = ZINC56477777
REMARK  9 active torsions:
REMARK  status: ('A' for Active; 'I' for Inactive)
REMARK    1  A    between atoms: C_1  and  C_2
REMARK    2  A    between atoms: C_2  and  C_3
REMARK    3  A    between atoms: C_2  and  O_4
REMARK    4  A    between atoms: O_4  and  C_5
REMARK    5  A    between atoms: C_10  and  C_11
REMARK    6  A    between atoms: C_11  and  N_12
REMARK    7  A    between atoms: N_15  and  C_16
REMARK    8  A    between atoms: N_15  and  C_17
REMARK    9  A    between atoms: C_17  and  C_18
REMARK                            x       y       z     vdW  Elec       q    Type
REMARK                         _______ _______ _______ _____ _____    ______ ____
ROOT
ATOM      1  N   UNL     1      -4.400  -0.241  -1.006  0.00  0.00    -0.295 N 
ATOM      2  C   UNL     1      -5.406   0.572  -0.627  0.00  0.00    +0.303 C 
ATOM      3  O   UNL     1      -5.997   0.363   0.415  0.00  0.00    -0.253 OA
ATOM      4  N   UNL     1      -5.757   1.617  -1.404  0.00  0.00    -0.281 N 
ATOM      5  C   UNL     1      -5.045   1.868  -2.659  0.00  0.00    +0.134 C 
ATOM      6  H   UNL     1      -3.928  -0.074  -1.837  0.00  0.00    +0.151 HD
ENDROOT
BRANCH   1   7
ATOM      7  C   UNL     1      -4.018  -1.376  -0.162  0.00  0.00    +0.144 C 
BRANCH   7  13
ATOM      8  C   UNL     1      -1.580  -1.639  -0.686  0.00  0.00    +0.126 A 
ATOM      9  C   UNL     1      -0.530  -2.329  -1.276  0.00  0.00    +0.046 A 
ATOM     10  C   UNL     1      -0.779  -3.488  -1.985  0.00  0.00    +0.004 A 
ATOM     11  C   UNL     1      -2.072  -3.961  -2.107  0.00  0.00    +0.001 A 
ATOM     12  C   UNL     1      -3.120  -3.276  -1.521  0.00  0.00    +0.009 A 
ATOM     13  C   UNL     1      -2.876  -2.119  -0.806  0.00  0.00    +0.011 A 
BRANCH   8  14
ATOM     14  O   UNL     1      -1.339  -0.499   0.012  0.00  0.00    -0.489 OA
BRANCH  14  16
ATOM     15  C   UNL     1      -0.011   1.505   0.263  0.00  0.00    +0.051 C 
ATOM     16  C   UNL     1       0.001  -0.002  -0.000  0.00  0.00    +0.167 C 
ATOM     17  C   UNL     1       0.815  -0.703   1.089  0.00  0.00    +0.051 C 
ENDBRANCH  14  16
ENDBRANCH   8  14
ENDBRANCH   7  13
ENDBRANCH   1   7
BRANCH   4  18
ATOM     18  C   UNL     1      -6.851   2.500  -0.992  0.00  0.00    +0.183 C 
BRANCH  18  19
ATOM     19  C   UNL     1      -6.298   3.629  -0.160  0.00  0.00    +0.122 A 
ATOM     20  C   UNL     1      -5.873   4.816  -0.627  0.00  0.00    +0.046 A 
ATOM     21  C   UNL     1      -5.441   5.566   0.491  0.00  0.00    +0.041 A 
ATOM     22  C   UNL     1      -5.628   4.792   1.575  0.00  0.00    +0.195 A 
ATOM     23  O   UNL     1      -6.153   3.622   1.175  0.00  0.00    -0.466 OA
ENDBRANCH  18  19
ENDBRANCH   4  18
TORSDOF 6
