REMARK  Name = ZINC47337950
REMARK  7 active torsions:
REMARK  status: ('A' for Active; 'I' for Inactive)
REMARK    1  A    between atoms: C_1  and  C_2
REMARK    2  A    between atoms: C_5  and  N_9
REMARK    3  A    between atoms: N_12  and  C_13
REMARK    4  A    between atoms: N_12  and  C_21
REMARK    5  A    between atoms: C_13  and  C_14
REMARK    6  A    between atoms: C_19  and  O_20
REMARK    7  A    between atoms: C_21  and  C_22
REMARK                            x       y       z     vdW  Elec       q    Type
REMARK                         _______ _______ _______ _____ _____    ______ ____
ROOT
ATOM      1  N   UNL     1       0.059  -4.173  -0.025  0.00  0.00    -0.267 N 
ATOM      2  C   UNL     1      -0.040  -4.840  -1.192  0.00  0.00    +0.307 C 
ATOM      3  O   UNL     1      -0.054  -4.229  -2.243  0.00  0.00    -0.252 OA
ATOM      4  N   UNL     1      -0.124  -6.185  -1.194  0.00  0.00    -0.274 N 
ATOM      5  H   UNL     1       0.152  -4.662   0.807  0.00  0.00    +0.156 HD
ENDROOT
BRANCH   1  10
ATOM      6  C   UNL     1      -0.073   1.502   0.017  0.00  0.00    +0.044 C 
ATOM      7  C   UNL     1      -0.037  -0.005   0.006  0.00  0.00    -0.048 A 
ATOM      8  C   UNL     1      -0.627  -0.702  -1.032  0.00  0.00    +0.005 A 
ATOM      9  C   UNL     1      -0.597  -2.083  -1.046  0.00  0.00    +0.026 A 
ATOM     10  C   UNL     1       0.027  -2.772  -0.015  0.00  0.00    +0.070 A 
ATOM     11  C   UNL     1       0.619  -2.070   1.029  0.00  0.00    +0.145 A 
ATOM     12  C   UNL     1       0.589  -0.687   1.033  0.00  0.00    +0.043 A 
ATOM     13  F   UNL     1       1.227  -2.736   2.035  0.00  0.00    -0.204 F 
ENDBRANCH   1  10
BRANCH   4  14
ATOM     14  C   UNL     1      -0.232  -6.911  -2.462  0.00  0.00    +0.148 C 
BRANCH  14  15
ATOM     15  C   UNL     1       1.148  -7.248  -2.966  0.00  0.00    +0.011 A 
ATOM     16  C   UNL     1       1.734  -6.471  -3.947  0.00  0.00    +0.009 A 
ATOM     17  C   UNL     1       2.999  -6.780  -4.411  0.00  0.00    +0.001 A 
ATOM     18  C   UNL     1       3.681  -7.866  -3.894  0.00  0.00    +0.004 A 
ATOM     19  C   UNL     1       3.100  -8.646  -2.914  0.00  0.00    +0.046 A 
ATOM     20  C   UNL     1       1.832  -8.335  -2.443  0.00  0.00    +0.122 A 
BRANCH  20  21
ATOM     21  O   UNL     1       1.260  -9.097  -1.474  0.00  0.00    -0.506 OA
ATOM     22  H   UNL     1       0.740  -9.838  -1.812  0.00  0.00    +0.292 HD
ENDBRANCH  20  21
ENDBRANCH  14  15
ENDBRANCH   4  14
BRANCH   4  23
ATOM     23  C   UNL     1      -0.107  -6.922   0.073  0.00  0.00    +0.183 C 
BRANCH  23  24
ATOM     24  C   UNL     1      -1.518  -7.086   0.577  0.00  0.00    +0.122 A 
ATOM     25  C   UNL     1      -2.338  -8.116   0.298  0.00  0.00    +0.046 A 
ATOM     26  C   UNL     1      -3.555  -7.865   0.973  0.00  0.00    +0.041 A 
ATOM     27  C   UNL     1      -3.405  -6.697   1.624  0.00  0.00    +0.195 A 
ATOM     28  O   UNL     1      -2.168  -6.233   1.385  0.00  0.00    -0.466 OA
ENDBRANCH  23  24
ENDBRANCH   4  23
TORSDOF 6
