REMARK  Name = ZINC32608118
REMARK  3 active torsions:
REMARK  status: ('A' for Active; 'I' for Inactive)
REMARK    1  A    between atoms: C_4  and  C_7
REMARK    2  A    between atoms: C_10  and  N_12
REMARK    3  A    between atoms: C_13  and  C_15
REMARK                            x       y       z     vdW  Elec       q    Type
REMARK                         _______ _______ _______ _____ _____    ______ ____
ROOT
ATOM      1  N   UNL     1      -6.079   3.036   0.081  0.00  0.00    -0.182 NA
ATOM      2  C   UNL     1      -4.952   3.774   0.073  0.00  0.00    +0.285 C 
ATOM      3  O   UNL     1      -5.019   4.988   0.080  0.00  0.00    -0.265 OA
ENDROOT
BRANCH   2   4
ATOM      4  C   UNL     1      -3.638   3.110   0.055  0.00  0.00    +0.104 A 
ATOM      5  C   UNL     1      -3.551   1.708   0.048  0.00  0.00    +0.100 A 
ATOM      6  N   UNL     1      -2.397   1.092   0.032  0.00  0.00    -0.360 N 
ATOM      7  C   UNL     1      -1.236   1.762   0.018  0.00  0.00    +0.056 A 
ATOM      8  C   UNL     1      -0.013   1.076   0.008  0.00  0.00    +0.064 A 
ATOM      9  C   UNL     1       1.160   1.776   0.001  0.00  0.00    +0.128 A 
ATOM     10  C   UNL     1       1.164   3.169   0.007  0.00  0.00    +0.077 A 
ATOM     11  C   UNL     1      -0.007   3.870   0.022  0.00  0.00    +0.139 A 
ATOM     12  C   UNL     1      -1.230   3.178   0.030  0.00  0.00    +0.081 A 
ATOM     13  C   UNL     1      -2.461   3.869   0.047  0.00  0.00    +0.205 A 
ATOM     14  O   UNL     1      -2.502   5.221   0.053  0.00  0.00    -0.286 OA
ATOM     15  F   UNL     1       0.009   5.221   0.029  0.00  0.00    -0.205 F 
ATOM     16  F   UNL     1       2.333   1.107  -0.014  0.00  0.00    -0.205 F 
ATOM     17  H   UNL     1      -2.360  -0.007   0.031  0.00  0.00    +0.165 HD
ENDBRANCH   2   4
BRANCH   1  21
ATOM     18  C   UNL     1      -9.613   3.883   0.123  0.00  0.00    +0.080 A 
ATOM     19  C   UNL     1      -9.484   5.244   0.129  0.00  0.00    +0.077 A 
ATOM     20  S   UNL     1      -7.703   5.408   0.118  0.00  0.00    -0.056 S 
ATOM     21  C   UNL     1      -7.319   3.663   0.097  0.00  0.00    +0.196 A 
ATOM     22  N   UNL     1      -8.525   3.127   0.107  0.00  0.00    -0.221 NA
BRANCH  18  26
ATOM     23  C   UNL     1     -13.469   2.093   0.153  0.00  0.00    +0.000 A 
ATOM     24  C   UNL     1     -12.339   1.295   0.137  0.00  0.00    +0.001 A 
ATOM     25  C   UNL     1     -11.085   1.871   0.128  0.00  0.00    +0.010 A 
ATOM     26  C   UNL     1     -10.958   3.259   0.134  0.00  0.00    +0.001 A 
ATOM     27  C   UNL     1     -12.100   4.058   0.156  0.00  0.00    +0.010 A 
ATOM     28  C   UNL     1     -13.349   3.471   0.159  0.00  0.00    +0.001 A 
ENDBRANCH  18  26
ENDBRANCH   1  21
TORSDOF 3
