REMARK  Name = ZINC51168266
REMARK  5 active torsions:
REMARK  status: ('A' for Active; 'I' for Inactive)
REMARK    1  A    between atoms: C_1  and  C_2
REMARK    2  A    between atoms: C_5  and  C_9
REMARK    3  A    between atoms: C_6  and  C_8
REMARK    4  A    between atoms: C_13  and  N_15
REMARK    5  A    between atoms: N_15  and  N_16
REMARK                            x       y       z     vdW  Elec       q    Type
REMARK                         _______ _______ _______ _____ _____    ______ ____
ROOT
ATOM      1  C   UNL     1      -0.403  -4.216  -0.218  0.00  0.00    +0.162 A 
ATOM      2  N   UNL     1      -0.484  -4.768  -1.421  0.00  0.00    -0.232 NA
ATOM      3  C   UNL     1      -0.679  -6.072  -1.560  0.00  0.00    +0.050 A 
ATOM      4  C   UNL     1      -0.798  -6.859  -0.432  0.00  0.00    +0.015 A 
ATOM      5  C   UNL     1      -0.709  -6.250   0.822  0.00  0.00    +0.139 A 
ATOM      6  N   UNL     1      -0.507  -4.939   0.888  0.00  0.00    -0.211 NA
ATOM      7  C   UNL     1      -1.014  -8.300  -0.830  0.00  0.00    +0.041 C 
ATOM      8  C   UNL     1      -1.446  -8.249  -2.312  0.00  0.00    +0.011 C 
ATOM      9  C   UNL     1      -0.805  -6.931  -2.798  0.00  0.00    +0.056 C 
ENDROOT
BRANCH   1  14
ATOM     10  C   UNL     1       0.449   1.463   0.210  0.00  0.00    +0.044 C 
ATOM     11  C   UNL     1       0.226  -0.023   0.098  0.00  0.00    -0.050 A 
ATOM     12  C   UNL     1      -0.759  -0.631   0.856  0.00  0.00    +0.004 A 
ATOM     13  C   UNL     1      -0.967  -1.992   0.757  0.00  0.00    +0.012 A 
ATOM     14  C   UNL     1      -0.184  -2.753  -0.109  0.00  0.00    +0.022 A 
ATOM     15  C   UNL     1       0.806  -2.135  -0.870  0.00  0.00    -0.040 A 
ATOM     16  C   UNL     1       1.002  -0.773  -0.767  0.00  0.00    +0.007 A 
ATOM     17  C   UNL     1       1.657  -2.952  -1.808  0.00  0.00    +0.044 C 
ENDBRANCH   1  14
BRANCH   5  18
ATOM     18  N   UNL     1      -0.824  -7.003   1.979  0.00  0.00    -0.267 N 
ATOM     19  H   UNL     1      -0.967  -7.961   1.922  0.00  0.00    +0.167 HD
BRANCH  18  20
ATOM     20  N   UNL     1      -0.735  -6.397   3.200  0.00  0.00    -0.255 NA
ATOM     21  H   UNL     1      -0.837  -7.070   3.946  0.00  0.00    +0.140 HD
ATOM     22  H   UNL     1       0.131  -5.888   3.288  0.00  0.00    +0.140 HD
ENDBRANCH  18  20
ENDBRANCH   5  18
TORSDOF 3
