REMARK  Name = ZINC50649168
REMARK  5 active torsions:
REMARK  status: ('A' for Active; 'I' for Inactive)
REMARK    1  A    between atoms: C_1  and  C_2
REMARK    2  A    between atoms: C_7  and  N_8
REMARK    3  A    between atoms: N_8  and  S_9
REMARK    4  A    between atoms: S_9  and  C_12
REMARK    5  A    between atoms: N_18  and  C_19
REMARK                            x       y       z     vdW  Elec       q    Type
REMARK                         _______ _______ _______ _____ _____    ______ ____
ROOT
ATOM      1  S   UNL     1       0.050  -0.852   3.844  0.00  0.00    +0.092 S 
ATOM      2  O   UNL     1      -1.185  -1.549   3.928  0.00  0.00    -0.148 OA
ATOM      3  O   UNL     1       1.305  -1.515   3.904  0.00  0.00    -0.148 OA
ENDROOT
BRANCH   1   4
ATOM      4  C   UNL     1       0.046   0.337   5.145  0.00  0.00    +0.115 A 
ATOM      5  C   UNL     1       1.238   0.836   5.654  0.00  0.00    +0.046 A 
ATOM      6  C   UNL     1       1.201   1.767   6.673  0.00  0.00    +0.086 A 
ATOM      7  N   UNL     1       0.050   2.185   7.166  0.00  0.00    -0.350 N 
ATOM      8  C   UNL     1      -1.107   1.732   6.708  0.00  0.00    +0.098 A 
ATOM      9  C   UNL     1      -1.144   0.797   5.678  0.00  0.00    +0.070 A 
ATOM     10  N   UNL     1      -2.295   2.200   7.257  0.00  0.00    -0.334 N 
ATOM     11  C   UNL     1      -3.579   1.704   6.756  0.00  0.00    +0.127 C 
ATOM     12  H   UNL     1      -2.274   2.854   7.973  0.00  0.00    +0.147 HD
ATOM     13  H   UNL     1       0.052   2.839   7.882  0.00  0.00    +0.166 HD
ENDBRANCH   1   4
BRANCH   1  14
ATOM     14  N   UNL     1       0.025  -0.014   2.416  0.00  0.00    -0.098 NA
BRANCH  14  21
ATOM     15  C   UNL     1      -0.018   1.503   0.010  0.00  0.00    +0.046 C 
ATOM     16  C   UNL     1       0.002  -0.004   0.002  0.00  0.00    -0.023 A 
ATOM     17  C   UNL     1       0.006  -0.689  -1.198  0.00  0.00    +0.043 A 
ATOM     18  C   UNL     1       0.025  -2.073  -1.206  0.00  0.00    +0.124 A 
ATOM     19  C   UNL     1       0.040  -2.774  -0.012  0.00  0.00    +0.040 A 
ATOM     20  C   UNL     1       0.036  -2.094   1.190  0.00  0.00    +0.030 A 
ATOM     21  C   UNL     1       0.023  -0.705   1.200  0.00  0.00    +0.077 A 
ATOM     22  F   UNL     1       0.029  -2.740  -2.381  0.00  0.00    -0.205 F 
ENDBRANCH  14  21
ENDBRANCH   1  14
TORSDOF 3
