REMARK  Name = ZINC67518157
REMARK  5 active torsions:
REMARK  status: ('A' for Active; 'I' for Inactive)
REMARK    1  A    between atoms: C_1  and  C_2
REMARK    2  A    between atoms: C_15  and  C_17
REMARK    3  A    between atoms: C_18  and  C_19
REMARK    4  A    between atoms: C_22  and  N_25
REMARK    5  A    between atoms: C_26  and  C_28
REMARK                            x       y       z     vdW  Elec       q    Type
REMARK                         _______ _______ _______ _____ _____    ______ ____
ROOT
ATOM      1  C   UNL     1       0.184   1.759   0.762  0.00  0.00    +0.007 C 
ATOM      2  C   UNL     1       0.207   0.248   0.521  0.00  0.00    -0.014 C 
ATOM      3  C   UNL     1      -1.223  -0.260   0.323  0.00  0.00    +0.005 C 
ATOM      4  C   UNL     1      -1.191  -1.768   0.067  0.00  0.00    +0.023 C 
ATOM      5  C   UNL     1      -0.555  -2.483   1.256  0.00  0.00    +0.079 C 
ATOM      6  C   UNL     1       0.861  -1.953   1.500  0.00  0.00    +0.010 C 
ATOM      7  C   UNL     1       0.829  -0.452   1.731  0.00  0.00    +0.008 C 
ATOM      8  C   UNL     1       1.434  -2.638   2.747  0.00  0.00    +0.007 C 
ATOM      9  C   UNL     1       0.572  -2.279   3.960  0.00  0.00    +0.019 C 
ATOM     10  C   UNL     1      -0.855  -2.790   3.743  0.00  0.00    +0.108 C 
ATOM     11  N   UNL     1      -1.350  -2.255   2.467  0.00  0.00    -0.295 N 
ATOM     12  C   UNL     1      -2.517  -1.583   2.410  0.00  0.00    +0.240 C 
ATOM     13  O   UNL     1      -2.969  -1.239   1.333  0.00  0.00    -0.271 OA
ENDROOT
BRANCH  12  14
ATOM     14  C   UNL     1      -3.240  -1.266   3.641  0.00  0.00    +0.068 C 
ATOM     15  C   UNL     1      -4.458  -0.687   3.578  0.00  0.00    +0.013 C 
BRANCH  15  16
ATOM     16  C   UNL     1      -5.185  -0.369   4.816  0.00  0.00    -0.025 A 
ATOM     17  C   UNL     1      -4.614  -0.661   6.060  0.00  0.00    +0.010 A 
ATOM     18  C   UNL     1      -5.299  -0.362   7.216  0.00  0.00    +0.024 A 
ATOM     19  C   UNL     1      -6.556   0.230   7.149  0.00  0.00    +0.033 A 
ATOM     20  C   UNL     1      -7.128   0.522   5.914  0.00  0.00    +0.024 A 
ATOM     21  C   UNL     1      -6.448   0.232   4.753  0.00  0.00    +0.010 A 
BRANCH  19  22
ATOM     22  N   UNL     1      -7.246   0.532   8.323  0.00  0.00    -0.286 N 
ATOM     23  C   UNL     1      -6.571   0.938   9.416  0.00  0.00    +0.214 C 
ATOM     24  O   UNL     1      -5.358   0.962   9.406  0.00  0.00    -0.276 OA
ATOM     25  C   UNL     1      -7.322   1.361  10.652  0.00  0.00    +0.109 C 
ATOM     26  H   UNL     1      -8.212   0.450   8.353  0.00  0.00    +0.155 HD
ENDBRANCH  19  22
ENDBRANCH  15  16
ENDBRANCH  12  14
TORSDOF 3
