REMARK  Name = ZINC42669033
REMARK  7 active torsions:
REMARK  status: ('A' for Active; 'I' for Inactive)
REMARK    1  A    between atoms: C_1  and  C_2
REMARK    2  A    between atoms: C_5  and  C_21
REMARK    3  A    between atoms: C_6  and  C_8
REMARK    4  A    between atoms: C_8  and  C_10
REMARK    5  A    between atoms: C_8  and  N_11
REMARK    6  A    between atoms: N_11  and  C_12
REMARK    7  A    between atoms: N_15  and  C_20
REMARK                            x       y       z     vdW  Elec       q    Type
REMARK                         _______ _______ _______ _____ _____    ______ ____
ROOT
ATOM      1  N   UNL     1      -0.535  -2.018   3.545  0.00  0.00    -0.335 N 
ATOM      2  H   UNL     1      -0.527  -1.051   3.466  0.00  0.00    +0.147 HD
ENDROOT
BRANCH   1   3
ATOM      3  C   UNL     1      -1.104  -2.617   4.656  0.00  0.00    +0.071 A 
ATOM      4  C   UNL     1      -1.115  -4.022   4.781  0.00  0.00    +0.157 A 
ATOM      5  N   UNL     1      -1.649  -4.588   5.826  0.00  0.00    -0.175 NA
ATOM      6  N   UNL     1      -2.224  -3.822   6.846  0.00  0.00    -0.231 N 
ATOM      7  C   UNL     1      -2.236  -2.477   6.769  0.00  0.00    +0.287 A 
ATOM      8  O   UNL     1      -2.739  -1.815   7.663  0.00  0.00    -0.265 OA
ATOM      9  C   UNL     1      -1.662  -1.842   5.657  0.00  0.00    +0.129 A 
ATOM     10 CL   UNL     1      -1.658  -0.111   5.537  0.00  0.00    -0.076 Cl
ATOM     11  C   UNL     1      -2.817  -4.489   8.008  0.00  0.00    +0.176 C 
ENDBRANCH   1   3
BRANCH   1  12
ATOM     12  C   UNL     1       0.054  -2.845   2.489  0.00  0.00    +0.098 C 
ATOM     13  C   UNL     1       1.497  -3.192   2.858  0.00  0.00    +0.033 C 
BRANCH  12  19
ATOM     14  C   UNL     1      -0.018   1.503   0.010  0.00  0.00    +0.044 C 
ATOM     15  C   UNL     1       0.002  -0.004   0.002  0.00  0.00    -0.050 A 
ATOM     16  C   UNL     1       0.006  -0.689  -1.199  0.00  0.00    +0.003 A 
ATOM     17  C   UNL     1       0.025  -2.071  -1.207  0.00  0.00    +0.004 A 
ATOM     18  C   UNL     1       0.040  -2.768  -0.013  0.00  0.00    -0.046 A 
ATOM     19  C   UNL     1       0.037  -2.084   1.188  0.00  0.00    -0.024 A 
ATOM     20  C   UNL     1       0.023  -0.702   1.195  0.00  0.00    +0.009 A 
ATOM     21  C   UNL     1       0.059  -4.275  -0.021  0.00  0.00    +0.044 C 
ENDBRANCH  12  19
ENDBRANCH   1  12
TORSDOF 3
