REMARK  Name = ZINC05092345
REMARK  6 active torsions:
REMARK  status: ('A' for Active; 'I' for Inactive)
REMARK    1  A    between atoms: C_1  and  C_2
REMARK    2  A    between atoms: C_7  and  C_8
REMARK    3  A    between atoms: N_10  and  C_11
REMARK    4  A    between atoms: C_11  and  C_20
REMARK    5  A    between atoms: C_12  and  C_18
REMARK    6  A    between atoms: C_13  and  C_17
REMARK                            x       y       z     vdW  Elec       q    Type
REMARK                         _______ _______ _______ _____ _____    ______ ____
ROOT
ATOM      1  C   UNL     1      -4.855   2.023  -1.390  0.00  0.00    +0.243 C 
ATOM      2  C   UNL     1      -6.234   2.639  -1.261  0.00  0.00    +0.087 C 
ATOM      3  C   UNL     1      -6.285   3.632  -2.165  0.00  0.00    +0.024 C 
ATOM      4  N   UNL     1      -5.119   3.749  -2.870  0.00  0.00    -0.286 N 
ATOM      5  C   UNL     1      -4.202   2.840  -2.488  0.00  0.00    +0.255 C 
ATOM      6  O   UNL     1      -3.082   2.702  -2.932  0.00  0.00    -0.272 OA
ATOM      7  C   UNL     1      -7.487   4.515  -2.377  0.00  0.00    +0.062 C 
ATOM      8  H   UNL     1      -4.970   4.409  -3.565  0.00  0.00    +0.155 HD
ENDROOT
BRANCH   1  11
ATOM      9  C   UNL     1      -2.827   1.755  -0.066  0.00  0.00    +0.246 C 
ATOM     10  O   UNL     1      -2.286   1.278  -1.045  0.00  0.00    -0.270 OA
ATOM     11  N   UNL     1      -4.111   2.159  -0.135  0.00  0.00    -0.286 N 
ATOM     12  H   UNL     1      -4.542   2.539   0.646  0.00  0.00    +0.151 HD
BRANCH   9  19
ATOM     13  C   UNL     1      -0.002   1.131  -0.003  0.00  0.00    +0.044 C 
ATOM     14  C   UNL     1      -0.713   1.593   1.242  0.00  0.00    -0.038 A 
ATOM     15  C   UNL     1      -0.017   1.729   2.426  0.00  0.00    +0.004 A 
ATOM     16  C   UNL     1      -0.668   2.154   3.570  0.00  0.00    +0.000 A 
ATOM     17  C   UNL     1      -2.020   2.446   3.536  0.00  0.00    +0.001 A 
ATOM     18  C   UNL     1      -2.728   2.315   2.360  0.00  0.00    +0.013 A 
ATOM     19  C   UNL     1      -2.076   1.891   1.200  0.00  0.00    +0.040 A 
ENDBRANCH   9  19
ENDBRANCH   1  11
BRANCH   1  20
ATOM     20  C   UNL     1      -4.954   0.552  -1.799  0.00  0.00    +0.424 C 
ATOM     21  F   UNL     1      -5.631  -0.163  -0.805  0.00  0.00    -0.167 F 
ATOM     22  F   UNL     1      -5.654   0.450  -3.006  0.00  0.00    -0.167 F 
ATOM     23  F   UNL     1      -3.668   0.025  -1.959  0.00  0.00    -0.167 F 
ENDBRANCH   1  20
BRANCH   2  24
ATOM     24  C   UNL     1      -7.272   2.243  -0.359  0.00  0.00    +0.099 C 
ATOM     25  N   UNL     1      -8.096   1.928   0.357  0.00  0.00    -0.191 NA
ENDBRANCH   2  24
TORSDOF 4
