REMARK  Name = ZINC39674211
REMARK  7 active torsions:
REMARK  status: ('A' for Active; 'I' for Inactive)
REMARK    1  A    between atoms: C_1  and  C_2
REMARK    2  A    between atoms: C_4  and  C_9
REMARK    3  A    between atoms: C_5  and  C_8
REMARK    4  A    between atoms: C_9  and  C_11
REMARK    5  A    between atoms: C_9  and  N_12
REMARK    6  A    between atoms: C_13  and  C_15
REMARK    7  A    between atoms: C_26  and  C_28
REMARK                            x       y       z     vdW  Elec       q    Type
REMARK                         _______ _______ _______ _____ _____    ______ ____
ROOT
ATOM      1  C   UNL     1      -0.214   2.661  -4.308  0.00  0.00    +0.100 C 
ATOM      2  C   UNL     1      -1.437   3.474  -3.826  0.00  0.00    +0.121 C 
ATOM      3  N   UNL     1      -1.734   4.400  -4.945  0.00  0.00    -0.296 N 
ATOM      4  C   UNL     1      -1.513   3.587  -6.165  0.00  0.00    +0.115 C 
ATOM      5  C   UNL     1      -0.269   2.737  -5.843  0.00  0.00    -0.004 C 
ATOM      6  C   UNL     1      -0.417   1.339  -6.436  0.00  0.00    -0.010 C 
ATOM      7  C   UNL     1      -0.410   1.435  -7.964  0.00  0.00    -0.082 C 
ATOM      8  N   UNL     1       0.847   2.048  -8.412  0.00  0.00    +0.379 N 
ATOM      9  C   UNL     1       0.938   3.425  -7.913  0.00  0.00    -0.082 C 
ATOM     10  C   UNL     1       0.988   3.414  -6.383  0.00  0.00    -0.010 C 
ATOM     11  C   UNL     1      -2.118   5.690  -4.869  0.00  0.00    +0.247 C 
ATOM     12  O   UNL     1      -2.153   6.252  -3.792  0.00  0.00    -0.270 OA
ATOM     13  H   UNL     1       1.625   1.512  -8.059  0.00  0.00    -0.086 HD
ATOM     14  H   UNL     1       0.876   2.054  -9.421  0.00  0.00    -0.086 HD
ENDROOT
BRANCH  11  15
ATOM     15  C   UNL     1      -2.497   6.420  -6.096  0.00  0.00    +0.037 A 
ATOM     16  C   UNL     1      -2.888   5.705  -7.242  0.00  0.00    +0.013 A 
ATOM     17  C   UNL     1      -3.241   6.353  -8.381  0.00  0.00    +0.009 A 
ATOM     18  C   UNL     1      -3.218   7.760  -8.427  0.00  0.00    -0.018 A 
ATOM     19  C   UNL     1      -3.579   8.453  -9.594  0.00  0.00    +0.008 A 
ATOM     20  C   UNL     1      -3.547   9.814  -9.608  0.00  0.00    +0.001 A 
ATOM     21  C   UNL     1      -3.161  10.534  -8.479  0.00  0.00    +0.001 A 
ATOM     22  C   UNL     1      -2.805   9.898  -7.330  0.00  0.00    +0.008 A 
ATOM     23  C   UNL     1      -2.826   8.492  -7.278  0.00  0.00    -0.017 A 
ATOM     24  C   UNL     1      -2.470   7.805  -6.108  0.00  0.00    +0.021 A 
ENDBRANCH  11  15
BRANCH   1  26
ATOM     25  N   UNL     1       0.793   0.506  -3.628  0.00  0.00    -0.309 N 
ATOM     26  C   UNL     1      -0.323   1.230  -3.849  0.00  0.00    +0.219 C 
ATOM     27  O   UNL     1      -1.414   0.728  -3.679  0.00  0.00    -0.275 OA
ATOM     28  H   UNL     1       1.666   0.907  -3.763  0.00  0.00    +0.149 HD
BRANCH  25  29
ATOM     29  C   UNL     1       0.688  -0.885  -3.182  0.00  0.00    +0.100 C 
ATOM     30  C   UNL     1       0.523  -0.922  -1.661  0.00  0.00    +0.033 C 
BRANCH  29  33
ATOM     31  C   UNL     1       3.786   0.055  -3.721  0.00  0.00    +0.039 C 
ATOM     32  C   UNL     1       3.372  -1.319  -3.189  0.00  0.00    +0.154 C 
ATOM     33  C   UNL     1       1.937  -1.633  -3.571  0.00  0.00    -0.001 C 
ATOM     34  C   UNL     1       2.038  -2.726  -4.330  0.00  0.00    +0.063 C 
ATOM     35  N   UNL     1       3.329  -3.106  -4.455  0.00  0.00    -0.159 NA
ATOM     36  N   UNL     1       4.137  -2.387  -3.854  0.00  0.00    -0.180 NA
ATOM     37  C   UNL     1       0.871  -3.439  -4.964  0.00  0.00    +0.067 C 
ENDBRANCH  29  33
ENDBRANCH  25  29
ENDBRANCH   1  26
TORSDOF 4
