REMARK  Name = ZINC66175748
REMARK  11 active torsions:
REMARK  status: ('A' for Active; 'I' for Inactive)
REMARK    1  A    between atoms: C_1  and  C_2
REMARK    2  A    between atoms: C_2  and  C_4
REMARK    3  A    between atoms: C_2  and  N_13
REMARK    4  A    between atoms: C_7  and  O_11
REMARK    5  A    between atoms: O_11  and  C_12
REMARK    6  A    between atoms: N_16  and  C_17
REMARK    7  A    between atoms: N_16  and  C_26
REMARK    8  A    between atoms: C_17  and  C_18
REMARK    9  A    between atoms: C_21  and  C_24
REMARK   10  A    between atoms: C_26  and  C_27
REMARK   11  A    between atoms: C_26  and  C_28
REMARK                            x       y       z     vdW  Elec       q    Type
REMARK                         _______ _______ _______ _____ _____    ______ ____
ROOT
ATOM      1  N   UNL     1       0.741  -0.368  -1.210  0.00  0.00    -0.293 N 
ATOM      2  C   UNL     1       0.036  -0.540  -2.346  0.00  0.00    +0.303 C 
ATOM      3  O   UNL     1      -1.163  -0.340  -2.354  0.00  0.00    -0.253 OA
ATOM      4  N   UNL     1       0.661  -0.934  -3.474  0.00  0.00    -0.279 N 
ATOM      5  H   UNL     1       1.683  -0.598  -1.184  0.00  0.00    +0.151 HD
ENDROOT
BRANCH   4   6
ATOM      6  C   UNL     1       2.084  -1.280  -3.439  0.00  0.00    +0.072 C 
ATOM      7  C   UNL     1       2.899  -0.049  -3.038  0.00  0.00    +0.028 C 
ATOM      8  C   UNL     1       2.313  -2.398  -2.420  0.00  0.00    +0.028 C 
ENDBRANCH   4   6
BRANCH   1  10
ATOM      9  C   UNL     1       0.084   1.695  -0.073  0.00  0.00    +0.033 C 
ATOM     10  C   UNL     1       0.084   0.166  -0.015  0.00  0.00    +0.102 C 
BRANCH  10  11
ATOM     11  C   UNL     1       0.829  -0.290   1.214  0.00  0.00    -0.024 A 
ATOM     12  C   UNL     1       2.211  -0.318   1.212  0.00  0.00    +0.009 A 
ATOM     13  C   UNL     1       2.897  -0.736   2.336  0.00  0.00    +0.049 A 
ATOM     14  C   UNL     1       2.198  -1.127   3.468  0.00  0.00    +0.155 A 
ATOM     15  C   UNL     1       0.809  -1.097   3.469  0.00  0.00    +0.165 A 
ATOM     16  C   UNL     1       0.128  -0.673   2.342  0.00  0.00    +0.047 A 
ATOM     17  F   UNL     1       0.125  -1.477   4.570  0.00  0.00    -0.202 F 
BRANCH  14  18
ATOM     18  O   UNL     1       2.871  -1.539   4.576  0.00  0.00    -0.492 OA
ATOM     19  C   UNL     1       4.298  -1.544   4.503  0.00  0.00    +0.277 C 
ENDBRANCH  14  18
ENDBRANCH  10  11
ENDBRANCH   1  10
BRANCH   4  20
ATOM     20  C   UNL     1      -0.083  -1.017  -4.733  0.00  0.00    +0.144 C 
BRANCH  20  21
ATOM     21  C   UNL     1       0.099   0.263  -5.508  0.00  0.00    -0.030 A 
ATOM     22  C   UNL     1      -0.716   1.349  -5.244  0.00  0.00    +0.006 A 
ATOM     23  C   UNL     1      -0.556   2.524  -5.950  0.00  0.00    +0.019 A 
ATOM     24  C   UNL     1       0.432   2.614  -6.933  0.00  0.00    +0.052 A 
ATOM     25  C   UNL     1       1.252   1.514  -7.193  0.00  0.00    +0.019 A 
ATOM     26  C   UNL     1       1.083   0.347  -6.477  0.00  0.00    +0.006 A 
BRANCH  24  27
ATOM     27  C   UNL     1       0.605   3.830  -7.670  0.00  0.00    +0.099 C 
ATOM     28  N   UNL     1       0.741   4.794  -8.254  0.00  0.00    -0.191 NA
ENDBRANCH  24  27
ENDBRANCH  20  21
ENDBRANCH   4  20
TORSDOF 7
