REMARK  Name = ZINC39675430
REMARK  11 active torsions:
REMARK  status: ('A' for Active; 'I' for Inactive)
REMARK    1  A    between atoms: C_1  and  C_2
REMARK    2  A    between atoms: C_4  and  C_11
REMARK    3  A    between atoms: C_5  and  C_7
REMARK    4  A    between atoms: C_15  and  C_24
REMARK    5  A    between atoms: N_26  and  C_27
REMARK    6  A    between atoms: C_27  and  C_29
REMARK    7  A    between atoms: C_27  and  C_30
REMARK    8  A    between atoms: C_30  and  C_31
REMARK    9  A    between atoms: C_31  and  C_32
REMARK   10  A    between atoms: C_35  and  O_38
REMARK   11  A    between atoms: O_38  and  C_39
REMARK                            x       y       z     vdW  Elec       q    Type
REMARK                         _______ _______ _______ _____ _____    ______ ____
ROOT
ATOM      1  C   UNL     1      -1.363  -3.413  -0.013  0.00  0.00    +0.250 C 
ATOM      2  O   UNL     1      -0.805  -4.489  -0.120  0.00  0.00    -0.270 OA
ATOM      3  N   UNL     1      -2.705  -3.357   0.096  0.00  0.00    -0.296 N 
ATOM      4  C   UNL     1      -3.565  -2.151   0.117  0.00  0.00    +0.121 C 
ATOM      5  C   UNL     1      -4.807  -2.543  -0.714  0.00  0.00    +0.100 C 
ATOM      6  C   UNL     1      -4.861  -4.078  -0.638  0.00  0.00    -0.004 C 
ATOM      7  C   UNL     1      -3.654  -4.489   0.217  0.00  0.00    +0.115 C 
ATOM      8  C   UNL     1      -4.739  -4.681  -2.035  0.00  0.00    -0.010 C 
ATOM      9  C   UNL     1      -4.853  -6.205  -1.940  0.00  0.00    -0.082 C 
ATOM     10  N   UNL     1      -6.144  -6.565  -1.340  0.00  0.00    +0.379 N 
ATOM     11  C   UNL     1      -6.215  -6.060   0.036  0.00  0.00    -0.082 C 
ATOM     12  C   UNL     1      -6.159  -4.530   0.025  0.00  0.00    -0.010 C 
ATOM     13  H   UNL     1      -6.890  -6.160  -1.885  0.00  0.00    -0.086 HD
ATOM     14  H   UNL     1      -6.242  -7.569  -1.335  0.00  0.00    -0.086 HD
ENDROOT
BRANCH   1  18
ATOM     15  C   UNL     1       0.159   1.389   0.795  0.00  0.00    +0.086 C 
ATOM     16  C   UNL     1       0.083  -0.052   0.362  0.00  0.00    +0.103 A 
ATOM     17  C   UNL     1      -0.942  -0.884   0.604  0.00  0.00    +0.058 A 
ATOM     18  C   UNL     1      -0.570  -2.170  -0.004  0.00  0.00    +0.087 A 
ATOM     19  C   UNL     1       0.661  -1.973  -0.556  0.00  0.00    +0.220 A 
ATOM     20  O   UNL     1       1.027  -0.708  -0.332  0.00  0.00    -0.455 OA
BRANCH  19  21
ATOM     21  C   UNL     1       1.470  -3.006  -1.300  0.00  0.00    +0.451 C 
ATOM     22  F   UNL     1       1.152  -2.955  -2.661  0.00  0.00    -0.163 F 
ATOM     23  F   UNL     1       2.833  -2.742  -1.128  0.00  0.00    -0.163 F 
ATOM     24  F   UNL     1       1.174  -4.278  -0.799  0.00  0.00    -0.163 F 
ENDBRANCH  19  21
ENDBRANCH   1  18
BRANCH   5  25
ATOM     25  C   UNL     1      -6.052  -1.942  -0.113  0.00  0.00    +0.218 C 
ATOM     26  O   UNL     1      -6.083  -1.666   1.067  0.00  0.00    -0.275 OA
ATOM     27  N   UNL     1      -7.130  -1.712  -0.888  0.00  0.00    -0.312 N 
ATOM     28  H   UNL     1      -7.106  -1.932  -1.832  0.00  0.00    +0.149 HD
BRANCH  27  29
ATOM     29  C   UNL     1      -8.340  -1.127  -0.304  0.00  0.00    +0.070 C 
ATOM     30  C   UNL     1      -8.211   0.397  -0.283  0.00  0.00    +0.028 C 
BRANCH  29  31
ATOM     31  C   UNL     1      -9.555  -1.525  -1.144  0.00  0.00    +0.026 C 
BRANCH  31  32
ATOM     32  C   UNL     1      -9.758  -3.039  -1.063  0.00  0.00    +0.037 C 
BRANCH  32  33
ATOM     33  C   UNL     1     -10.955  -3.431  -1.890  0.00  0.00    -0.047 A 
ATOM     34  C   UNL     1     -12.212  -3.459  -1.315  0.00  0.00    +0.007 A 
ATOM     35  C   UNL     1     -13.311  -3.819  -2.071  0.00  0.00    +0.046 A 
ATOM     36  C   UNL     1     -13.152  -4.151  -3.409  0.00  0.00    +0.120 A 
ATOM     37  C   UNL     1     -11.890  -4.122  -3.983  0.00  0.00    +0.046 A 
ATOM     38  C   UNL     1     -10.795  -3.756  -3.224  0.00  0.00    +0.007 A 
BRANCH  36  39
ATOM     39  O   UNL     1     -14.232  -4.505  -4.154  0.00  0.00    -0.495 OA
ATOM     40  C   UNL     1     -13.994  -4.835  -5.524  0.00  0.00    +0.277 C 
ENDBRANCH  36  39
ENDBRANCH  32  33
ENDBRANCH  31  32
ENDBRANCH  29  31
ENDBRANCH  27  29
ENDBRANCH   5  25
TORSDOF 8
