REMARK  Name = ZINC62777797
REMARK  5 active torsions:
REMARK  status: ('A' for Active; 'I' for Inactive)
REMARK    1  A    between atoms: C_1  and  C_2
REMARK    2  A    between atoms: C_2  and  C_3
REMARK    3  A    between atoms: C_4  and  C_17
REMARK    4  A    between atoms: N_6  and  C_9
REMARK    5  A    between atoms: C_7  and  N_8
REMARK                            x       y       z     vdW  Elec       q    Type
REMARK                         _______ _______ _______ _____ _____    ______ ____
ROOT
ATOM      1  C   UNL     1       0.731  -0.503   1.223  0.00  0.00    +0.017 A 
ATOM      2  C   UNL     1       2.112  -0.756   1.319  0.00  0.00    +0.072 A 
ATOM      3  N   UNL     1       2.368  -1.178   2.538  0.00  0.00    -0.295 N 
ATOM      4  N   UNL     1       1.165  -1.208   3.256  0.00  0.00    -0.268 N 
ATOM      5  C   UNL     1       0.173  -0.784   2.431  0.00  0.00    +0.116 A 
ATOM      6  H   UNL     1       3.240  -1.426   2.881  0.00  0.00    +0.187 HD
ENDROOT
BRANCH   4   7
ATOM      7  C   UNL     1       1.007  -1.619   4.653  0.00  0.00    +0.129 C 
ATOM      8  C   UNL     1       1.878  -0.732   5.557  0.00  0.00    +0.051 C 
ATOM      9  C   UNL     1       1.970  -1.350   6.973  0.00  0.00    +0.168 C 
ATOM     10  S   UNL     1       1.759  -3.147   6.643  0.00  0.00    -0.029 S 
ATOM     11  O   UNL     1       2.988  -3.812   6.899  0.00  0.00    -0.174 OA
ATOM     12  O   UNL     1       0.573  -3.599   7.284  0.00  0.00    -0.174 OA
ATOM     13  C   UNL     1       1.475  -3.092   4.824  0.00  0.00    +0.192 C 
ENDBRANCH   4   7
BRANCH   2  14
ATOM     14  C   UNL     1       3.107  -0.578   0.231  0.00  0.00    +0.037 A 
ATOM     15  C   UNL     1       4.091  -1.459  -0.113  0.00  0.00    +0.114 A 
ATOM     16  N   UNL     1       4.774  -0.924  -1.146  0.00  0.00    -0.284 N 
ATOM     17  H   UNL     1       5.530  -1.330  -1.598  0.00  0.00    +0.188 HD
ATOM     18  N   UNL     1       4.203   0.317  -1.452  0.00  0.00    -0.182 NA
ATOM     19  C   UNL     1       3.204   0.527  -0.636  0.00  0.00    +0.144 A 
ENDBRANCH   2  14
BRANCH   5  20
ATOM     20  N   UNL     1      -1.174  -0.663   2.761  0.00  0.00    -0.343 N 
ATOM     21  H   UNL     1      -1.810  -0.352   2.098  0.00  0.00    +0.144 HD
ATOM     22  H   UNL     1      -1.477  -0.889   3.655  0.00  0.00    +0.144 HD
ENDBRANCH   5  20
BRANCH   1  24
ATOM     23  C   UNL     1      -0.019   1.526   0.010  0.00  0.00    +0.009 C 
ATOM     24  C   UNL     1       0.002  -0.004   0.002  0.00  0.00    +0.037 C 
ENDBRANCH   1  24
TORSDOF 4
