REMARK  Name = ZINC14459985
REMARK  7 active torsions:
REMARK  status: ('A' for Active; 'I' for Inactive)
REMARK    1  A    between atoms: C_1  and  O_2
REMARK    2  A    between atoms: O_2  and  C_3
REMARK    3  A    between atoms: C_7  and  C_10
REMARK    4  A    between atoms: C_8  and  O_9
REMARK    5  A    between atoms: C_23  and  O_26
REMARK    6  A    between atoms: O_26  and  C_27
REMARK    7  A    between atoms: C_27  and  C_28
REMARK                            x       y       z     vdW  Elec       q    Type
REMARK                         _______ _______ _______ _____ _____    ______ ____
ROOT
ATOM      1  C   UNL     1       2.396   5.295  -0.047  0.00  0.00    +0.109 C 
ATOM      2  C   UNL     1       1.226   5.773   0.789  0.00  0.00    +0.029 C 
ATOM      3  C   UNL     1       0.921   7.275   0.805  0.00  0.00    +0.033 C 
ATOM      4  C   UNL     1      -0.592   7.277   1.036  0.00  0.00    -0.030 C 
ATOM      5  C   UNL     1      -1.110   6.145   0.602  0.00  0.00    -0.023 C 
ATOM      6  C   UNL     1      -0.037   5.323  -0.010  0.00  0.00    +0.049 C 
ATOM      7  C   UNL     1      -0.052   3.845   0.011  0.00  0.00    -0.016 A 
ATOM      8  C   UNL     1      -1.234   3.131   0.024  0.00  0.00    +0.006 A 
ATOM      9  C   UNL     1      -1.221   1.749   0.017  0.00  0.00    +0.004 A 
ATOM     10  C   UNL     1      -0.013   1.076   0.008  0.00  0.00    +0.047 A 
ATOM     11  C   UNL     1       1.175   1.781   0.000  0.00  0.00    +0.142 A 
ATOM     12  C   UNL     1       1.175   3.181   0.008  0.00  0.00    +0.074 A 
ATOM     13  N   UNL     1       2.413   3.826   0.034  0.00  0.00    -0.334 N 
ATOM     14  H   UNL     1       2.967   3.514   0.818  0.00  0.00    +0.147 HD
ENDROOT
BRANCH   1  19
ATOM     15  C   UNL     1       2.459   7.393  -3.197  0.00  0.00    +0.162 A 
ATOM     16  C   UNL     1       1.882   6.526  -4.112  0.00  0.00    +0.049 A 
ATOM     17  C   UNL     1       1.476   5.267  -3.709  0.00  0.00    +0.004 A 
ATOM     18  C   UNL     1       1.643   4.871  -2.396  0.00  0.00    +0.009 A 
ATOM     19  C   UNL     1       2.216   5.731  -1.478  0.00  0.00    +0.018 A 
ATOM     20  C   UNL     1       2.622   6.995  -1.873  0.00  0.00    +0.163 A 
BRANCH  15  22
ATOM     21  C   UNL     1       2.655   8.973  -4.963  0.00  0.00    +0.277 C 
ATOM     22  O   UNL     1       2.859   8.631  -3.591  0.00  0.00    -0.491 OA
ENDBRANCH  15  22
BRANCH  20  23
ATOM     23  O   UNL     1       3.182   7.845  -0.971  0.00  0.00    -0.503 OA
ATOM     24  H   UNL     1       4.144   7.772  -0.907  0.00  0.00    +0.292 HD
ENDBRANCH  20  23
ENDBRANCH   1  19
BRANCH  11  25
ATOM     25  O   UNL     1       2.357   1.108  -0.014  0.00  0.00    -0.486 OA
BRANCH  25  26
ATOM     26  C   UNL     1       2.290  -0.320  -0.020  0.00  0.00    +0.264 C 
BRANCH  26  27
ATOM     27  C   UNL     1       3.686  -0.888  -0.035  0.00  0.00    -0.010 A 
ATOM     28  C   UNL     1       4.313  -1.148  -1.240  0.00  0.00    +0.007 A 
ATOM     29  C   UNL     1       5.595  -1.665  -1.254  0.00  0.00    +0.000 A 
ATOM     30  C   UNL     1       6.246  -1.930  -0.064  0.00  0.00    +0.000 A 
ATOM     31  C   UNL     1       5.617  -1.675   1.140  0.00  0.00    +0.000 A 
ATOM     32  C   UNL     1       4.337  -1.154   1.154  0.00  0.00    +0.007 A 
ENDBRANCH  26  27
ENDBRANCH  25  26
ENDBRANCH  11  25
TORSDOF 6
