REMARK  Name = ZINC20530856
REMARK  2 active torsions:
REMARK  status: ('A' for Active; 'I' for Inactive)
REMARK    1  A    between atoms: C_16  and  N_21
REMARK    2  A    between atoms: C_17  and  N_18
REMARK                            x       y       z     vdW  Elec       q    Type
REMARK                         _______ _______ _______ _____ _____    ______ ____
ROOT
ATOM      1  C   UNL     1       0.488   0.534   0.375  0.00  0.00    +0.000 A 
ATOM      2  C   UNL     1      -0.809   0.986   0.510  0.00  0.00    +0.002 A 
ATOM      3  C   UNL     1      -1.117   2.337   0.531  0.00  0.00    +0.023 A 
ATOM      4  C   UNL     1      -0.057   3.236   0.399  0.00  0.00    +0.038 A 
ATOM      5  C   UNL     1       1.253   2.764   0.258  0.00  0.00    -0.001 A 
ATOM      6  C   UNL     1       1.553   1.419   0.242  0.00  0.00    +0.007 A 
ATOM      7  C   UNL     1       2.126   3.975   0.145  0.00  0.00    +0.156 C 
ATOM      8  C   UNL     1       3.107   4.032   1.287  0.00  0.00    +0.059 C 
ATOM      9  C   UNL     1       4.404   3.732   1.078  0.00  0.00    +0.115 C 
ATOM     10  C   UNL     1       5.399   3.777   2.213  0.00  0.00    +0.075 C 
ATOM     11  C   UNL     1       4.975   4.842   3.227  0.00  0.00    +0.016 C 
ATOM     12  C   UNL     1       3.571   4.499   3.736  0.00  0.00    +0.080 C 
ATOM     13  C   UNL     1       2.637   4.403   2.560  0.00  0.00    +0.164 C 
ATOM     14  O   UNL     1       1.458   4.651   2.712  0.00  0.00    -0.292 OA
ATOM     15  O   UNL     1       4.847   3.382  -0.143  0.00  0.00    -0.444 OA
ATOM     16  C   UNL     1       4.135   3.713  -1.238  0.00  0.00    +0.212 C 
ATOM     17  C   UNL     1       2.845   4.002  -1.171  0.00  0.00    +0.184 C 
ATOM     18  C   UNL     1       1.162   5.139   0.237  0.00  0.00    +0.239 C 
ATOM     19  O   UNL     1       1.448   6.317   0.190  0.00  0.00    -0.274 OA
ATOM     20  N   UNL     1      -0.075   4.619   0.382  0.00  0.00    -0.284 N 
ATOM     21  H   UNL     1      -1.028   5.159   0.480  0.00  0.00    +0.155 HD
ENDROOT
BRANCH  17  22
ATOM     22  N   UNL     1       2.106   4.354  -2.405  0.00  0.00    +0.059 N 
ATOM     23  O   UNL     1       2.657   4.275  -3.489  0.00  0.00    -0.126 OA
ATOM     24  O   UNL     1       0.948   4.724  -2.337  0.00  0.00    -0.126 OA
ENDBRANCH  17  22
BRANCH  16  25
ATOM     25  N   UNL     1       4.773   3.751  -2.472  0.00  0.00    -0.328 N 
ATOM     26  H   UNL     1       4.207   4.018  -3.376  0.00  0.00    +0.145 HD
ATOM     27  H   UNL     1       5.845   3.513  -2.545  0.00  0.00    +0.145 HD
ENDBRANCH  16  25
TORSDOF 2
