REMARK  Name = ZINC08947713
REMARK  10 active torsions:
REMARK  status: ('A' for Active; 'I' for Inactive)
REMARK    1  A    between atoms: C_1  and  C_2
REMARK    2  A    between atoms: C_5  and  C_14
REMARK    3  A    between atoms: C_12  and  C_13
REMARK    4  A    between atoms: C_14  and  N_15
REMARK    5  A    between atoms: C_18  and  C_22
REMARK    6  A    between atoms: C_18  and  C_23
REMARK    7  A    between atoms: C_26  and  C_29
REMARK    8  A    between atoms: C_29  and  C_30
REMARK    9  A    between atoms: C_29  and  C_31
REMARK   10  A    between atoms: C_29  and  C_32
REMARK                            x       y       z     vdW  Elec       q    Type
REMARK                         _______ _______ _______ _____ _____    ______ ____
ROOT
ATOM      1  N   UNL     1       2.211  -0.899  -1.358  0.00  0.00    -0.220 N 
ATOM      2  C   UNL     1       0.950  -1.126  -1.778  0.00  0.00    +0.251 C 
ATOM      3  O   UNL     1      -0.072  -0.962  -1.147  0.00  0.00    -0.272 OA
ATOM      4  C   UNL     1       1.077  -1.627  -3.203  0.00  0.00    +0.135 C 
ATOM      5  N   UNL     1       2.531  -1.631  -3.440  0.00  0.00    -0.281 N 
ATOM      6  C   UNL     1       3.107  -1.191  -2.307  0.00  0.00    +0.310 C 
ATOM      7  O   UNL     1       4.308  -1.071  -2.162  0.00  0.00    -0.252 OA
ATOM      8  C   UNL     1       0.508  -3.042  -3.324  0.00  0.00    +0.047 C 
ATOM      9  H   UNL     1       2.985  -1.899  -4.255  0.00  0.00    +0.152 HD
ENDROOT
BRANCH   4  10
ATOM     10  C   UNL     1       0.386  -0.692  -4.161  0.00  0.00    -0.015 A 
ATOM     11  C   UNL     1      -0.767  -0.034  -3.775  0.00  0.00    +0.006 A 
ATOM     12  C   UNL     1      -1.398   0.827  -4.653  0.00  0.00    +0.004 A 
ATOM     13  C   UNL     1      -0.882   1.023  -5.920  0.00  0.00    -0.042 A 
ATOM     14  C   UNL     1       0.268   0.361  -6.308  0.00  0.00    +0.004 A 
ATOM     15  C   UNL     1       0.902  -0.496  -5.429  0.00  0.00    +0.006 A 
BRANCH  13  16
ATOM     16  C   UNL     1      -1.574   1.957  -6.879  0.00  0.00    -0.013 C 
ATOM     17  C   UNL     1      -1.997   1.184  -8.130  0.00  0.00    +0.015 C 
ATOM     18  C   UNL     1      -2.811   2.555  -6.207  0.00  0.00    +0.015 C 
ATOM     19  C   UNL     1      -0.616   3.083  -7.276  0.00  0.00    +0.015 C 
ENDBRANCH  13  16
ENDBRANCH   4  10
BRANCH   1  20
ATOM     20  C   UNL     1       2.557  -0.400  -0.025  0.00  0.00    +0.154 C 
BRANCH  20  25
ATOM     21  C   UNL     1       3.308   1.242   4.891  0.00  0.00    +0.044 C 
ATOM     22  C   UNL     1       3.064   1.945   3.580  0.00  0.00    -0.047 A 
ATOM     23  C   UNL     1       2.906   1.212   2.437  0.00  0.00    +0.015 A 
ATOM     24  C   UNL     1       2.673   1.863   1.223  0.00  0.00    +0.023 A 
ATOM     25  C   UNL     1       2.494   1.106  -0.020  0.00  0.00    -0.012 A 
ATOM     26  C   UNL     1       2.270   1.798  -1.165  0.00  0.00    +0.098 A 
ATOM     27  C   UNL     1       2.216   3.208  -1.134  0.00  0.00    +0.338 A 
ATOM     28  O   UNL     1       2.014   3.817  -2.169  0.00  0.00    -0.245 OA
ATOM     29  O   UNL     1       2.381   3.895   0.007  0.00  0.00    -0.422 OA
ATOM     30  C   UNL     1       2.607   3.267   1.181  0.00  0.00    +0.140 A 
ATOM     31  C   UNL     1       2.776   3.992   2.353  0.00  0.00    +0.050 A 
ATOM     32  C   UNL     1       3.006   3.330   3.542  0.00  0.00    -0.044 A 
ATOM     33  C   UNL     1       3.188   4.120   4.812  0.00  0.00    +0.044 C 
ENDBRANCH  20  25
ENDBRANCH   1  20
TORSDOF 4
