REMARK  Name = ZINC66367165
REMARK  9 active torsions:
REMARK  status: ('A' for Active; 'I' for Inactive)
REMARK    1  A    between atoms: C_1  and  C_2
REMARK    2  A    between atoms: C_2  and  C_3
REMARK    3  A    between atoms: C_3  and  C_5
REMARK    4  A    between atoms: C_3  and  N_8
REMARK    5  A    between atoms: C_5  and  C_6
REMARK    6  A    between atoms: C_5  and  C_7
REMARK    7  A    between atoms: N_11  and  C_12
REMARK    8  A    between atoms: C_12  and  C_14
REMARK    9  A    between atoms: C_12  and  C_15
REMARK                            x       y       z     vdW  Elec       q    Type
REMARK                         _______ _______ _______ _____ _____    ______ ____
ROOT
ATOM      1  N   UNL     1      -2.105  -0.148  -1.230  0.00  0.00    -0.296 N 
ATOM      2  C   UNL     1      -2.690   1.062  -1.334  0.00  0.00    +0.300 C 
ATOM      3  O   UNL     1      -2.659   1.834  -0.395  0.00  0.00    -0.253 OA
ATOM      4  N   UNL     1      -3.308   1.416  -2.478  0.00  0.00    -0.293 N 
ATOM      5  H   UNL     1      -2.130  -0.764  -1.980  0.00  0.00    +0.151 HD
ATOM      6  H   UNL     1      -3.333   0.800  -3.227  0.00  0.00    +0.151 HD
ENDROOT
BRANCH   4   7
ATOM      7  C   UNL     1      -3.943   2.732  -2.590  0.00  0.00    +0.102 C 
ATOM      8  C   UNL     1      -5.361   2.664  -2.017  0.00  0.00    +0.033 C 
BRANCH   7   9
ATOM      9  C   UNL     1      -4.007   3.137  -4.040  0.00  0.00    -0.024 A 
ATOM     10  C   UNL     1      -4.321   2.199  -5.005  0.00  0.00    +0.009 A 
ATOM     11  C   UNL     1      -4.379   2.567  -6.336  0.00  0.00    +0.050 A 
ATOM     12  C   UNL     1      -4.121   3.878  -6.707  0.00  0.00    +0.162 A 
ATOM     13  C   UNL     1      -3.807   4.822  -5.736  0.00  0.00    +0.162 A 
ATOM     14  C   UNL     1      -3.755   4.447  -4.401  0.00  0.00    +0.055 A 
ATOM     15  O   UNL     1      -3.559   6.116  -6.076  0.00  0.00    -0.485 OA
ATOM     16  C   UNL     1      -3.260   6.373  -7.453  0.00  0.00    +0.270 C 
ATOM     17  C   UNL     1      -4.284   5.622  -8.315  0.00  0.00    +0.270 C 
ATOM     18  O   UNL     1      -4.178   4.225  -8.022  0.00  0.00    -0.485 OA
ENDBRANCH   7   9
ENDBRANCH   4   7
BRANCH   1  19
ATOM     19  C   UNL     1      -1.433  -0.534   0.013  0.00  0.00    +0.077 C 
BRANCH  19  20
ATOM     20  C   UNL     1      -1.413  -2.059   0.130  0.00  0.00    +0.003 C 
ATOM     21  C   UNL     1      -0.711  -2.461   1.429  0.00  0.00    +0.009 C 
ATOM     22  C   UNL     1      -2.849  -2.589   0.141  0.00  0.00    +0.009 C 
ENDBRANCH  19  20
BRANCH  19  24
ATOM     23  C   UNL     1      -0.019   1.526   0.010  0.00  0.00    +0.006 C 
ATOM     24  C   UNL     1       0.002  -0.004   0.002  0.00  0.00    +0.019 C 
ENDBRANCH  19  24
ENDBRANCH   1  19
TORSDOF 5
