REMARK  Name = ZINC36585828
REMARK  20 active torsions:
REMARK  status: ('A' for Active; 'I' for Inactive)
REMARK    1  A    between atoms: C_1  and  C_2
REMARK    2  A    between atoms: C_2  and  C_3
REMARK    3  A    between atoms: C_2  and  C_4
REMARK    4  A    between atoms: C_2  and  C_5
REMARK    5  A    between atoms: C_5  and  C_6
REMARK    6  A    between atoms: C_6  and  C_7
REMARK    7  A    between atoms: C_6  and  C_8
REMARK    8  A    between atoms: C_6  and  N_9
REMARK    9  A    between atoms: C_10  and  C_12
REMARK   10  A    between atoms: C_12  and  C_14
REMARK   11  A    between atoms: C_12  and  N_23
REMARK   12  A    between atoms: C_15  and  O_22
REMARK   13  A    between atoms: C_17  and  O_21
REMARK   14  A    between atoms: C_19  and  O_20
REMARK   15  A    between atoms: N_23  and  C_36
REMARK   16  A    between atoms: C_24  and  C_26
REMARK   17  A    between atoms: C_28  and  N_33
REMARK   18  A    between atoms: C_36  and  C_37
REMARK   19  A    between atoms: C_36  and  C_38
REMARK   20  A    between atoms: C_36  and  C_39
REMARK                            x       y       z     vdW  Elec       q    Type
REMARK                         _______ _______ _______ _____ _____    ______ ____
ROOT
ATOM      1  C   UNL     1       7.203   0.120  -3.458  0.00  0.00    +0.200 C 
ENDROOT
BRANCH   1   2
ATOM      2  C   UNL     1       7.705   1.062  -4.521  0.00  0.00    +0.065 A 
ATOM      3  C   UNL     1       8.491   2.149  -4.170  0.00  0.00    +0.129 A 
ATOM      4  C   UNL     1       8.953   3.017  -5.148  0.00  0.00    +0.091 A 
ATOM      5  C   UNL     1       8.629   2.797  -6.478  0.00  0.00    +0.124 A 
ATOM      6  C   UNL     1       7.843   1.709  -6.830  0.00  0.00    +0.091 A 
ATOM      7  C   UNL     1       7.385   0.840  -5.852  0.00  0.00    +0.129 A 
BRANCH   7   8
ATOM      8  O   UNL     1       6.620  -0.229  -6.197  0.00  0.00    -0.506 OA
ATOM      9  H   UNL     1       5.670  -0.046  -6.205  0.00  0.00    +0.292 HD
ENDBRANCH   7   8
BRANCH   5  10
ATOM     10  O   UNL     1       9.080   3.647  -7.437  0.00  0.00    -0.507 OA
ATOM     11  H   UNL     1       9.937   3.400  -7.810  0.00  0.00    +0.292 HD
ENDBRANCH   5  10
BRANCH   3  12
ATOM     12  O   UNL     1       8.809   2.365  -2.866  0.00  0.00    -0.506 OA
ATOM     13  H   UNL     1       9.647   1.966  -2.594  0.00  0.00    +0.292 HD
ENDBRANCH   3  12
ENDBRANCH   1   2
BRANCH   1  15
ATOM     14  N   UNL     1       5.023   1.238  -3.117  0.00  0.00    -0.308 N 
ATOM     15  C   UNL     1       6.195   0.830  -2.591  0.00  0.00    +0.239 C 
ATOM     16  O   UNL     1       6.439   1.035  -1.421  0.00  0.00    -0.273 OA
ATOM     17  H   UNL     1       4.829   1.074  -4.053  0.00  0.00    +0.149 HD
BRANCH  14  18
ATOM     18  C   UNL     1       4.043   1.929  -2.275  0.00  0.00    +0.030 C 
ATOM     19  C   UNL     1       4.659   3.220  -1.731  0.00  0.00    +0.031 C 
ATOM     20  C   UNL     1       3.645   1.023  -1.109  0.00  0.00    +0.031 C 
BRANCH  18  21
ATOM     21  C   UNL     1       2.804   2.265  -3.107  0.00  0.00    +0.031 C 
BRANCH  21  23
ATOM     22  C   UNL     1       3.696   2.138  -5.437  0.00  0.00    +0.010 C 
ATOM     23  C   UNL     1       3.218   3.082  -4.332  0.00  0.00    -0.036 C 
ATOM     24  C   UNL     1       4.352   4.036  -3.950  0.00  0.00    +0.010 C 
ATOM     25  C   UNL     1       2.020   3.890  -4.835  0.00  0.00    +0.010 C 
ENDBRANCH  21  23
ENDBRANCH  18  21
ENDBRANCH  14  18
ENDBRANCH   1  15
BRANCH   1  26
ATOM     26  N   UNL     1       8.328  -0.328  -2.632  0.00  0.00    -0.277 N 
ATOM     27  C   UNL     1       9.550   0.212  -2.808  0.00  0.00    +0.252 C 
ATOM     28  O   UNL     1       9.751   0.973  -3.735  0.00  0.00    -0.270 OA
BRANCH  27  29
ATOM     29  C   UNL     1      10.644  -0.120  -1.876  0.00  0.00    +0.086 A 
ATOM     30  C   UNL     1      10.483  -1.143  -0.939  0.00  0.00    +0.049 A 
ATOM     31  C   UNL     1      11.508  -1.448  -0.071  0.00  0.00    +0.127 A 
ATOM     32  C   UNL     1      12.701  -0.744  -0.123  0.00  0.00    +0.036 A 
ATOM     33  C   UNL     1      12.874   0.270  -1.044  0.00  0.00    +0.054 A 
ATOM     34  C   UNL     1      11.854   0.586  -1.929  0.00  0.00    +0.191 A 
ATOM     35  O   UNL     1      12.024   1.578  -2.839  0.00  0.00    -0.287 OA
BRANCH  31  36
ATOM     36  N   UNL     1      11.336  -2.532   0.922  0.00  0.00    +0.056 N 
ATOM     37  O   UNL     1      10.267  -3.087   1.032  0.00  0.00    -0.126 OA
ATOM     38  O   UNL     1      12.263  -2.863   1.623  0.00  0.00    -0.126 OA
ENDBRANCH  31  36
ENDBRANCH  27  29
BRANCH  26  39
ATOM     39  C   UNL     1       8.123  -1.362  -1.615  0.00  0.00    +0.030 C 
ATOM     40  C   UNL     1       6.649  -1.771  -1.592  0.00  0.00    +0.031 C 
ATOM     41  C   UNL     1       8.986  -2.582  -1.947  0.00  0.00    +0.031 C 
ATOM     42  C   UNL     1       8.522  -0.815  -0.243  0.00  0.00    +0.031 C 
ENDBRANCH  26  39
ENDBRANCH   1  26
TORSDOF 12
