REMARK  Name = ZINC23871465
REMARK  10 active torsions:
REMARK  status: ('A' for Active; 'I' for Inactive)
REMARK    1  A    between atoms: C_1  and  C_2
REMARK    2  A    between atoms: C_2  and  C_4
REMARK    3  A    between atoms: C_2  and  N_12
REMARK    4  A    between atoms: C_13  and  C_15
REMARK    5  A    between atoms: C_15  and  S_16
REMARK    6  A    between atoms: S_16  and  C_17
REMARK    7  A    between atoms: C_20  and  C_23
REMARK    8  A    between atoms: N_21  and  N_22
REMARK    9  A    between atoms: C_26  and  O_29
REMARK   10  A    between atoms: O_29  and  C_30
REMARK                            x       y       z     vdW  Elec       q    Type
REMARK                         _______ _______ _______ _____ _____    ______ ____
ROOT
ATOM      1  C   UNL     1       4.368   9.464  -3.801  0.00  0.00    +0.209 A 
ATOM      2  N   UNL     1       3.214  10.019  -4.098  0.00  0.00    -0.121 NA
ATOM      3  N   UNL     1       3.366  10.873  -5.046  0.00  0.00    -0.127 NA
ATOM      4  C   UNL     1       4.624  10.911  -5.419  0.00  0.00    +0.182 A 
ATOM      5  N   UNL     1       5.305  10.009  -4.634  0.00  0.00    -0.224 N 
ENDROOT
BRANCH   4   6
ATOM      6  C   UNL     1       5.200  11.760  -6.483  0.00  0.00    +0.021 A 
ATOM      7  C   UNL     1       4.490  12.865  -6.958  0.00  0.00    +0.015 A 
ATOM      8  C   UNL     1       5.033  13.657  -7.946  0.00  0.00    +0.046 A 
ATOM      9  C   UNL     1       6.279  13.352  -8.477  0.00  0.00    +0.127 A 
ATOM     10  C   UNL     1       6.986  12.251  -8.011  0.00  0.00    +0.046 A 
ATOM     11  C   UNL     1       6.452  11.457  -7.019  0.00  0.00    +0.015 A 
BRANCH   9  12
ATOM     12  O   UNL     1       6.808  14.132  -9.456  0.00  0.00    -0.434 OA
BRANCH  12  13
ATOM     13  C   UNL     1       6.028  15.249  -9.888  0.00  0.00    +0.541 C 
ATOM     14  F   UNL     1       4.803  14.795 -10.390  0.00  0.00    -0.166 F 
ATOM     15  F   UNL     1       5.800  16.106  -8.806  0.00  0.00    -0.166 F 
ENDBRANCH  12  13
ENDBRANCH   9  12
ENDBRANCH   4   6
BRANCH   5  16
ATOM     16  N   UNL     1       6.639   9.720  -4.677  0.00  0.00    -0.295 N 
ATOM     17  H   UNL     1       7.290  10.233  -5.400  0.00  0.00    +0.163 HD
ATOM     18  H   UNL     1       7.062   8.973  -3.989  0.00  0.00    +0.163 HD
ENDBRANCH   5  16
BRANCH   1  19
ATOM     19  S   UNL     1       4.653   8.241  -2.567  0.00  0.00    -0.075 S 
BRANCH  19  20
ATOM     20  C   UNL     1       2.974   8.051  -1.918  0.00  0.00    +0.173 C 
BRANCH  20  22
ATOM     21  N   UNL     1       1.825   6.715  -0.182  0.00  0.00    -0.308 N 
ATOM     22  C   UNL     1       2.973   7.023  -0.817  0.00  0.00    +0.224 C 
ATOM     23  O   UNL     1       4.006   6.472  -0.501  0.00  0.00    -0.275 OA
ATOM     24  H   UNL     1       0.887   7.215  -0.469  0.00  0.00    +0.149 HD
BRANCH  21  26
ATOM     25  C   UNL     1       2.204   6.384   2.211  0.00  0.00    +0.033 C 
ATOM     26  C   UNL     1       1.824   5.715   0.888  0.00  0.00    +0.100 C 
BRANCH  26  27
ATOM     27  C   UNL     1       0.450   5.109   1.009  0.00  0.00    -0.026 A 
ATOM     28  C   UNL     1      -0.671   5.909   0.886  0.00  0.00    +0.007 A 
ATOM     29  C   UNL     1      -1.932   5.354   0.997  0.00  0.00    +0.022 A 
ATOM     30  C   UNL     1      -2.073   3.996   1.224  0.00  0.00    +0.059 A 
ATOM     31  C   UNL     1      -0.950   3.196   1.352  0.00  0.00    +0.060 A 
ATOM     32  C   UNL     1       0.311   3.754   1.241  0.00  0.00    +0.027 A 
ATOM     33 CL   UNL     1      -1.125   1.494   1.644  0.00  0.00    -0.082 Cl
ATOM     34 CL   UNL     1      -3.657   3.297   1.355  0.00  0.00    -0.082 Cl
ENDBRANCH  26  27
ENDBRANCH  21  26
ENDBRANCH  20  22
ENDBRANCH  19  20
ENDBRANCH   1  19
TORSDOF 9
