REMARK  Name = ZINC14276560
REMARK  11 active torsions:
REMARK  status: ('A' for Active; 'I' for Inactive)
REMARK    1  A    between atoms: C_1  and  C_2
REMARK    2  A    between atoms: C_2  and  C_3
REMARK    3  A    between atoms: C_2  and  C_4
REMARK    4  A    between atoms: C_2  and  C_5
REMARK    5  A    between atoms: C_12  and  N_17
REMARK    6  A    between atoms: C_13  and  C_14
REMARK    7  A    between atoms: N_17  and  C_18
REMARK    8  A    between atoms: C_18  and  N_20
REMARK    9  A    between atoms: C_21  and  C_23
REMARK   10  A    between atoms: C_28  and  O_29
REMARK   11  A    between atoms: O_29  and  C_30
REMARK                            x       y       z     vdW  Elec       q    Type
REMARK                         _______ _______ _______ _____ _____    ______ ____
ROOT
ATOM      1  C   UNL     1      -6.699  -0.868  -0.350  0.00  0.00    -0.000 C 
ATOM      2  C   UNL     1      -7.065   0.356   0.495  0.00  0.00    +0.009 C 
ATOM      3  C   UNL     1      -6.246   1.565   0.040  0.00  0.00    +0.037 C 
ATOM      4  C   UNL     1      -4.771   1.183   0.031  0.00  0.00    -0.023 A 
ATOM      5  C   UNL     1      -4.388  -0.112   0.022  0.00  0.00    -0.004 A 
ATOM      6  S   UNL     1      -2.618  -0.061   0.015  0.00  0.00    -0.077 S 
ATOM      7  C   UNL     1      -2.388   1.657   0.022  0.00  0.00    +0.084 A 
ATOM      8  C   UNL     1      -3.685   2.150   0.037  0.00  0.00    +0.068 A 
ATOM      9  C   UNL     1      -5.277  -1.317   0.019  0.00  0.00    +0.046 C 
ENDROOT
BRANCH   8  10
ATOM     10  C   UNL     1      -3.951   3.591   0.053  0.00  0.00    +0.244 C 
ATOM     11  O   UNL     1      -4.069   4.200  -0.994  0.00  0.00    -0.270 OA
ATOM     12  N   UNL     1      -4.064   4.242   1.228  0.00  0.00    -0.325 N 
ATOM     13  H   UNL     1      -3.969   3.757   2.062  0.00  0.00    +0.145 HD
ATOM     14  H   UNL     1      -4.239   5.196   1.238  0.00  0.00    +0.145 HD
ENDBRANCH   8  10
BRANCH   1  16
ATOM     15  C   UNL     1      -7.635  -2.359   1.423  0.00  0.00    +0.011 C 
ATOM     16  C   UNL     1      -7.685  -2.002  -0.064  0.00  0.00    -0.035 C 
ATOM     17  C   UNL     1      -9.100  -1.552  -0.433  0.00  0.00    +0.011 C 
ATOM     18  C   UNL     1      -7.307  -3.229  -0.896  0.00  0.00    +0.011 C 
ENDBRANCH   1  16
BRANCH   7  19
ATOM     19  N   UNL     1      -1.197   2.366   0.021  0.00  0.00    -0.291 N 
ATOM     20  H   UNL     1      -1.210   3.336   0.026  0.00  0.00    +0.154 HD
BRANCH  19  21
ATOM     21  C   UNL     1      -0.021   1.708   0.011  0.00  0.00    +0.141 C 
ATOM     22  S   UNL     1       0.002  -0.004   0.002  0.00  0.00    -0.018 S 
BRANCH  21  23
ATOM     23  N   UNL     1       1.137   2.397   0.004  0.00  0.00    -0.263 N 
ATOM     24  C   UNL     1       2.313   1.740  -0.011  0.00  0.00    +0.253 C 
ATOM     25  O   UNL     1       2.329   0.524  -0.017  0.00  0.00    -0.270 OA
ATOM     26  H   UNL     1       1.124   3.367   0.009  0.00  0.00    +0.157 HD
BRANCH  24  27
ATOM     27  C   UNL     1       3.580   2.494  -0.019  0.00  0.00    +0.081 A 
ATOM     28  C   UNL     1       3.565   3.892  -0.017  0.00  0.00    +0.036 A 
ATOM     29  C   UNL     1       4.753   4.592  -0.020  0.00  0.00    +0.043 A 
ATOM     30  C   UNL     1       5.963   3.915  -0.034  0.00  0.00    +0.043 A 
ATOM     31  C   UNL     1       5.992   2.534  -0.042  0.00  0.00    +0.085 A 
ATOM     32  C   UNL     1       4.805   1.814  -0.034  0.00  0.00    +0.150 A 
ATOM     33 CL   UNL     1       7.513   1.698  -0.061  0.00  0.00    -0.080 Cl
ATOM     34 CL   UNL     1       4.733   6.327  -0.011  0.00  0.00    -0.083 Cl
BRANCH  32  35
ATOM     35  O   UNL     1       4.831   0.457  -0.041  0.00  0.00    -0.493 OA
ATOM     36  C   UNL     1       4.831  -0.185  -1.317  0.00  0.00    +0.277 C 
ENDBRANCH  32  35
ENDBRANCH  24  27
ENDBRANCH  21  23
ENDBRANCH  19  21
ENDBRANCH   7  19
TORSDOF 7
