REMARK  Name = ZINC25524164
REMARK  7 active torsions:
REMARK  status: ('A' for Active; 'I' for Inactive)
REMARK    1  A    between atoms: C_6  and  N_26
REMARK    2  A    between atoms: C_7  and  C_11
REMARK    3  A    between atoms: N_13  and  N_14
REMARK    4  A    between atoms: C_15  and  C_17
REMARK    5  A    between atoms: C_21  and  N_23
REMARK    6  A    between atoms: N_26  and  S_27
REMARK    7  A    between atoms: S_27  and  C_30
REMARK                            x       y       z     vdW  Elec       q    Type
REMARK                         _______ _______ _______ _____ _____    ______ ____
ROOT
ATOM      1  C   UNL     1       0.612   6.277   0.776  0.00  0.00    +0.001 A 
ATOM      2  C   UNL     1       1.875   5.699   0.663  0.00  0.00    +0.001 A 
ATOM      3  C   UNL     1       2.019   4.357   0.489  0.00  0.00    +0.008 A 
ATOM      4  C   UNL     1       0.880   3.536   0.422  0.00  0.00    -0.016 A 
ATOM      5  C   UNL     1       0.998   2.148   0.243  0.00  0.00    +0.036 A 
ATOM      6  C   UNL     1      -0.123   1.370   0.180  0.00  0.00    +0.087 A 
ATOM      7  C   UNL     1      -1.407   1.948   0.288  0.00  0.00    +0.063 A 
ATOM      8  C   UNL     1      -1.549   3.313   0.471  0.00  0.00    +0.023 A 
ATOM      9  C   UNL     1      -0.406   4.124   0.537  0.00  0.00    -0.017 A 
ATOM     10  C   UNL     1      -0.514   5.516   0.716  0.00  0.00    +0.008 A 
ENDROOT
BRANCH   7  11
ATOM     11  C   UNL     1      -2.605   1.090   0.213  0.00  0.00    +0.262 C 
ATOM     12  O   UNL     1      -2.486  -0.110   0.057  0.00  0.00    -0.269 OA
ATOM     13  N   UNL     1      -3.833   1.637   0.316  0.00  0.00    -0.230 N 
ATOM     14  H   UNL     1      -3.942   2.723   0.456  0.00  0.00    +0.173 HD
BRANCH  13  15
ATOM     15  N   UNL     1      -4.971   0.823   0.243  0.00  0.00    -0.230 N 
ATOM     16  C   UNL     1      -6.198   1.370   0.346  0.00  0.00    +0.260 C 
ATOM     17  O   UNL     1      -6.318   2.569   0.502  0.00  0.00    -0.269 OA
ATOM     18  H   UNL     1      -4.862  -0.263   0.103  0.00  0.00    +0.173 HD
BRANCH  16  19
ATOM     19  C   UNL     1      -7.399   0.510   0.270  0.00  0.00    +0.040 A 
ATOM     20  C   UNL     1      -7.265  -0.867   0.086  0.00  0.00    +0.013 A 
ATOM     21  C   UNL     1      -8.389  -1.663   0.020  0.00  0.00    +0.003 A 
ATOM     22  C   UNL     1      -9.648  -1.099   0.126  0.00  0.00    +0.033 A 
ATOM     23  C   UNL     1      -9.788   0.266   0.304  0.00  0.00    +0.127 A 
ATOM     24  C   UNL     1      -8.672   1.073   0.376  0.00  0.00    +0.045 A 
BRANCH  23  25
ATOM     25  N   UNL     1     -11.139   0.861   0.416  0.00  0.00    +0.056 N 
ATOM     26  O   UNL     1     -11.263   2.063   0.573  0.00  0.00    -0.126 OA
ATOM     27  O   UNL     1     -12.125   0.150   0.353  0.00  0.00    -0.126 OA
ENDBRANCH  23  25
ENDBRANCH  16  19
ENDBRANCH  13  15
ENDBRANCH   7  11
BRANCH   6  28
ATOM     28  N   UNL     1       0.002  -0.004   0.002  0.00  0.00    -0.097 NA
BRANCH  28  29
ATOM     29  S   UNL     1       1.262  -0.819   0.703  0.00  0.00    +0.098 S 
ATOM     30  O   UNL     1       1.040  -2.200   0.454  0.00  0.00    -0.148 OA
ATOM     31  O   UNL     1       2.451  -0.153   0.299  0.00  0.00    -0.148 OA
BRANCH  29  32
ATOM     32  C   UNL     1       1.125  -0.592   2.445  0.00  0.00    +0.148 A 
ATOM     33  C   UNL     1       0.462  -1.348   3.354  0.00  0.00    +0.037 A 
ATOM     34  C   UNL     1       0.492  -0.976   4.685  0.00  0.00    +0.010 A 
ATOM     35  C   UNL     1       1.184   0.134   5.041  0.00  0.00    +0.047 A 
ATOM     36  S   UNL     1       1.829   0.688   3.471  0.00  0.00    -0.077 S 
ENDBRANCH  29  32
ENDBRANCH  28  29
ENDBRANCH   6  28
TORSDOF 7
