REMARK  Name = ZINC37125913
REMARK  7 active torsions:
REMARK  status: ('A' for Active; 'I' for Inactive)
REMARK    1  A    between atoms: C_1  and  C_2
REMARK    2  A    between atoms: C_5  and  N_11
REMARK    3  A    between atoms: C_6  and  C_10
REMARK    4  A    between atoms: C_7  and  O_8
REMARK    5  A    between atoms: O_8  and  C_9
REMARK    6  A    between atoms: N_11  and  C_12
REMARK    7  A    between atoms: C_21  and  O_22
REMARK                            x       y       z     vdW  Elec       q    Type
REMARK                         _______ _______ _______ _____ _____    ______ ____
ROOT
ATOM      1  N   UNL     1       0.059  -4.171  -0.026  0.00  0.00    -0.337 N 
ATOM      2  H   UNL     1       0.070  -4.663   0.810  0.00  0.00    +0.147 HD
ENDROOT
BRANCH   1   3
ATOM      3  C   UNL     1       0.063  -4.893  -1.300  0.00  0.00    +0.101 C 
ATOM      4  C   UNL     1       0.663  -6.303  -1.116  0.00  0.00    +0.032 C 
ATOM      5  C   UNL     1      -0.165  -7.147  -2.107  0.00  0.00    +0.041 C 
ATOM      6  C   UNL     1      -1.486  -6.420  -2.239  0.00  0.00    -0.001 A 
ATOM      7  C   UNL     1      -1.355  -5.123  -1.778  0.00  0.00    -0.021 A 
ATOM      8  C   UNL     1      -2.443  -4.266  -1.804  0.00  0.00    +0.006 A 
ATOM      9  C   UNL     1      -3.661  -4.699  -2.292  0.00  0.00    +0.004 A 
ATOM     10  C   UNL     1      -3.798  -5.993  -2.756  0.00  0.00    +0.046 A 
ATOM     11  C   UNL     1      -2.711  -6.859  -2.728  0.00  0.00    +0.120 A 
BRANCH  11  12
ATOM     12  O   UNL     1      -2.842  -8.132  -3.184  0.00  0.00    -0.506 OA
ATOM     13  H   UNL     1      -3.108  -8.768  -2.506  0.00  0.00    +0.292 HD
ENDBRANCH  11  12
ENDBRANCH   1   3
BRANCH   1  18
ATOM     14  C   UNL     1      -0.018   1.503   0.010  0.00  0.00    +0.047 C 
ATOM     15  C   UNL     1       0.002  -0.004   0.002  0.00  0.00    -0.008 A 
ATOM     16  C   UNL     1       0.006  -0.688  -1.199  0.00  0.00    +0.009 A 
ATOM     17  C   UNL     1       0.025  -2.069  -1.211  0.00  0.00    +0.024 A 
ATOM     18  C   UNL     1       0.041  -2.774  -0.014  0.00  0.00    +0.034 A 
ATOM     19  C   UNL     1       0.037  -2.089   1.193  0.00  0.00    +0.012 A 
ATOM     20  C   UNL     1       0.023  -0.703   1.200  0.00  0.00    +0.128 A 
ATOM     21  C   UNL     1       0.054  -2.851   2.493  0.00  0.00    +0.049 C 
BRANCH  20  22
ATOM     22  O   UNL     1       0.025  -0.030   2.381  0.00  0.00    -0.495 OA
ATOM     23  C   UNL     1      -1.248   0.274   2.956  0.00  0.00    +0.277 C 
ENDBRANCH  20  22
ENDBRANCH   1  18
TORSDOF 4
