REMARK  Name = ZINC40433423
REMARK  5 active torsions:
REMARK  status: ('A' for Active; 'I' for Inactive)
REMARK    1  A    between atoms: C_4  and  S_16
REMARK    2  A    between atoms: C_5  and  N_7
REMARK    3  A    between atoms: C_12  and  C_14
REMARK    4  A    between atoms: C_14  and  O_15
REMARK    5  A    between atoms: S_16  and  C_19
REMARK                            x       y       z     vdW  Elec       q    Type
REMARK                         _______ _______ _______ _____ _____    ______ ____
ROOT
ATOM      1  C   UNL     1       2.327   2.178  -0.010  0.00  0.00    +0.002 A 
ATOM      2  C   UNL     1       1.056   2.692   0.166  0.00  0.00    +0.002 A 
ATOM      3  C   UNL     1      -0.017   1.841   0.359  0.00  0.00    +0.029 A 
ATOM      4  C   UNL     1       0.179   0.473   0.376  0.00  0.00    +0.118 A 
ATOM      5  C   UNL     1       1.455  -0.046   0.199  0.00  0.00    +0.055 A 
ATOM      6  C   UNL     1       2.530   0.812   0.006  0.00  0.00    +0.025 A 
ENDROOT
BRANCH   5   7
ATOM      7  N   UNL     1       1.656  -1.428   0.215  0.00  0.00    -0.323 N 
ATOM      8  C   UNL     1       1.654  -2.170   1.483  0.00  0.00    +0.105 C 
ATOM      9  C   UNL     1       2.949  -2.983   1.581  0.00  0.00    +0.019 C 
ATOM     10  C   UNL     1       3.089  -3.864   0.337  0.00  0.00    +0.003 C 
ATOM     11  C   UNL     1       3.166  -2.981  -0.910  0.00  0.00    +0.025 C 
ATOM     12  C   UNL     1       1.868  -2.169  -1.037  0.00  0.00    +0.099 C 
BRANCH  12  13
ATOM     13  C   UNL     1       1.988  -1.184  -2.201  0.00  0.00    +0.178 C 
BRANCH  13  14
ATOM     14  O   UNL     1       3.132  -0.350  -2.004  0.00  0.00    -0.393 OA
ATOM     15  H   UNL     1       3.270   0.300  -2.707  0.00  0.00    +0.209 HD
ENDBRANCH  13  14
ENDBRANCH  12  13
ENDBRANCH   5   7
BRANCH   4  16
ATOM     16  S   UNL     1      -1.188  -0.611   0.622  0.00  0.00    +0.093 S 
ATOM     17  O   UNL     1      -0.675  -1.667   1.422  0.00  0.00    -0.161 OA
ATOM     18  O   UNL     1      -2.231   0.225   1.107  0.00  0.00    -0.161 OA
BRANCH  16  19
ATOM     19  C   UNL     1      -1.600  -1.225  -1.035  0.00  0.00    +0.526 C 
ATOM     20  F   UNL     1      -0.550  -2.015  -1.514  0.00  0.00    -0.150 F 
ATOM     21  F   UNL     1      -2.769  -1.992  -0.970  0.00  0.00    -0.150 F 
ATOM     22  F   UNL     1      -1.800  -0.142  -1.897  0.00  0.00    -0.150 F 
ENDBRANCH  16  19
ENDBRANCH   4  16
TORSDOF 5
