REMARK  Name = ZINC39920671
REMARK  6 active torsions:
REMARK  status: ('A' for Active; 'I' for Inactive)
REMARK    1  A    between atoms: C_1  and  C_2
REMARK    2  A    between atoms: C_2  and  C_4
REMARK    3  A    between atoms: C_2  and  O_25
REMARK    4  A    between atoms: N_6  and  N_7
REMARK    5  A    between atoms: C_8  and  C_20
REMARK    6  A    between atoms: O_25  and  C_26
REMARK                            x       y       z     vdW  Elec       q    Type
REMARK                         _______ _______ _______ _____ _____    ______ ____
ROOT
ATOM      1  N   UNL     1       1.192  -0.298   3.568  0.00  0.00    -0.188 N 
ATOM      2  C   UNL     1       0.912  -1.472   4.396  0.00  0.00    +0.247 C 
ATOM      3  N   UNL     1       1.242  -1.195   5.799  0.00  0.00    -0.318 N 
ATOM      4  C   UNL     1       2.425  -0.524   6.089  0.00  0.00    +0.041 A 
ATOM      5  C   UNL     1       3.100  -0.721   7.282  0.00  0.00    +0.025 A 
ATOM      6  C   UNL     1       4.266  -0.024   7.531  0.00  0.00    +0.017 A 
ATOM      7  C   UNL     1       4.766   0.871   6.596  0.00  0.00    +0.019 A 
ATOM      8  C   UNL     1       4.107   1.075   5.401  0.00  0.00    +0.030 A 
ATOM      9  C   UNL     1       2.933   0.374   5.135  0.00  0.00    +0.060 A 
ATOM     10  C   UNL     1       2.210   0.535   3.860  0.00  0.00    +0.267 C 
ATOM     11  O   UNL     1       2.526   1.415   3.082  0.00  0.00    -0.268 OA
ATOM     12 BR   UNL     1       6.361   1.818   6.963  0.00  0.00    -0.050 Br
ATOM     13  H   UNL     1       0.645  -1.475   6.510  0.00  0.00    +0.148 HD
ENDROOT
BRANCH   2  14
ATOM     14  C   UNL     1       1.741  -2.633   3.912  0.00  0.00    +0.145 A 
ATOM     15  C   UNL     1       2.197  -3.645   4.671  0.00  0.00    +0.048 A 
ATOM     16  C   UNL     1       2.923  -4.505   3.816  0.00  0.00    +0.041 A 
ATOM     17  C   UNL     1       2.868  -3.967   2.584  0.00  0.00    +0.195 A 
ATOM     18  O   UNL     1       2.146  -2.836   2.647  0.00  0.00    -0.464 OA
ENDBRANCH   2  14
BRANCH   1  21
ATOM     19  C   UNL     1       0.863  -0.290   1.210  0.00  0.00    +0.270 C 
ATOM     20  O   UNL     1       1.980  -0.740   1.066  0.00  0.00    -0.270 OA
ATOM     21  N   UNL     1       0.391  -0.040   2.447  0.00  0.00    -0.226 N 
ATOM     22  H   UNL     1      -0.502   0.320   2.562  0.00  0.00    +0.173 HD
BRANCH  19  24
ATOM     23  C   UNL     1      -0.257   1.492  -0.101  0.00  0.00    +0.062 C 
ATOM     24  C   UNL     1       0.001  -0.013   0.005  0.00  0.00    +0.257 C 
BRANCH  24  25
ATOM     25  O   UNL     1       0.671  -0.465  -1.174  0.00  0.00    -0.479 OA
BRANCH  25  26
ATOM     26  C   UNL     1      -0.106  -0.774  -2.244  0.00  0.00    +0.129 A 
ATOM     27  C   UNL     1      -1.453  -0.545  -2.205  0.00  0.00    +0.046 A 
ATOM     28  C   UNL     1      -2.263  -0.857  -3.294  0.00  0.00    +0.004 A 
ATOM     29  C   UNL     1      -1.738  -1.399  -4.428  0.00  0.00    +0.009 A 
ATOM     30  C   UNL     1      -0.357  -1.649  -4.507  0.00  0.00    -0.014 A 
ATOM     31  C   UNL     1       0.472  -1.329  -3.404  0.00  0.00    +0.024 A 
ATOM     32  C   UNL     1       1.852  -1.575  -3.485  0.00  0.00    +0.012 A 
ATOM     33  C   UNL     1       2.375  -2.112  -4.621  0.00  0.00    +0.001 A 
ATOM     34  C   UNL     1       1.561  -2.423  -5.708  0.00  0.00    +0.001 A 
ATOM     35  C   UNL     1       0.217  -2.208  -5.662  0.00  0.00    +0.008 A 
ENDBRANCH  25  26
ENDBRANCH  24  25
ENDBRANCH  19  24
ENDBRANCH   1  21
TORSDOF 5
