REMARK  Name = ZINC49974502
REMARK  13 active torsions:
REMARK  status: ('A' for Active; 'I' for Inactive)
REMARK    1  A    between atoms: C_1  and  C_2
REMARK    2  A    between atoms: C_2  and  N_3
REMARK    3  A    between atoms: C_4  and  N_25
REMARK    4  A    between atoms: C_5  and  C_12
REMARK    5  A    between atoms: C_12  and  C_14
REMARK    6  A    between atoms: C_14  and  N_15
REMARK    7  A    between atoms: N_15  and  C_16
REMARK    8  A    between atoms: N_15  and  C_17
REMARK    9  A    between atoms: C_17  and  C_18
REMARK   10  A    between atoms: N_20  and  C_21
REMARK   11  A    between atoms: C_21  and  C_22
REMARK   12  A    between atoms: C_21  and  C_23
REMARK   13  A    between atoms: C_21  and  C_24
REMARK                            x       y       z     vdW  Elec       q    Type
REMARK                         _______ _______ _______ _____ _____    ______ ____
ROOT
ATOM      1  N   UNL     1       0.787  -0.489  -1.149  0.00  0.00    -0.282 N 
ATOM      2  C   UNL     1      -0.029  -0.686  -2.226  0.00  0.00    +0.116 A 
ATOM      3  C   UNL     1       0.535  -1.127  -3.435  0.00  0.00    +0.121 A 
ATOM      4  C   UNL     1       1.986  -1.352  -3.473  0.00  0.00    +0.266 A 
ATOM      5  O   UNL     1       2.529  -1.732  -4.494  0.00  0.00    -0.267 OA
ATOM      6  N   UNL     1       2.704  -1.127  -2.354  0.00  0.00    -0.274 N 
ATOM      7  H   UNL     1       3.664  -1.272  -2.363  0.00  0.00    +0.173 HD
ATOM      8  C   UNL     1       2.110  -0.702  -1.227  0.00  0.00    +0.331 A 
ATOM      9  O   UNL     1       2.793  -0.507  -0.242  0.00  0.00    -0.246 OA
ENDROOT
BRANCH   2  10
ATOM     10  N   UNL     1      -1.368  -0.461  -2.129  0.00  0.00    -0.344 N 
ATOM     11  H   UNL     1      -1.761  -0.234  -1.272  0.00  0.00    +0.144 HD
ATOM     12  H   UNL     1      -1.929  -0.527  -2.918  0.00  0.00    +0.144 HD
ENDBRANCH   2  10
BRANCH   1  14
ATOM     13  C   UNL     1       0.202   1.500   0.149  0.00  0.00    +0.027 C 
ATOM     14  C   UNL     1       0.208  -0.030   0.116  0.00  0.00    +0.125 C 
ENDBRANCH   1  14
BRANCH   3  15
ATOM     15  C   UNL     1      -0.266  -1.345  -4.576  0.00  0.00    +0.185 C 
ATOM     16  O   UNL     1      -1.444  -1.053  -4.556  0.00  0.00    -0.290 OA
BRANCH  15  17
ATOM     17  C   UNL     1       0.341  -1.942  -5.820  0.00  0.00    +0.164 C 
BRANCH  17  18
ATOM     18  N   UNL     1      -0.692  -2.067  -6.857  0.00  0.00    -0.290 NA
ATOM     19  C   UNL     1      -1.716  -3.045  -6.465  0.00  0.00    +0.105 C 
BRANCH  18  20
ATOM     20  C   UNL     1      -0.096  -2.420  -8.153  0.00  0.00    +0.180 C 
BRANCH  20  21
ATOM     21  C   UNL     1      -1.139  -2.300  -9.234  0.00  0.00    +0.227 C 
ATOM     22  O   UNL     1      -2.267  -1.955  -8.953  0.00  0.00    -0.274 OA
ATOM     23  N   UNL     1      -0.818  -2.576 -10.514  0.00  0.00    -0.310 N 
ATOM     24  H   UNL     1       0.084  -2.852 -10.739  0.00  0.00    +0.149 HD
BRANCH  23  25
ATOM     25  C   UNL     1      -1.832  -2.459 -11.565  0.00  0.00    +0.026 C 
ATOM     26  C   UNL     1      -2.350  -1.021 -11.616  0.00  0.00    +0.031 C 
ATOM     27  C   UNL     1      -1.212  -2.827 -12.914  0.00  0.00    +0.031 C 
ATOM     28  C   UNL     1      -2.993  -3.409 -11.261  0.00  0.00    +0.031 C 
ENDBRANCH  23  25
ENDBRANCH  20  21
ENDBRANCH  18  20
ENDBRANCH  17  18
ENDBRANCH  15  17
ENDBRANCH   3  15
TORSDOF 8
