REMARK  Name = ZINC45147473
REMARK  7 active torsions:
REMARK  status: ('A' for Active; 'I' for Inactive)
REMARK    1  A    between atoms: C_1  and  C_2
REMARK    2  A    between atoms: C_2  and  N_3
REMARK    3  A    between atoms: N_3  and  C_4
REMARK    4  A    between atoms: N_3  and  S_11
REMARK    5  A    between atoms: C_9  and  C_10
REMARK    6  A    between atoms: S_11  and  C_14
REMARK    7  A    between atoms: C_15  and  N_21
REMARK                            x       y       z     vdW  Elec       q    Type
REMARK                         _______ _______ _______ _____ _____    ______ ____
ROOT
ATOM      1  S   UNL     1      -0.531  -1.439  -2.784  0.00  0.00    +0.079 S 
ATOM      2  O   UNL     1       0.281  -2.422  -3.412  0.00  0.00    -0.150 OA
ATOM      3  O   UNL     1      -1.884  -1.685  -2.425  0.00  0.00    -0.150 OA
ENDROOT
BRANCH   1   4
ATOM      4  C   UNL     1      -0.540  -0.036  -3.850  0.00  0.00    +0.164 A 
ATOM      5  C   UNL     1      -1.533   0.926  -3.724  0.00  0.00    +0.054 A 
ATOM      6  C   UNL     1      -1.537   2.031  -4.566  0.00  0.00    +0.025 A 
ATOM      7  C   UNL     1      -0.553   2.170  -5.526  0.00  0.00    +0.005 A 
ATOM      8  C   UNL     1       0.434   1.211  -5.651  0.00  0.00    +0.040 A 
ATOM      9  C   UNL     1       0.445   0.111  -4.809  0.00  0.00    +0.152 A 
ATOM     10  F   UNL     1       1.415  -0.822  -4.930  0.00  0.00    -0.203 F 
BRANCH   5  11
ATOM     11  N   UNL     1      -2.527   0.783  -2.753  0.00  0.00    -0.356 N 
ATOM     12  H   UNL     1      -2.410   0.149  -2.029  0.00  0.00    +0.142 HD
ATOM     13  H   UNL     1      -3.335   1.319  -2.803  0.00  0.00    +0.142 HD
ENDBRANCH   5  11
ENDBRANCH   1   4
BRANCH   1  14
ATOM     14  N   UNL     1       0.254  -0.994  -1.395  0.00  0.00    -0.203 N 
BRANCH  14  15
ATOM     15  C   UNL     1       1.614  -1.271  -1.242  0.00  0.00    +0.054 A 
ATOM     16  C   UNL     1       2.561  -0.305  -1.558  0.00  0.00    +0.025 A 
ATOM     17  C   UNL     1       3.905  -0.582  -1.405  0.00  0.00    +0.002 A 
ATOM     18  C   UNL     1       4.309  -1.820  -0.939  0.00  0.00    +0.000 A 
ATOM     19  C   UNL     1       3.369  -2.784  -0.624  0.00  0.00    +0.005 A 
ATOM     20  C   UNL     1       2.023  -2.511  -0.769  0.00  0.00    -0.028 A 
ATOM     21  C   UNL     1       0.999  -3.560  -0.419  0.00  0.00    +0.046 C 
ENDBRANCH  14  15
BRANCH  14  23
ATOM     22  C   UNL     1      -0.304   1.203  -0.477  0.00  0.00    +0.026 C 
ATOM     23  C   UNL     1      -0.479  -0.310  -0.327  0.00  0.00    +0.128 C 
ENDBRANCH  14  23
ENDBRANCH   1  14
TORSDOF 5
