REMARK  Name = ZINC12346920
REMARK  8 active torsions:
REMARK  status: ('A' for Active; 'I' for Inactive)
REMARK    1  A    between atoms: C_1  and  C_2
REMARK    2  A    between atoms: C_2  and  O_3
REMARK    3  A    between atoms: O_3  and  C_4
REMARK    4  A    between atoms: C_7  and  C_10
REMARK    5  A    between atoms: N_15  and  C_18
REMARK    6  A    between atoms: C_16  and  O_17
REMARK    7  A    between atoms: C_30  and  C_32
REMARK    8  A    between atoms: C_30  and  C_33
REMARK                            x       y       z     vdW  Elec       q    Type
REMARK                         _______ _______ _______ _____ _____    ______ ____
ROOT
ATOM      1  C   UNL     1       1.144  -6.059   1.764  0.00  0.00    +0.092 C 
ATOM      2  C   UNL     1       0.474  -6.479   3.042  0.00  0.00    +0.067 A 
ATOM      3  C   UNL     1       1.215  -6.869   4.182  0.00  0.00    +0.153 A 
ATOM      4  N   UNL     1       0.379  -7.170   5.131  0.00  0.00    -0.148 NA
ATOM      5  N   UNL     1      -0.925  -6.991   4.641  0.00  0.00    -0.199 N 
ATOM      6  C   UNL     1      -0.835  -6.564   3.349  0.00  0.00    +0.222 A 
ATOM      7  N   UNL     1       2.612  -6.887   4.152  0.00  0.00    -0.301 N 
ATOM      8  C   UNL     1       3.240  -6.824   2.933  0.00  0.00    +0.017 C 
ATOM      9  C   UNL     1       2.608  -6.444   1.803  0.00  0.00    +0.024 C 
ATOM     10  C   UNL     1       3.299  -6.387   0.579  0.00  0.00    +0.162 C 
ATOM     11  O   UNL     1       2.701  -6.050  -0.424  0.00  0.00    -0.292 OA
ATOM     12  C   UNL     1       4.758  -6.731   0.480  0.00  0.00    +0.086 C 
ATOM     13  C   UNL     1       5.429  -6.426   1.824  0.00  0.00    -0.023 C 
ATOM     14  C   UNL     1       4.701  -7.216   2.908  0.00  0.00    +0.058 C 
ATOM     15  C   UNL     1       5.334  -4.929   2.121  0.00  0.00    +0.011 C 
ATOM     16  C   UNL     1       6.898  -6.852   1.776  0.00  0.00    +0.011 C 
ATOM     17  H   UNL     1       3.126  -6.943   4.972  0.00  0.00    +0.153 HD
ENDROOT
BRANCH   1  21
ATOM     18  C   UNL     1       0.802  -1.824   1.306  0.00  0.00    +0.121 A 
ATOM     19  C   UNL     1       0.260  -2.673   0.351  0.00  0.00    +0.046 A 
ATOM     20  C   UNL     1       0.372  -4.041   0.502  0.00  0.00    +0.008 A 
ATOM     21  C   UNL     1       1.024  -4.566   1.603  0.00  0.00    -0.035 A 
ATOM     22  C   UNL     1       1.565  -3.722   2.555  0.00  0.00    +0.008 A 
ATOM     23  C   UNL     1       1.460  -2.353   2.406  0.00  0.00    +0.046 A 
BRANCH  18  24
ATOM     24  O   UNL     1       0.693  -0.477   1.160  0.00  0.00    -0.492 OA
BRANCH  24  26
ATOM     25  C   UNL     1      -0.019   1.526   0.010  0.00  0.00    +0.048 C 
ATOM     26  C   UNL     1       0.002  -0.004   0.002  0.00  0.00    +0.225 C 
ENDBRANCH  24  26
ENDBRANCH  18  24
ENDBRANCH   1  21
BRANCH   5  27
ATOM     27  C   UNL     1      -2.111  -7.210   5.355  0.00  0.00    +0.069 A 
ATOM     28  C   UNL     1      -3.217  -6.401   5.132  0.00  0.00    +0.028 A 
ATOM     29  C   UNL     1      -4.384  -6.620   5.837  0.00  0.00    +0.002 A 
ATOM     30  C   UNL     1      -4.452  -7.644   6.764  0.00  0.00    +0.000 A 
ATOM     31  C   UNL     1      -3.352  -8.451   6.988  0.00  0.00    +0.002 A 
ATOM     32  C   UNL     1      -2.184  -8.242   6.282  0.00  0.00    +0.028 A 
ENDBRANCH   5  27
BRANCH   6  33
ATOM     33  O   UNL     1      -1.873  -6.279   2.523  0.00  0.00    -0.492 OA
ATOM     34  H   UNL     1      -2.184  -7.035   2.006  0.00  0.00    +0.294 HD
ENDBRANCH   6  33
TORSDOF 5
