REMARK  Name = ZINC66481958
REMARK  8 active torsions:
REMARK  status: ('A' for Active; 'I' for Inactive)
REMARK    1  A    between atoms: C_1  and  C_2
REMARK    2  A    between atoms: N_5  and  C_8
REMARK    3  A    between atoms: C_8  and  C_9
REMARK    4  A    between atoms: C_9  and  C_11
REMARK    5  A    between atoms: C_9  and  O_29
REMARK    6  A    between atoms: C_11  and  N_12
REMARK    7  A    between atoms: C_15  and  C_19
REMARK    8  A    between atoms: C_15  and  C_20
REMARK                            x       y       z     vdW  Elec       q    Type
REMARK                         _______ _______ _______ _____ _____    ______ ____
ROOT
ATOM      1  N   UNL     1       3.476  -6.287   2.330  0.00  0.00    -0.222 N 
ATOM      2  C   UNL     1       4.818  -6.399   2.387  0.00  0.00    +0.251 C 
ATOM      3  O   UNL     1       5.610  -6.178   1.497  0.00  0.00    -0.272 OA
ATOM      4  C   UNL     1       5.130  -6.859   3.798  0.00  0.00    +0.135 C 
ATOM      5  N   UNL     1       3.803  -6.962   4.430  0.00  0.00    -0.281 N 
ATOM      6  C   UNL     1       2.903  -6.603   3.497  0.00  0.00    +0.310 C 
ATOM      7  O   UNL     1       1.704  -6.573   3.691  0.00  0.00    -0.252 OA
ATOM      8  C   UNL     1       5.993  -5.825   4.522  0.00  0.00    +0.047 C 
ATOM      9  H   UNL     1       3.616  -7.232   5.343  0.00  0.00    +0.152 HD
ENDROOT
BRANCH   4  10
ATOM     10  C   UNL     1       5.813  -8.202   3.778  0.00  0.00    -0.012 A 
ATOM     11  C   UNL     1       6.612  -8.554   2.706  0.00  0.00    +0.010 A 
ATOM     12  C   UNL     1       7.241  -9.785   2.684  0.00  0.00    +0.050 A 
ATOM     13  C   UNL     1       7.072 -10.669   3.737  0.00  0.00    +0.166 A 
ATOM     14  C   UNL     1       6.267 -10.315   4.817  0.00  0.00    +0.167 A 
ATOM     15  C   UNL     1       5.644  -9.077   4.835  0.00  0.00    +0.055 A 
ATOM     16  O   UNL     1       6.261 -11.344   5.714  0.00  0.00    -0.453 OA
ATOM     17  C   UNL     1       6.739 -12.491   4.985  0.00  0.00    +0.466 C 
ATOM     18  O   UNL     1       7.571 -11.921   3.957  0.00  0.00    -0.453 OA
ENDBRANCH   4  10
BRANCH   1  19
ATOM     19  C   UNL     1       2.736  -5.863   1.138  0.00  0.00    +0.147 C 
BRANCH  19  20
ATOM     20  C   UNL     1       2.582  -4.341   1.147  0.00  0.00    +0.116 C 
BRANCH  20  21
ATOM     21  O   UNL     1       3.869  -3.731   1.030  0.00  0.00    -0.392 OA
ATOM     22  H   UNL     1       4.342  -3.965   0.220  0.00  0.00    +0.210 HD
ENDBRANCH  20  21
BRANCH  20  23
ATOM     23  C   UNL     1       1.704  -3.911  -0.029  0.00  0.00    -0.046 C 
BRANCH  23  28
ATOM     24  C   UNL     1      -0.019   1.526   0.010  0.00  0.00    +0.007 C 
ATOM     25  C   UNL     1       0.002  -0.004   0.002  0.00  0.00    -0.018 C 
ATOM     26  C   UNL     1       0.727  -0.499  -1.252  0.00  0.00    -0.016 C 
ATOM     27  C   UNL     1       0.814  -2.027  -1.215  0.00  0.00    -0.078 C 
ATOM     28  N   UNL     1       1.556  -2.449  -0.021  0.00  0.00    +0.381 N 
ATOM     29  C   UNL     1       0.829  -2.040   1.187  0.00  0.00    -0.078 C 
ATOM     30  C   UNL     1       0.743  -0.513   1.242  0.00  0.00    -0.016 C 
ATOM     31  H   UNL     1       2.469  -2.020  -0.024  0.00  0.00    -0.082 HD
ENDBRANCH  23  28
ENDBRANCH  20  23
ENDBRANCH  19  20
ENDBRANCH   1  19
TORSDOF 6
