REMARK  Name = ZINC08694147
REMARK  10 active torsions:
REMARK  status: ('A' for Active; 'I' for Inactive)
REMARK    1  A    between atoms: C_1  and  C_2
REMARK    2  A    between atoms: C_3  and  C_16
REMARK    3  A    between atoms: N_5  and  C_7
REMARK    4  A    between atoms: C_7  and  C_8
REMARK    5  A    between atoms: C_16  and  O_18
REMARK    6  A    between atoms: O_18  and  C_19
REMARK    7  A    between atoms: C_19  and  C_21
REMARK    8  A    between atoms: C_19  and  C_24
REMARK    9  A    between atoms: C_21  and  C_22
REMARK   10  A    between atoms: C_21  and  C_23
REMARK                            x       y       z     vdW  Elec       q    Type
REMARK                         _______ _______ _______ _____ _____    ______ ____
ROOT
ATOM      1  C   UNL     1       0.051   0.213  -2.459  0.00  0.00    +0.345 C 
ATOM      2  O   UNL     1       1.080   0.270  -3.103  0.00  0.00    -0.245 OA
ENDROOT
BRANCH   1   5
ATOM      3  C   UNL     1       0.011   2.749  -0.551  0.00  0.00    +0.068 C 
ATOM      4  C   UNL     1       0.086   1.306  -0.126  0.00  0.00    +0.075 A 
ATOM      5  C   UNL     1       0.104   0.185  -0.989  0.00  0.00    +0.118 A 
ATOM      6  C   UNL     1       0.180  -0.942  -0.191  0.00  0.00    +0.142 A 
ATOM      7  N   UNL     1       0.207  -0.527   1.087  0.00  0.00    -0.248 N 
ATOM      8  N   UNL     1       0.153   0.871   1.101  0.00  0.00    -0.174 NA
ATOM      9 CL   UNL     1       0.231  -2.589  -0.738  0.00  0.00    -0.061 Cl
BRANCH   7  10
ATOM     10  C   UNL     1       0.285  -1.393   2.266  0.00  0.00    +0.181 C 
BRANCH  10  11
ATOM     11  C   UNL     1       1.730  -1.630   2.621  0.00  0.00    -0.008 A 
ATOM     12  C   UNL     1       2.381  -2.756   2.153  0.00  0.00    +0.007 A 
ATOM     13  C   UNL     1       3.707  -2.974   2.478  0.00  0.00    +0.000 A 
ATOM     14  C   UNL     1       4.383  -2.065   3.272  0.00  0.00    +0.001 A 
ATOM     15  C   UNL     1       3.733  -0.939   3.740  0.00  0.00    +0.020 A 
ATOM     16  C   UNL     1       2.408  -0.718   3.410  0.00  0.00    +0.046 A 
ATOM     17 CL   UNL     1       1.593   0.700   3.992  0.00  0.00    -0.083 Cl
ENDBRANCH  10  11
ENDBRANCH   7  10
ENDBRANCH   1   5
BRANCH   1  18
ATOM     18  O   UNL     1      -1.139   0.176  -3.092  0.00  0.00    -0.448 OA
BRANCH  18  19
ATOM     19  C   UNL     1      -1.115   0.207  -4.520  0.00  0.00    +0.265 C 
BRANCH  19  20
ATOM     20  C   UNL     1      -2.366   0.876  -5.029  0.00  0.00    +0.261 C 
ATOM     21  O   UNL     1      -3.233   1.210  -4.251  0.00  0.00    -0.271 OA
ATOM     22  N   UNL     1      -2.520   1.102  -6.349  0.00  0.00    -0.237 N 
ATOM     23  C   UNL     1      -3.679   1.607  -6.815  0.00  0.00    +0.303 C 
ATOM     24  O   UNL     1      -4.585   1.859  -6.045  0.00  0.00    -0.253 OA
ATOM     25  N   UNL     1      -3.833   1.834  -8.135  0.00  0.00    -0.313 N 
ATOM     26  H   UNL     1      -1.796   0.901  -6.963  0.00  0.00    +0.159 HD
ATOM     27  H   UNL     1      -3.110   1.633  -8.749  0.00  0.00    +0.146 HD
ATOM     28  H   UNL     1      -4.667   2.198  -8.470  0.00  0.00    +0.146 HD
ENDBRANCH  19  20
BRANCH  19  29
ATOM     29  C   UNL     1      -1.046  -1.223  -5.060  0.00  0.00    +0.033 C 
ATOM     30  C   UNL     1       0.288  -1.856  -4.658  0.00  0.00    +0.011 C 
ATOM     31  C   UNL     1      -2.197  -2.045  -4.475  0.00  0.00    +0.011 C 
ENDBRANCH  19  29
ENDBRANCH  18  19
ENDBRANCH   1  18
TORSDOF 7
