REMARK  Name = ZINC57083492
REMARK  5 active torsions:
REMARK  status: ('A' for Active; 'I' for Inactive)
REMARK    1  A    between atoms: C_1  and  C_2
REMARK    2  A    between atoms: C_5  and  C_7
REMARK    3  A    between atoms: N_9  and  C_10
REMARK    4  A    between atoms: C_10  and  C_11
REMARK    5  A    between atoms: C_16  and  C_26
REMARK                            x       y       z     vdW  Elec       q    Type
REMARK                         _______ _______ _______ _____ _____    ______ ____
ROOT
ATOM      1  C   UNL     1       4.488  -5.366  -0.049  0.00  0.00    +0.233 C 
ATOM      2  O   UNL     1       5.016  -4.289  -0.227  0.00  0.00    -0.274 OA
ATOM      3  N   UNL     1       5.231  -6.491  -0.059  0.00  0.00    -0.297 N 
ATOM      4  C   UNL     1       4.596  -7.813   0.040  0.00  0.00    +0.108 C 
ATOM      5  C   UNL     1       5.248  -8.591   1.187  0.00  0.00    +0.022 C 
ATOM      6  C   UNL     1       6.764  -8.631   0.980  0.00  0.00    -0.008 C 
ATOM      7  C   UNL     1       7.314  -7.200   0.994  0.00  0.00    +0.012 C 
ATOM      8  C   UNL     1       6.692  -6.424  -0.175  0.00  0.00    +0.079 C 
ATOM      9  C   UNL     1       7.155  -4.970  -0.156  0.00  0.00    +0.023 C 
ATOM     10  C   UNL     1       6.768  -4.317   1.172  0.00  0.00    +0.002 C 
ATOM     11  C   UNL     1       7.429  -5.082   2.321  0.00  0.00    +0.000 C 
ATOM     12  C   UNL     1       6.946  -6.543   2.326  0.00  0.00    +0.005 C 
ATOM     13  C   UNL     1       7.079  -9.288  -0.365  0.00  0.00    +0.008 C 
ENDROOT
BRANCH   1  14
ATOM     14  C   UNL     1       3.001  -5.448   0.183  0.00  0.00    +0.200 C 
BRANCH  14  17
ATOM     15  C   UNL     1       1.103  -3.927   0.331  0.00  0.00    +0.251 C 
ATOM     16  O   UNL     1       0.385  -4.890   0.528  0.00  0.00    -0.270 OA
ATOM     17  N   UNL     1       2.427  -4.100   0.147  0.00  0.00    -0.302 N 
ATOM     18  H   UNL     1       2.999  -3.333  -0.010  0.00  0.00    +0.150 HD
BRANCH  15  23
ATOM     19  C   UNL     1      -0.019   1.502   0.006  0.00  0.00    +0.051 C 
ATOM     20  C   UNL     1       0.013   0.002   0.138  0.00  0.00    -0.013 A 
ATOM     21  C   UNL     1      -1.028  -0.836   0.372  0.00  0.00    +0.011 A 
ATOM     22  C   UNL     1      -0.791  -2.187   0.459  0.00  0.00    +0.021 A 
ATOM     23  C   UNL     1       0.529  -2.579   0.295  0.00  0.00    +0.074 A 
ATOM     24  S   UNL     1       1.343  -1.017   0.023  0.00  0.00    -0.089 S 
ENDBRANCH  15  23
ENDBRANCH  14  17
ENDBRANCH   1  14
TORSDOF 3
