REMARK  Name = ZINC45094663
REMARK  10 active torsions:
REMARK  status: ('A' for Active; 'I' for Inactive)
REMARK    1  A    between atoms: C_1  and  C_2
REMARK    2  A    between atoms: C_5  and  N_18
REMARK    3  A    between atoms: C_6  and  C_17
REMARK    4  A    between atoms: C_7  and  O_8
REMARK    5  A    between atoms: O_8  and  C_9
REMARK    6  A    between atoms: C_9  and  C_10
REMARK    7  A    between atoms: N_12  and  C_13
REMARK    8  A    between atoms: C_13  and  C_14
REMARK    9  A    between atoms: C_13  and  C_15
REMARK   10  A    between atoms: C_13  and  C_16
REMARK                            x       y       z     vdW  Elec       q    Type
REMARK                         _______ _______ _______ _____ _____    ______ ____
ROOT
ATOM      1  C   UNL     1      -0.505   1.448  -0.197  0.00  0.00    +0.047 C 
ATOM      2  C   UNL     1      -0.231  -0.030  -0.098  0.00  0.00    -0.008 A 
ATOM      3  C   UNL     1       0.034  -0.763  -1.238  0.00  0.00    +0.009 A 
ATOM      4  C   UNL     1       0.286  -2.119  -1.148  0.00  0.00    +0.033 A 
ATOM      5  C   UNL     1       0.273  -2.746   0.085  0.00  0.00    +0.133 A 
ATOM      6  C   UNL     1       0.008  -2.018   1.228  0.00  0.00    +0.022 A 
ATOM      7  C   UNL     1      -0.239  -0.656   1.141  0.00  0.00    +0.129 A 
ATOM      8  C   UNL     1      -0.007  -2.703   2.571  0.00  0.00    +0.050 C 
ENDROOT
BRANCH   5   9
ATOM      9  N   UNL     1       0.542  -4.199   0.178  0.00  0.00    +0.057 N 
ATOM     10  O   UNL     1       1.167  -4.638   1.115  0.00  0.00    -0.126 OA
ATOM     11  O   UNL     1       0.137  -4.945  -0.682  0.00  0.00    -0.126 OA
ENDBRANCH   5   9
BRANCH   7  12
ATOM     12  O   UNL     1      -0.495   0.063   2.265  0.00  0.00    -0.482 OA
BRANCH  12  13
ATOM     13  C   UNL     1      -1.861   0.167   2.672  0.00  0.00    +0.324 C 
BRANCH  13  14
ATOM     14  C   UNL     1      -1.949   0.995   3.928  0.00  0.00    +0.251 C 
ATOM     15  O   UNL     1      -0.942   1.451   4.426  0.00  0.00    -0.272 OA
ATOM     16  N   UNL     1      -3.148   1.228   4.499  0.00  0.00    -0.308 N 
ATOM     17  H   UNL     1      -3.954   0.863   4.101  0.00  0.00    +0.149 HD
BRANCH  16  18
ATOM     18  C   UNL     1      -3.234   2.033   5.720  0.00  0.00    +0.026 C 
ATOM     19  C   UNL     1      -2.675   3.431   5.449  0.00  0.00    +0.031 C 
ATOM     20  C   UNL     1      -4.696   2.144   6.156  0.00  0.00    +0.031 C 
ATOM     21  C   UNL     1      -2.420   1.364   6.830  0.00  0.00    +0.031 C 
ENDBRANCH  16  18
ENDBRANCH  13  14
ENDBRANCH  12  13
ENDBRANCH   7  12
TORSDOF 5
