REMARK  Name = ZINC53523919
REMARK  8 active torsions:
REMARK  status: ('A' for Active; 'I' for Inactive)
REMARK    1  A    between atoms: C_1  and  N_2
REMARK    2  A    between atoms: N_2  and  C_3
REMARK    3  A    between atoms: N_2  and  C_4
REMARK    4  A    between atoms: C_4  and  C_6
REMARK    5  A    between atoms: C_4  and  C_23
REMARK    6  A    between atoms: C_6  and  N_7
REMARK    7  A    between atoms: N_13  and  C_16
REMARK    8  A    between atoms: C_21  and  O_22
REMARK                            x       y       z     vdW  Elec       q    Type
REMARK                         _______ _______ _______ _____ _____    ______ ____
ROOT
ATOM      1  N   UNL     1      -1.703   1.302  -1.404  0.00  0.00    -0.300 N 
ATOM      2  C   UNL     1      -2.076   1.923  -2.541  0.00  0.00    +0.302 C 
ATOM      3  O   UNL     1      -2.724   1.324  -3.377  0.00  0.00    -0.253 OA
ATOM      4  N   UNL     1      -1.729   3.208  -2.751  0.00  0.00    -0.283 N 
ATOM      5  C   UNL     1      -2.226   3.934  -3.929  0.00  0.00    +0.128 C 
ATOM      6  C   UNL     1      -2.932   5.211  -3.456  0.00  0.00    +0.124 C 
ATOM      7  N   UNL     1      -2.051   5.912  -2.512  0.00  0.00    -0.324 N 
ATOM      8  C   UNL     1      -1.554   5.187  -1.334  0.00  0.00    +0.124 C 
ATOM      9  C   UNL     1      -0.853   3.912  -1.804  0.00  0.00    +0.128 C 
ATOM     10  H   UNL     1      -1.250   1.800  -0.706  0.00  0.00    +0.150 HD
ENDROOT
BRANCH   7  11
ATOM     11  C   UNL     1      -1.691   7.247  -2.730  0.00  0.00    +0.072 A 
ATOM     12  C   UNL     1      -2.467   8.271  -2.208  0.00  0.00    +0.027 A 
ATOM     13  C   UNL     1      -2.110   9.589  -2.425  0.00  0.00    +0.002 A 
ATOM     14  C   UNL     1      -0.979   9.889  -3.161  0.00  0.00    +0.004 A 
ATOM     15  C   UNL     1      -0.201   8.874  -3.685  0.00  0.00    +0.047 A 
ATOM     16  C   UNL     1      -0.549   7.551  -3.468  0.00  0.00    +0.138 A 
BRANCH  16  17
ATOM     17  O   UNL     1       0.219   6.551  -3.978  0.00  0.00    -0.505 OA
ATOM     18  H   UNL     1      -0.040   6.271  -4.867  0.00  0.00    +0.292 HD
ENDBRANCH  16  17
ENDBRANCH   7  11
BRANCH   1  19
ATOM     19  C   UNL     1      -1.983  -0.124  -1.224  0.00  0.00    +0.098 C 
BRANCH  19  20
ATOM     20  C   UNL     1      -1.353  -0.606   0.085  0.00  0.00    +0.016 C 
BRANCH  20  21
ATOM     21  C   UNL     1       0.146  -0.491  -0.007  0.00  0.00    +0.093 A 
ATOM     22  C   UNL     1       0.998  -1.497  -0.277  0.00  0.00    +0.043 A 
ATOM     23  C   UNL     1       2.300  -0.946  -0.265  0.00  0.00    +0.041 A 
ATOM     24  C   UNL     1       2.167   0.363   0.011  0.00  0.00    +0.195 A 
ATOM     25  O   UNL     1       0.860   0.635   0.161  0.00  0.00    -0.469 OA
ENDBRANCH  20  21
BRANCH  20  27
ATOM     26  C   UNL     1      -3.288   0.030   1.352  0.00  0.00    -0.096 C 
ATOM     27  N   UNL     1      -1.841   0.222   1.196  0.00  0.00    +0.384 N 
ATOM     28  C   UNL     1      -1.158  -0.172   2.436  0.00  0.00    -0.096 C 
ATOM     29  H   UNL     1      -1.649   1.193   1.001  0.00  0.00    -0.082 HD
ENDBRANCH  20  27
ENDBRANCH  19  20
ENDBRANCH   1  19
TORSDOF 6
