REMARK  Name = ZINC65146163
REMARK  10 active torsions:
REMARK  status: ('A' for Active; 'I' for Inactive)
REMARK    1  A    between atoms: C_1  and  C_2
REMARK    2  A    between atoms: C_2  and  C_3
REMARK    3  A    between atoms: C_2  and  C_4
REMARK    4  A    between atoms: C_2  and  N_5
REMARK    5  A    between atoms: N_5  and  S_6
REMARK    6  A    between atoms: S_6  and  C_9
REMARK    7  A    between atoms: C_12  and  C_14
REMARK    8  A    between atoms: N_16  and  N_17
REMARK    9  A    between atoms: N_20  and  C_21
REMARK   10  A    between atoms: C_21  and  C_22
REMARK                            x       y       z     vdW  Elec       q    Type
REMARK                         _______ _______ _______ _____ _____    ______ ____
ROOT
ATOM      1  C   UNL     1       3.957  -2.280   3.502  0.00  0.00    +0.296 C 
ATOM      2  O   UNL     1       4.279  -3.286   4.106  0.00  0.00    -0.265 OA
ATOM      3  N   UNL     1       4.145  -1.068   4.062  0.00  0.00    -0.227 N 
ATOM      4  H   UNL     1       3.888  -0.266   3.581  0.00  0.00    +0.173 HD
ENDROOT
BRANCH   3   5
ATOM      5  N   UNL     1       4.711  -0.968   5.340  0.00  0.00    -0.218 N 
ATOM      6  C   UNL     1       4.899   0.243   5.900  0.00  0.00    +0.316 C 
ATOM      7  O   UNL     1       5.390   0.331   7.009  0.00  0.00    -0.251 OA
ATOM      8  N   UNL     1       4.542   1.358   5.232  0.00  0.00    -0.296 N 
ATOM      9  H   UNL     1       4.968  -1.770   5.821  0.00  0.00    +0.174 HD
ATOM     10  H   UNL     1       4.150   1.288   4.347  0.00  0.00    +0.150 HD
BRANCH   8  11
ATOM     11  C   UNL     1       4.746   2.675   5.841  0.00  0.00    +0.137 C 
BRANCH  11  12
ATOM     12  C   UNL     1       4.260   3.762   4.880  0.00  0.00    +0.135 C 
ATOM     13  C   UNL     1       4.577   5.156   5.464  0.00  0.00    +0.035 C 
ATOM     14  C   UNL     1       3.309   5.968   5.082  0.00  0.00    +0.031 C 
ATOM     15  C   UNL     1       2.215   4.876   5.193  0.00  0.00    +0.160 C 
ATOM     16  O   UNL     1       2.840   3.671   4.722  0.00  0.00    -0.375 OA
ENDBRANCH  11  12
ENDBRANCH   8  11
ENDBRANCH   3   5
BRANCH   1  20
ATOM     17  C   UNL     1       2.473  -1.828   0.239  0.00  0.00    +0.258 A 
ATOM     18  C   UNL     1       2.551  -3.177   0.255  0.00  0.00    +0.072 A 
ATOM     19  C   UNL     1       3.120  -3.543   1.484  0.00  0.00    +0.057 A 
ATOM     20  C   UNL     1       3.365  -2.385   2.164  0.00  0.00    +0.193 A 
ATOM     21  O   UNL     1       2.969  -1.354   1.389  0.00  0.00    -0.432 OA
BRANCH  17  22
ATOM     22  S   UNL     1       1.832  -0.852  -1.081  0.00  0.00    +0.092 S 
ATOM     23  O   UNL     1       2.104  -1.563  -2.281  0.00  0.00    -0.150 OA
ATOM     24  O   UNL     1       2.286   0.476  -0.862  0.00  0.00    -0.150 OA
BRANCH  22  25
ATOM     25  N   UNL     1       0.185  -0.823  -0.912  0.00  0.00    -0.182 NA
ATOM     26  H   UNL     1      -0.379  -1.250  -1.576  0.00  0.00    +0.149 HD
BRANCH  25  28
ATOM     27  C   UNL     1      -0.191   1.358   0.129  0.00  0.00    +0.029 C 
ATOM     28  C   UNL     1      -0.422  -0.150   0.239  0.00  0.00    +0.032 C 
ATOM     29  C   UNL     1       0.217  -0.671   1.528  0.00  0.00    +0.029 C 
ATOM     30  C   UNL     1      -1.925  -0.436   0.264  0.00  0.00    +0.029 C 
ENDBRANCH  25  28
ENDBRANCH  22  25
ENDBRANCH  17  22
ENDBRANCH   1  20
TORSDOF 7
