REMARK  Name = ZINC39609504
REMARK  9 active torsions:
REMARK  status: ('A' for Active; 'I' for Inactive)
REMARK    1  A    between atoms: C_1  and  C_2
REMARK    2  A    between atoms: C_2  and  O_3
REMARK    3  A    between atoms: O_3  and  C_4
REMARK    4  A    between atoms: C_8  and  C_10
REMARK    5  A    between atoms: C_10  and  C_11
REMARK    6  A    between atoms: C_11  and  N_12
REMARK    7  A    between atoms: C_13  and  C_15
REMARK    8  A    between atoms: C_26  and  C_28
REMARK    9  A    between atoms: C_32  and  C_34
REMARK                            x       y       z     vdW  Elec       q    Type
REMARK                         _______ _______ _______ _____ _____    ______ ____
ROOT
ATOM      1  C   UNL     1       1.705  -5.148  -8.447  0.00  0.00    +0.100 C 
ATOM      2  C   UNL     1       2.878  -4.390  -9.107  0.00  0.00    +0.121 C 
ATOM      3  N   UNL     1       2.738  -4.672 -10.555  0.00  0.00    -0.296 N 
ATOM      4  C   UNL     1       1.276  -4.626 -10.800  0.00  0.00    +0.115 C 
ATOM      5  C   UNL     1       0.655  -5.300  -9.561  0.00  0.00    -0.004 C 
ATOM      6  C   UNL     1      -0.638  -4.593  -9.169  0.00  0.00    -0.010 C 
ATOM      7  C   UNL     1      -1.685  -4.808 -10.265  0.00  0.00    -0.082 C 
ATOM      8  N   UNL     1      -1.924  -6.245 -10.442  0.00  0.00    +0.379 N 
ATOM      9  C   UNL     1      -0.697  -6.903 -10.909  0.00  0.00    -0.082 C 
ATOM     10  C   UNL     1       0.391  -6.777  -9.839  0.00  0.00    -0.010 C 
ATOM     11  C   UNL     1       3.718  -4.916 -11.448  0.00  0.00    +0.247 C 
ATOM     12  O   UNL     1       4.865  -5.049 -11.069  0.00  0.00    -0.270 OA
ATOM     13  H   UNL     1      -2.206  -6.649  -9.561  0.00  0.00    -0.086 HD
ATOM     14  H   UNL     1      -2.657  -6.382 -11.121  0.00  0.00    -0.086 HD
ENDROOT
BRANCH  11  15
ATOM     15  C   UNL     1       3.397  -5.023 -12.886  0.00  0.00    +0.037 A 
ATOM     16  C   UNL     1       2.218  -4.465 -13.385  0.00  0.00    +0.014 A 
ATOM     17  C   UNL     1       1.925  -4.568 -14.729  0.00  0.00    +0.016 A 
ATOM     18  C   UNL     1       2.796  -5.224 -15.582  0.00  0.00    +0.021 A 
ATOM     19  C   UNL     1       3.967  -5.779 -15.094  0.00  0.00    -0.036 A 
ATOM     20  C   UNL     1       4.274  -5.677 -13.753  0.00  0.00    +0.017 A 
ATOM     21  C   UNL     1       4.909  -6.490 -16.030  0.00  0.00    +0.045 C 
ATOM     22 BR   UNL     1       2.385  -5.362 -17.423  0.00  0.00    -0.050 Br
ENDBRANCH  11  15
BRANCH   1  24
ATOM     23  N   UNL     1       0.585  -4.978  -6.248  0.00  0.00    -0.315 N 
ATOM     24  C   UNL     1       1.141  -4.347  -7.301  0.00  0.00    +0.218 C 
ATOM     25  O   UNL     1       1.188  -3.136  -7.327  0.00  0.00    -0.275 OA
ATOM     26  H   UNL     1       0.547  -5.947  -6.227  0.00  0.00    +0.149 HD
BRANCH  23  27
ATOM     27  C   UNL     1       0.037  -4.199  -5.134  0.00  0.00    +0.109 C 
BRANCH  27  28
ATOM     28  C   UNL     1      -0.530  -5.149  -4.077  0.00  0.00    +0.054 C 
BRANCH  28  33
ATOM     29  C   UNL     1      -0.806  -3.274  -0.808  0.00  0.00    +0.121 A 
ATOM     30  C   UNL     1      -2.135  -2.878  -0.831  0.00  0.00    +0.045 A 
ATOM     31  C   UNL     1      -2.938  -3.217  -1.902  0.00  0.00    +0.004 A 
ATOM     32  C   UNL     1      -2.418  -3.952  -2.952  0.00  0.00    +0.004 A 
ATOM     33  C   UNL     1      -1.093  -4.348  -2.932  0.00  0.00    -0.042 A 
ATOM     34  C   UNL     1      -0.285  -4.007  -1.865  0.00  0.00    +0.049 A 
BRANCH  29  35
ATOM     35  O   UNL     1      -0.013  -2.941   0.244  0.00  0.00    -0.492 OA
BRANCH  35  37
ATOM     36  C   UNL     1       0.421  -1.908   2.386  0.00  0.00    +0.048 C 
ATOM     37  C   UNL     1      -0.617  -2.186   1.297  0.00  0.00    +0.225 C 
ENDBRANCH  35  37
ENDBRANCH  29  35
ENDBRANCH  28  33
ENDBRANCH  27  28
ENDBRANCH  23  27
ENDBRANCH   1  24
TORSDOF 7
