REMARK  Name = ZINC52067913
REMARK  7 active torsions:
REMARK  status: ('A' for Active; 'I' for Inactive)
REMARK    1  A    between atoms: C_1  and  C_2
REMARK    2  A    between atoms: C_2  and  C_4
REMARK    3  A    between atoms: C_2  and  O_22
REMARK    4  A    between atoms: C_9  and  O_10
REMARK    5  A    between atoms: O_10  and  C_11
REMARK    6  A    between atoms: C_11  and  C_12
REMARK    7  A    between atoms: C_15  and  N_18
REMARK                            x       y       z     vdW  Elec       q    Type
REMARK                         _______ _______ _______ _____ _____    ______ ____
ROOT
ATOM      1  C   UNL     1       0.731  -0.503   1.223  0.00  0.00    +0.023 A 
ATOM      2  C   UNL     1       2.076  -0.808   1.148  0.00  0.00    +0.025 A 
ATOM      3  C   UNL     1       2.746  -1.266   2.269  0.00  0.00    +0.018 A 
ATOM      4  C   UNL     1       2.070  -1.420   3.466  0.00  0.00    +0.019 A 
ATOM      5  C   UNL     1       0.725  -1.117   3.545  0.00  0.00    +0.047 A 
ATOM      6  C   UNL     1       0.053  -0.652   2.424  0.00  0.00    +0.127 A 
ATOM      7 BR   UNL     1       4.588  -1.683   2.163  0.00  0.00    -0.050 Br
ENDROOT
BRANCH   1   9
ATOM      8  C   UNL     1      -0.019   1.526   0.010  0.00  0.00    +0.043 C 
ATOM      9  C   UNL     1       0.002  -0.004   0.002  0.00  0.00    +0.145 C 
BRANCH   9  10
ATOM     10  O   UNL     1       0.671  -0.465  -1.174  0.00  0.00    -0.387 OA
ATOM     11  H   UNL     1       0.722  -1.428  -1.246  0.00  0.00    +0.210 HD
ENDBRANCH   9  10
ENDBRANCH   1   9
BRANCH   6  12
ATOM     12  O   UNL     1      -1.270  -0.348   2.501  0.00  0.00    -0.487 OA
BRANCH  12  13
ATOM     13  C   UNL     1      -1.903  -0.525   3.769  0.00  0.00    +0.264 C 
BRANCH  13  14
ATOM     14  C   UNL     1      -3.357  -0.141   3.662  0.00  0.00    -0.010 A 
ATOM     15  C   UNL     1      -3.746   1.164   3.903  0.00  0.00    +0.009 A 
ATOM     16  C   UNL     1      -5.080   1.516   3.805  0.00  0.00    +0.033 A 
ATOM     17  C   UNL     1      -6.023   0.565   3.466  0.00  0.00    +0.126 A 
ATOM     18  C   UNL     1      -5.633  -0.740   3.224  0.00  0.00    +0.033 A 
ATOM     19  C   UNL     1      -4.300  -1.091   3.318  0.00  0.00    +0.009 A 
BRANCH  17  20
ATOM     20  N   UNL     1      -7.450   0.942   3.362  0.00  0.00    +0.056 N 
ATOM     21  O   UNL     1      -7.791   2.082   3.574  0.00  0.00    -0.126 OA
ATOM     22  O   UNL     1      -8.276   0.109   3.066  0.00  0.00    -0.126 OA
ENDBRANCH  17  20
ENDBRANCH  13  14
ENDBRANCH  12  13
ENDBRANCH   6  12
TORSDOF 6
