REMARK  Name = ZINC54681250
REMARK  4 active torsions:
REMARK  status: ('A' for Active; 'I' for Inactive)
REMARK    1  A    between atoms: C_4  and  O_22
REMARK    2  A    between atoms: C_5  and  C_7
REMARK    3  A    between atoms: O_22  and  C_23
REMARK    4  A    between atoms: C_23  and  C_24
REMARK                            x       y       z     vdW  Elec       q    Type
REMARK                         _______ _______ _______ _____ _____    ______ ____
ROOT
ATOM      1  C   UNL     1       1.220  -2.186  -0.035  0.00  0.00    +0.212 C 
ATOM      2  N   UNL     1       1.654  -2.665  -1.360  0.00  0.00    -0.294 N 
ATOM      3  C   UNL     1       0.713  -2.697  -2.378  0.00  0.00    +0.159 C 
ATOM      4  N   UNL     1      -0.485  -3.354  -2.095  0.00  0.00    -0.259 N 
ATOM      5  C   UNL     1      -0.925  -3.242  -0.779  0.00  0.00    +0.205 A 
ATOM      6  N   UNL     1      -0.132  -2.702   0.210  0.00  0.00    -0.288 N 
ATOM      7  C   UNL     1      -0.845  -2.750   1.373  0.00  0.00    +0.072 A 
ATOM      8  C   UNL     1      -0.556  -2.360   2.676  0.00  0.00    +0.028 A 
ATOM      9  C   UNL     1      -1.542  -2.562   3.628  0.00  0.00    +0.002 A 
ATOM     10  C   UNL     1      -2.765  -3.128   3.310  0.00  0.00    +0.002 A 
ATOM     11  C   UNL     1      -3.076  -3.525   2.023  0.00  0.00    +0.030 A 
ATOM     12  C   UNL     1      -2.095  -3.330   1.044  0.00  0.00    +0.091 A 
ATOM     13  N   UNL     1      -2.076  -3.602  -0.280  0.00  0.00    -0.214 NA
ATOM     14  N   UNL     1       0.934  -2.143  -3.536  0.00  0.00    -0.375 N 
ATOM     15  H   UNL     1       2.569  -2.949  -1.515  0.00  0.00    +0.151 HD
ATOM     16  H   UNL     1       1.777  -1.693  -3.705  0.00  0.00    +0.158 HD
ATOM     17  H   UNL     1      -0.976  -3.853  -2.766  0.00  0.00    +0.158 HD
ATOM     18  H   UNL     1       0.257  -2.181  -4.230  0.00  0.00    +0.158 HD
ENDROOT
BRANCH   1  23
ATOM     19  C   UNL     1      -0.012   1.382  -0.113  0.00  0.00    +0.001 A 
ATOM     20  C   UNL     1       1.170   2.088   0.014  0.00  0.00    +0.004 A 
ATOM     21  C   UNL     1       2.371   1.414   0.125  0.00  0.00    +0.046 A 
ATOM     22  C   UNL     1       2.390   0.027   0.110  0.00  0.00    +0.128 A 
ATOM     23  C   UNL     1       1.203  -0.679  -0.017  0.00  0.00    +0.035 A 
ATOM     24  C   UNL     1       0.005  -0.001  -0.129  0.00  0.00    +0.011 A 
BRANCH  22  25
ATOM     25  O   UNL     1       3.570  -0.639   0.219  0.00  0.00    -0.487 OA
BRANCH  25  26
ATOM     26  C   UNL     1       4.761   0.150   0.229  0.00  0.00    +0.266 C 
BRANCH  26  27
ATOM     27  C   UNL     1       5.965  -0.757   0.233  0.00  0.00    +0.008 A 
ATOM     28  C   UNL     1       6.577  -1.105   1.427  0.00  0.00    +0.010 A 
ATOM     29  C   UNL     1       7.681  -1.942   1.383  0.00  0.00    +0.020 A 
ATOM     30  C   UNL     1       8.132  -2.399   0.159  0.00  0.00    +0.111 A 
ATOM     31  N   UNL     1       7.525  -2.046  -0.957  0.00  0.00    -0.263 NA
ATOM     32  C   UNL     1       6.468  -1.257  -0.953  0.00  0.00    +0.117 A 
ENDBRANCH  26  27
ENDBRANCH  25  26
ENDBRANCH  22  25
ENDBRANCH   1  23
TORSDOF 4
