REMARK  Name = ZINC66978758
REMARK  8 active torsions:
REMARK  status: ('A' for Active; 'I' for Inactive)
REMARK    1  A    between atoms: C_1  and  C_2
REMARK    2  A    between atoms: C_2  and  C_4
REMARK    3  A    between atoms: C_2  and  N_12
REMARK    4  A    between atoms: C_4  and  N_5
REMARK    5  A    between atoms: N_8  and  C_11
REMARK    6  A    between atoms: C_18  and  N_21
REMARK    7  A    between atoms: C_22  and  C_24
REMARK    8  A    between atoms: C_24  and  C_25
REMARK                            x       y       z     vdW  Elec       q    Type
REMARK                         _______ _______ _______ _____ _____    ______ ____
ROOT
ATOM      1  N   UNL     1       2.745  -0.264   0.066  0.00  0.00    -0.295 N 
ATOM      2  C   UNL     1       2.054  -0.600   1.174  0.00  0.00    +0.302 C 
ATOM      3  O   UNL     1       0.853  -0.414   1.220  0.00  0.00    -0.253 OA
ATOM      4  N   UNL     1       2.694  -1.141   2.229  0.00  0.00    -0.286 N 
ATOM      5  C   UNL     1       1.940  -1.618   3.397  0.00  0.00    +0.111 C 
ATOM      6  C   UNL     1       2.336  -3.071   3.679  0.00  0.00    +0.041 C 
ATOM      7  C   UNL     1       3.856  -3.161   3.832  0.00  0.00    +0.076 C 
ATOM      8  C   UNL     1       4.529  -2.721   2.529  0.00  0.00    +0.041 C 
ATOM      9  C   UNL     1       4.157  -1.270   2.232  0.00  0.00    +0.111 C 
ATOM     10  H   UNL     1       3.712  -0.343   0.056  0.00  0.00    +0.151 HD
ENDROOT
BRANCH   7  11
ATOM     11  N   UNL     1       4.236  -4.543   4.134  0.00  0.00    -0.312 N 
ATOM     12  C   UNL     1       5.385  -4.798   4.791  0.00  0.00    +0.214 C 
ATOM     13  O   UNL     1       6.104  -3.884   5.131  0.00  0.00    -0.276 OA
ATOM     14  H   UNL     1       3.660  -5.275   3.862  0.00  0.00    +0.149 HD
BRANCH  12  15
ATOM     15  C   UNL     1       5.775  -6.220   5.102  0.00  0.00    +0.099 C 
BRANCH  15  16
ATOM     16  C   UNL     1       7.111  -6.231   5.847  0.00  0.00    -0.002 C 
ATOM     17  C   UNL     1       8.243  -5.766   4.907  0.00  0.00    +0.004 C 
ATOM     18  C   UNL     1       9.452  -6.650   5.304  0.00  0.00    +0.000 C 
ATOM     19  C   UNL     1       8.794  -8.022   5.590  0.00  0.00    +0.000 C 
ATOM     20  C   UNL     1       7.461  -7.666   6.280  0.00  0.00    +0.004 C 
ENDBRANCH  15  16
ENDBRANCH  12  15
ENDBRANCH   7  11
BRANCH   1  22
ATOM     21  C   UNL     1       1.564  -0.974  -1.955  0.00  0.00    +0.029 C 
ATOM     22  C   UNL     1       2.036   0.219  -1.121  0.00  0.00    +0.085 C 
BRANCH  22  23
ATOM     23  C   UNL     1       2.978   1.087  -1.959  0.00  0.00    +0.106 C 
BRANCH  23  24
ATOM     24  N   UNL     1       3.524   2.164  -1.124  0.00  0.00    -0.304 NA
ATOM     25  C   UNL     1       2.468   3.100  -0.714  0.00  0.00    +0.066 C 
ATOM     26  C   UNL     1       3.066   4.171   0.202  0.00  0.00    -0.064 C 
ATOM     27  N   UNL     1       4.129   4.888  -0.514  0.00  0.00    +0.379 N 
ATOM     28  C   UNL     1       5.188   3.945  -0.896  0.00  0.00    -0.064 C 
ATOM     29  C   UNL     1       4.608   2.873  -1.820  0.00  0.00    +0.066 C 
ATOM     30  C   UNL     1       4.691   5.928   0.358  0.00  0.00    -0.096 C 
ATOM     31  H   UNL     1       3.746   5.317  -1.344  0.00  0.00    -0.082 HD
ENDBRANCH  23  24
ENDBRANCH  22  23
ENDBRANCH   1  22
TORSDOF 6
