REMARK  Name = ZINC22239238
REMARK  6 active torsions:
REMARK  status: ('A' for Active; 'I' for Inactive)
REMARK    1  A    between atoms: C_1  and  C_2
REMARK    2  A    between atoms: C_2  and  N_3
REMARK    3  A    between atoms: C_4  and  C_24
REMARK    4  A    between atoms: C_5  and  C_9
REMARK    5  A    between atoms: C_6  and  C_8
REMARK    6  A    between atoms: C_14  and  C_15
REMARK                            x       y       z     vdW  Elec       q    Type
REMARK                         _______ _______ _______ _____ _____    ______ ____
ROOT
ATOM      1  C   UNL     1       0.002  -0.004   0.002  0.00  0.00    +0.011 A 
ATOM      2  C   UNL     1       0.024  -0.740   1.217  0.00  0.00    -0.017 A 
ATOM      3  C   UNL     1       0.055  -2.104   1.112  0.00  0.00    +0.047 A 
ATOM      4  N   UNL     1       0.027  -2.710  -0.079  0.00  0.00    -0.236 NA
ATOM      5  C   UNL     1      -0.008  -2.077  -1.229  0.00  0.00    +0.135 A 
ATOM      6  C   UNL     1      -0.010  -0.673  -1.231  0.00  0.00    +0.099 A 
ATOM      7  N   UNL     1      -0.045  -2.780  -2.421  0.00  0.00    -0.342 N 
ATOM      8  C   UNL     1       0.127  -3.075   2.265  0.00  0.00    +0.056 C 
ATOM      9  C   UNL     1      -1.181  -3.183   3.022  0.00  0.00    +0.006 C 
ATOM     10  C   UNL     1      -2.000  -1.902   3.011  0.00  0.00    +0.000 C 
ATOM     11  C   UNL     1      -1.395  -1.044   4.099  0.00  0.00    +0.000 C 
ATOM     12  C   UNL     1       0.020  -0.576   3.768  0.00  0.00    +0.005 C 
ATOM     13  C   UNL     1       0.000   0.157   2.433  0.00  0.00    +0.037 C 
ATOM     14  H   UNL     1      -0.075  -2.239  -3.378  0.00  0.00    +0.144 HD
ATOM     15  H   UNL     1      -0.045  -3.880  -2.410  0.00  0.00    +0.144 HD
ENDROOT
BRANCH   1  18
ATOM     16  N   UNL     1       0.625   3.571   0.015  0.00  0.00    -0.268 N 
ATOM     17  C   UNL     1       1.073   2.301   0.004  0.00  0.00    +0.044 A 
ATOM     18  C   UNL     1      -0.018   1.478   0.010  0.00  0.00    +0.027 A 
ATOM     19  C   UNL     1      -1.166   2.296   0.019  0.00  0.00    +0.068 A 
ATOM     20  N   UNL     1      -0.775   3.543   0.028  0.00  0.00    -0.176 NA
ATOM     21  C   UNL     1      -2.595   1.817   0.023  0.00  0.00    +0.068 C 
ATOM     22  C   UNL     1       2.516   1.867  -0.011  0.00  0.00    +0.066 C 
BRANCH  16  24
ATOM     23  C   UNL     1       1.735   5.202  -1.431  0.00  0.00    +0.029 C 
ATOM     24  C   UNL     1       1.459   4.775   0.012  0.00  0.00    +0.140 C 
ENDBRANCH  16  24
ENDBRANCH   1  18
BRANCH   6  25
ATOM     25  C   UNL     1      -0.023   0.060  -2.461  0.00  0.00    +0.103 C 
ATOM     26  N   UNL     1      -0.034   0.642  -3.437  0.00  0.00    -0.191 NA
ENDBRANCH   6  25
TORSDOF 3
