REMARK  Name = ZINC29912570
REMARK  9 active torsions:
REMARK  status: ('A' for Active; 'I' for Inactive)
REMARK    1  A    between atoms: C_1  and  C_2
REMARK    2  A    between atoms: C_2  and  C_3
REMARK    3  A    between atoms: C_3  and  C_5
REMARK    4  A    between atoms: C_3  and  N_20
REMARK    5  A    between atoms: C_5  and  N_6
REMARK    6  A    between atoms: C_7  and  C_9
REMARK    7  A    between atoms: C_14  and  O_15
REMARK    8  A    between atoms: O_15  and  C_16
REMARK    9  A    between atoms: C_16  and  C_17
REMARK                            x       y       z     vdW  Elec       q    Type
REMARK                         _______ _______ _______ _____ _____    ______ ____
ROOT
ATOM      1  N   UNL     1      -0.064  -0.417  -2.436  0.00  0.00    -0.313 N 
ATOM      2  C   UNL     1       0.615  -1.122  -3.363  0.00  0.00    +0.248 C 
ATOM      3  O   UNL     1       1.274  -0.544  -4.204  0.00  0.00    -0.270 OA
ATOM      4  H   UNL     1      -0.661  -0.940  -1.675  0.00  0.00    +0.149 HD
ENDROOT
BRANCH   2   5
ATOM      5  C   UNL     1       0.557  -2.596  -3.355  0.00  0.00    +0.078 A 
ATOM      6  C   UNL     1      -0.195  -3.265  -2.387  0.00  0.00    +0.017 A 
ATOM      7  C   UNL     1      -0.248  -4.642  -2.388  0.00  0.00    +0.001 A 
ATOM      8  C   UNL     1       0.449  -5.368  -3.340  0.00  0.00    +0.004 A 
ATOM      9  C   UNL     1       1.200  -4.720  -4.300  0.00  0.00    +0.046 A 
ATOM     10  C   UNL     1       1.261  -3.334  -4.316  0.00  0.00    +0.133 A 
BRANCH  10  11
ATOM     11  O   UNL     1       2.000  -2.696  -5.259  0.00  0.00    -0.482 OA
BRANCH  11  12
ATOM     12  C   UNL     1       2.690  -3.513  -6.206  0.00  0.00    +0.324 C 
BRANCH  12  13
ATOM     13  C   UNL     1       3.451  -2.636  -7.166  0.00  0.00    +0.248 C 
ATOM     14  O   UNL     1       3.406  -1.430  -7.051  0.00  0.00    -0.272 OA
ATOM     15  N   UNL     1       4.181  -3.193  -8.153  0.00  0.00    -0.327 N 
ATOM     16  H   UNL     1       4.736  -2.553  -8.854  0.00  0.00    +0.145 HD
ATOM     17  H   UNL     1       4.221  -4.287  -8.257  0.00  0.00    +0.145 HD
ENDBRANCH  12  13
ENDBRANCH  11  12
ENDBRANCH  10  11
ENDBRANCH   2   5
BRANCH   1  18
ATOM     18  C   UNL     1      -0.007   1.047  -2.444  0.00  0.00    +0.089 C 
BRANCH  18  19
ATOM     19  C   UNL     1      -0.750   1.593  -1.223  0.00  0.00    -0.051 C 
BRANCH  19  20
ATOM     20  N   UNL     1      -0.823   3.058  -1.307  0.00  0.00    +0.385 N 
ATOM     21  C   UNL     1      -1.720   3.479  -2.394  0.00  0.00    -0.073 C 
ATOM     22  C   UNL     1      -2.045   4.962  -2.208  0.00  0.00    +0.017 C 
ATOM     23  C   UNL     1      -0.773   5.747  -2.015  0.00  0.00    -0.048 A 
ATOM     24  C   UNL     1      -0.814   7.123  -2.183  0.00  0.00    +0.004 A 
ATOM     25  C   UNL     1       0.328   7.880  -2.013  0.00  0.00    +0.000 A 
ATOM     26  C   UNL     1       1.518   7.263  -1.673  0.00  0.00    +0.000 A 
ATOM     27  C   UNL     1       1.559   5.894  -1.507  0.00  0.00    +0.002 A 
ATOM     28  C   UNL     1       0.413   5.131  -1.680  0.00  0.00    -0.061 A 
ATOM     29  C   UNL     1       0.510   3.639  -1.496  0.00  0.00    -0.042 C 
ATOM     30  H   UNL     1      -1.228   3.427  -0.354  0.00  0.00    -0.081 HD
ENDBRANCH  19  20
BRANCH  19  32
ATOM     31  C   UNL     1      -0.809   1.629   1.275  0.00  0.00    +0.002 C 
ATOM     32  C   UNL     1      -0.003   1.192   0.051  0.00  0.00    -0.017 C 
ENDBRANCH  19  32
ENDBRANCH  18  19
ENDBRANCH   1  18
TORSDOF 8
