REMARK  Name = ZINC06696269
REMARK  9 active torsions:
REMARK  status: ('A' for Active; 'I' for Inactive)
REMARK    1  A    between atoms: C_1  and  C_2
REMARK    2  A    between atoms: C_7  and  C_8
REMARK    3  A    between atoms: C_11  and  C_14
REMARK    4  A    between atoms: C_14  and  N_15
REMARK    5  A    between atoms: N_15  and  C_16
REMARK    6  A    between atoms: C_16  and  C_17
REMARK    7  A    between atoms: N_26  and  C_27
REMARK    8  A    between atoms: C_27  and  C_28
REMARK    9  A    between atoms: C_27  and  C_29
REMARK                            x       y       z     vdW  Elec       q    Type
REMARK                         _______ _______ _______ _____ _____    ______ ____
ROOT
ATOM      1  N   UNL     1      -6.962   5.519   0.082  0.00  0.00    -0.278 N 
ATOM      2  C   UNL     1      -6.861   6.672   0.772  0.00  0.00    +0.303 C 
ATOM      3  O   UNL     1      -7.550   7.626   0.466  0.00  0.00    -0.253 OA
ATOM      4  N   UNL     1      -5.995   6.768   1.801  0.00  0.00    -0.297 N 
ATOM      5  H   UNL     1      -5.446   6.007   2.045  0.00  0.00    +0.150 HD
ENDROOT
BRANCH   4   6
ATOM      6  C   UNL     1      -5.885   8.022   2.551  0.00  0.00    +0.068 C 
ATOM      7  C   UNL     1      -6.958   8.060   3.641  0.00  0.00    +0.027 C 
ATOM      8  C   UNL     1      -4.500   8.110   3.195  0.00  0.00    +0.027 C 
ENDBRANCH   4   6
BRANCH   1   9
ATOM      9  C   UNL     1      -6.132   4.369   0.451  0.00  0.00    +0.157 C 
BRANCH   9  13
ATOM     10  C   UNL     1      -2.520   3.870   0.048  0.00  0.00    +0.091 C 
ATOM     11  N   UNL     1      -2.664   5.152   0.056  0.00  0.00    -0.089 NA
ATOM     12  O   UNL     1      -4.020   5.553   0.079  0.00  0.00    -0.388 OA
ATOM     13  C   UNL     1      -4.816   4.421  -0.327  0.00  0.00    +0.227 C 
ATOM     14  C   UNL     1      -3.898   3.236   0.052  0.00  0.00    +0.108 C 
BRANCH  10  21
ATOM     15  C   UNL     1      -0.039   5.357   0.033  0.00  0.00    +0.044 C 
ATOM     16  C   UNL     1      -0.030   3.850   0.024  0.00  0.00    -0.041 A 
ATOM     17  C   UNL     1       1.167   3.166   0.008  0.00  0.00    +0.004 A 
ATOM     18  C   UNL     1       1.177   1.782   0.000  0.00  0.00    +0.000 A 
ATOM     19  C   UNL     1      -0.013   1.076   0.008  0.00  0.00    +0.001 A 
ATOM     20  C   UNL     1      -1.217   1.748   0.017  0.00  0.00    +0.010 A 
ATOM     21  C   UNL     1      -1.234   3.144   0.031  0.00  0.00    +0.002 A 
ENDBRANCH  10  21
ENDBRANCH   9  13
ENDBRANCH   1   9
BRANCH   1  22
ATOM     22  C   UNL     1      -7.903   5.415  -1.036  0.00  0.00    +0.147 C 
BRANCH  22  23
ATOM     23  C   UNL     1      -9.237   4.934  -0.527  0.00  0.00    +0.005 A 
ATOM     24  C   UNL     1     -10.291   5.820  -0.408  0.00  0.00    +0.008 A 
ATOM     25  C   UNL     1     -11.516   5.380   0.059  0.00  0.00    +0.000 A 
ATOM     26  C   UNL     1     -11.688   4.053   0.406  0.00  0.00    +0.003 A 
ATOM     27  C   UNL     1     -10.635   3.165   0.288  0.00  0.00    +0.038 A 
ATOM     28  C   UNL     1      -9.410   3.604  -0.184  0.00  0.00    +0.128 A 
ATOM     29  F   UNL     1      -8.382   2.736  -0.306  0.00  0.00    -0.205 F 
ENDBRANCH  22  23
ENDBRANCH   1  22
TORSDOF 6
