REMARK  Name = ZINC15879109
REMARK  9 active torsions:
REMARK  status: ('A' for Active; 'I' for Inactive)
REMARK    1  A    between atoms: C_1  and  C_2
REMARK    2  A    between atoms: C_4  and  C_24
REMARK    3  A    between atoms: C_6  and  C_8
REMARK    4  A    between atoms: N_10  and  N_11
REMARK    5  A    between atoms: C_12  and  C_14
REMARK    6  A    between atoms: C_14  and  O_15
REMARK    7  A    between atoms: O_15  and  C_16
REMARK    8  A    between atoms: C_18  and  C_23
REMARK    9  A    between atoms: C_20  and  C_22
REMARK                            x       y       z     vdW  Elec       q    Type
REMARK                         _______ _______ _______ _____ _____    ______ ____
ROOT
ATOM      1  N   UNL     1       5.000   5.461  -0.018  0.00  0.00    -0.231 N 
ATOM      2  C   UNL     1       4.841   4.123  -0.024  0.00  0.00    +0.267 C 
ATOM      3  O   UNL     1       5.812   3.397  -0.037  0.00  0.00    -0.271 OA
ATOM      4  H   UNL     1       4.224   6.043  -0.008  0.00  0.00    +0.173 HD
ENDROOT
BRANCH   1   7
ATOM      5  C   UNL     1       6.448   7.351  -0.023  0.00  0.00    +0.260 C 
ATOM      6  O   UNL     1       5.475   8.080  -0.010  0.00  0.00    -0.269 OA
ATOM      7  N   UNL     1       6.288   6.013  -0.028  0.00  0.00    -0.230 N 
ATOM      8  H   UNL     1       7.065   5.432  -0.039  0.00  0.00    +0.173 HD
BRANCH   5  14
ATOM      9  C   UNL     1      11.402   6.752  -0.074  0.00  0.00    +0.044 C 
ATOM     10  C   UNL     1      10.192   7.650  -0.058  0.00  0.00    -0.049 A 
ATOM     11  C   UNL     1      10.352   9.024  -0.052  0.00  0.00    +0.006 A 
ATOM     12  C   UNL     1       9.247   9.856  -0.037  0.00  0.00    -0.049 A 
ATOM     13  C   UNL     1       7.976   9.319  -0.028  0.00  0.00    +0.016 A 
ATOM     14  C   UNL     1       7.807   7.934  -0.033  0.00  0.00    +0.039 A 
ATOM     15  C   UNL     1       8.927   7.100  -0.043  0.00  0.00    +0.016 A 
ATOM     16  C   UNL     1       9.431  11.352  -0.032  0.00  0.00    +0.044 C 
ENDBRANCH   5  14
ENDBRANCH   1   7
BRANCH   2  17
ATOM     17  C   UNL     1       3.456   3.530  -0.013  0.00  0.00    +0.326 C 
BRANCH  17  18
ATOM     18  O   UNL     1       3.548   2.104  -0.021  0.00  0.00    -0.483 OA
BRANCH  18  19
ATOM     19  C   UNL     1       2.380   1.409  -0.013  0.00  0.00    +0.122 A 
ATOM     20  C   UNL     1       1.169   2.087   0.002  0.00  0.00    +0.049 A 
ATOM     21  C   UNL     1      -0.017   1.378   0.010  0.00  0.00    -0.047 A 
ATOM     22  C   UNL     1       0.002  -0.004   0.002  0.00  0.00    +0.007 A 
ATOM     23  C   UNL     1       1.207  -0.681  -0.013  0.00  0.00    -0.047 A 
ATOM     24  C   UNL     1       2.396   0.022  -0.020  0.00  0.00    +0.049 A 
ATOM     25  C   UNL     1       1.224  -2.188  -0.020  0.00  0.00    +0.044 C 
ATOM     26  C   UNL     1      -1.332   2.114   0.020  0.00  0.00    +0.044 C 
ENDBRANCH  18  19
ENDBRANCH  17  18
ENDBRANCH   2  17
TORSDOF 5
