REMARK  Name = ZINC37756647
REMARK  4 active torsions:
REMARK  status: ('A' for Active; 'I' for Inactive)
REMARK    1  A    between atoms: C_5  and  C_8
REMARK    2  A    between atoms: C_5  and  C_19
REMARK    3  A    between atoms: C_8  and  C_9
REMARK    4  A    between atoms: C_11  and  C_14
REMARK                            x       y       z     vdW  Elec       q    Type
REMARK                         _______ _______ _______ _____ _____    ______ ____
ROOT
ATOM      1  C   UNL     1       2.481  -0.550  -0.451  0.00  0.00    +0.117 C 
ENDROOT
BRANCH   1   6
ATOM      2  C   UNL     1       4.995   0.159   1.457  0.00  0.00    +0.000 C 
ATOM      3  C   UNL     1       4.681  -1.329   1.201  0.00  0.00    +0.000 C 
ATOM      4  C   UNL     1       3.697  -1.795   2.240  0.00  0.00    +0.001 C 
ATOM      5  C   UNL     1       2.238  -1.699   1.754  0.00  0.00    +0.019 C 
ATOM      6  C   UNL     1       1.951  -0.400   0.977  0.00  0.00    +0.080 C 
ATOM      7  C   UNL     1       2.593   0.804   1.611  0.00  0.00    +0.019 C 
ATOM      8  C   UNL     1       3.961   1.042   0.938  0.00  0.00    +0.001 C 
BRANCH   6   9
ATOM      9  C   UNL     1       0.461  -0.185   0.920  0.00  0.00    +0.362 C 
ATOM     10  O   UNL     1       0.009   0.947   0.872  0.00  0.00    -0.246 OA
ATOM     11  O   UNL     1      -0.294  -1.142   0.923  0.00  0.00    -0.246 OA
ENDBRANCH   6   9
ENDBRANCH   1   6
BRANCH   1  12
ATOM     12  C   UNL     1       1.989  -1.849  -1.036  0.00  0.00    +0.228 A 
ATOM     13  N   UNL     1       0.836  -2.038  -1.615  0.00  0.00    -0.196 NA
ATOM     14  C   UNL     1       0.727  -3.309  -2.017  0.00  0.00    +0.175 A 
ATOM     15  N   UNL     1       1.816  -3.947  -1.697  0.00  0.00    -0.061 NA
ATOM     16  O   UNL     1       2.663  -3.005  -1.055  0.00  0.00    -0.338 OA
BRANCH  14  17
ATOM     17  C   UNL     1      -0.462  -3.905  -2.725  0.00  0.00    +0.060 C 
ATOM     18  C   UNL     1      -1.005  -5.107  -1.926  0.00  0.00    +0.011 C 
ATOM     19  C   UNL     1      -1.440  -6.121  -3.014  0.00  0.00    +0.001 C 
ATOM     20  C   UNL     1      -0.339  -5.960  -4.091  0.00  0.00    +0.001 C 
ATOM     21  C   UNL     1      -0.038  -4.447  -4.102  0.00  0.00    +0.011 C 
ENDBRANCH  14  17
ENDBRANCH   1  12
TORSDOF 4
