REMARK  Name = ZINC08621753
REMARK  12 active torsions:
REMARK  status: ('A' for Active; 'I' for Inactive)
REMARK    1  A    between atoms: C_1  and  C_2
REMARK    2  A    between atoms: C_2  and  C_3
REMARK    3  A    between atoms: C_3  and  N_4
REMARK    4  A    between atoms: N_4  and  C_5
REMARK    5  A    between atoms: C_6  and  N_21
REMARK    6  A    between atoms: N_7  and  C_14
REMARK    7  A    between atoms: C_14  and  C_15
REMARK    8  A    between atoms: C_22  and  C_24
REMARK    9  A    between atoms: C_24  and  S_25
REMARK   10  A    between atoms: S_25  and  C_26
REMARK   11  A    between atoms: C_30  and  C_36
REMARK   12  A    between atoms: C_32  and  C_35
REMARK                            x       y       z     vdW  Elec       q    Type
REMARK                         _______ _______ _______ _____ _____    ______ ____
ROOT
ATOM      1  N   UNL     1      -3.008  -2.554   0.072  0.00  0.00    -0.264 N 
ATOM      2  C   UNL     1      -1.772  -2.045   0.257  0.00  0.00    +0.230 C 
ATOM      3  O   UNL     1      -0.832  -2.788   0.445  0.00  0.00    -0.274 OA
ENDROOT
BRANCH   1   4
ATOM      4  C   UNL     1      -3.192  -3.951   0.001  0.00  0.00    +0.140 A 
ATOM      5  C   UNL     1      -2.617  -4.683  -1.017  0.00  0.00    +0.128 A 
ATOM      6  N   UNL     1      -2.811  -6.045  -1.057  0.00  0.00    -0.276 N 
ATOM      7  C   UNL     1      -3.560  -6.654  -0.121  0.00  0.00    +0.331 A 
ATOM      8  O   UNL     1      -3.723  -7.857  -0.176  0.00  0.00    -0.246 OA
ATOM      9  N   UNL     1      -4.133  -5.955   0.876  0.00  0.00    -0.273 N 
ATOM     10  H   UNL     1      -4.686  -6.432   1.559  0.00  0.00    +0.173 HD
ATOM     11  C   UNL     1      -3.970  -4.620   0.964  0.00  0.00    +0.277 A 
ATOM     12  O   UNL     1      -4.494  -3.997   1.871  0.00  0.00    -0.266 OA
BRANCH   5  13
ATOM     13  N   UNL     1      -1.855  -4.061  -1.977  0.00  0.00    -0.343 N 
ATOM     14  H   UNL     1      -1.807  -3.093  -2.005  0.00  0.00    +0.144 HD
ATOM     15  H   UNL     1      -1.365  -4.590  -2.626  0.00  0.00    +0.144 HD
ENDBRANCH   5  13
BRANCH   6  16
ATOM     16  C   UNL     1      -2.201  -6.835  -2.130  0.00  0.00    +0.163 C 
BRANCH  16  17
ATOM     17  C   UNL     1      -3.150  -6.913  -3.298  0.00  0.00    -0.028 A 
ATOM     18  C   UNL     1      -4.065  -7.946  -3.378  0.00  0.00    +0.005 A 
ATOM     19  C   UNL     1      -4.939  -8.014  -4.447  0.00  0.00    +0.000 A 
ATOM     20  C   UNL     1      -4.890  -7.055  -5.442  0.00  0.00    +0.000 A 
ATOM     21  C   UNL     1      -3.972  -6.025  -5.364  0.00  0.00    +0.000 A 
ATOM     22  C   UNL     1      -3.102  -5.954  -4.292  0.00  0.00    +0.005 A 
ENDBRANCH  16  17
ENDBRANCH   6  16
ENDBRANCH   1   4
BRANCH   1  23
ATOM     23  C   UNL     1      -4.159  -1.656  -0.054  0.00  0.00    +0.114 C 
BRANCH  23  25
ATOM     24  C   UNL     1      -5.593  -0.392  -1.663  0.00  0.00    +0.005 C 
ATOM     25  C   UNL     1      -4.391  -1.329  -1.531  0.00  0.00    +0.016 C 
ENDBRANCH  23  25
ENDBRANCH   1  23
BRANCH   2  26
ATOM     26  C   UNL     1      -1.560  -0.553   0.230  0.00  0.00    +0.173 C 
BRANCH  26  27
ATOM     27  S   UNL     1       0.195  -0.186   0.507  0.00  0.00    -0.075 S 
BRANCH  27  28
ATOM     28  C   UNL     1       0.278   1.573   0.447  0.00  0.00    +0.211 A 
ATOM     29  N   UNL     1      -0.756   2.384   0.234  0.00  0.00    -0.183 NA
ATOM     30  C   UNL     1      -0.345   3.648   0.255  0.00  0.00    +0.254 A 
ATOM     31  N   UNL     1      -0.992   4.809   0.098  0.00  0.00    -0.216 NA
ATOM     32  C   UNL     1      -0.347   5.953   0.157  0.00  0.00    +0.044 A 
ATOM     33  C   UNL     1       1.033   5.975   0.387  0.00  0.00    +0.046 A 
ATOM     34  C   UNL     1       1.697   4.800   0.548  0.00  0.00    +0.045 A 
ATOM     35  N   UNL     1       1.003   3.635   0.481  0.00  0.00    -0.200 N 
ATOM     36  N   UNL     1       1.373   2.289   0.600  0.00  0.00    -0.137 NA
ATOM     37  C   UNL     1       3.183   4.791   0.797  0.00  0.00    +0.066 C 
ATOM     38  C   UNL     1      -1.098   7.247  -0.024  0.00  0.00    +0.066 C 
ENDBRANCH  27  28
ENDBRANCH  26  27
ENDBRANCH   2  26
TORSDOF 9
