REMARK  Name = ZINC63316586
REMARK  10 active torsions:
REMARK  status: ('A' for Active; 'I' for Inactive)
REMARK    1  A    between atoms: C_1  and  C_2
REMARK    2  A    between atoms: C_2  and  C_3
REMARK    3  A    between atoms: C_2  and  C_4
REMARK    4  A    between atoms: C_2  and  N_22
REMARK    5  A    between atoms: C_4  and  N_5
REMARK    6  A    between atoms: N_8  and  C_9
REMARK    7  A    between atoms: C_9  and  C_10
REMARK    8  A    between atoms: C_10  and  C_11
REMARK    9  A    between atoms: C_11  and  N_12
REMARK   10  A    between atoms: C_13  and  C_15
REMARK                            x       y       z     vdW  Elec       q    Type
REMARK                         _______ _______ _______ _____ _____    ______ ____
ROOT
ATOM      1  N   UNL     1      -1.390  -1.964  -0.383  0.00  0.00    -0.301 N 
ATOM      2  C   UNL     1      -2.527  -2.627  -0.672  0.00  0.00    +0.300 C 
ATOM      3  O   UNL     1      -3.577  -2.021  -0.769  0.00  0.00    -0.253 OA
ATOM      4  N   UNL     1      -2.501  -3.962  -0.854  0.00  0.00    -0.299 N 
ATOM      5  H   UNL     1      -0.553  -2.447  -0.306  0.00  0.00    +0.150 HD
ATOM      6  H   UNL     1      -1.663  -4.446  -0.777  0.00  0.00    +0.150 HD
ENDROOT
BRANCH   1   7
ATOM      7  C   UNL     1      -1.419  -0.512  -0.186  0.00  0.00    +0.093 C 
BRANCH   7   9
ATOM      8  C   UNL     1       0.812  -0.206  -1.269  0.00  0.00    -0.008 C 
ATOM      9  C   UNL     1       0.008   0.003   0.015  0.00  0.00    -0.055 C 
ATOM     10  C   UNL     1      -0.032   1.495   0.354  0.00  0.00    -0.008 C 
BRANCH   9  11
ATOM     11  N   UNL     1       0.643  -0.732   1.117  0.00  0.00    +0.384 N 
ATOM     12  C   UNL     1      -0.155  -0.569   2.337  0.00  0.00    -0.078 C 
ATOM     13  C   UNL     1       0.459  -1.399   3.467  0.00  0.00    -0.019 C 
ATOM     14  C   UNL     1       1.891  -0.922   3.724  0.00  0.00    -0.004 C 
ATOM     15  C   UNL     1       2.694  -1.027   2.425  0.00  0.00    -0.019 C 
ATOM     16  C   UNL     1       1.998  -0.211   1.333  0.00  0.00    -0.078 C 
ATOM     17  H   UNL     1       0.695  -1.712   0.880  0.00  0.00    -0.081 HD
ENDBRANCH   9  11
ENDBRANCH   7   9
ENDBRANCH   1   7
BRANCH   4  18
ATOM     18  C   UNL     1      -3.737  -4.684  -1.168  0.00  0.00    +0.107 C 
BRANCH  18  19
ATOM     19  C   UNL     1      -3.432  -6.175  -1.323  0.00  0.00    +0.037 C 
BRANCH  19  20
ATOM     20  C   UNL     1      -4.723  -6.928  -1.651  0.00  0.00    +0.106 C 
BRANCH  20  21
ATOM     21  N   UNL     1      -4.431  -8.356  -1.800  0.00  0.00    -0.311 N 
ATOM     22  C   UNL     1      -5.423  -9.220  -2.092  0.00  0.00    +0.247 C 
ATOM     23  O   UNL     1      -6.560  -8.814  -2.231  0.00  0.00    -0.270 OA
ATOM     24  H   UNL     1      -3.523  -8.679  -1.688  0.00  0.00    +0.149 HD
BRANCH  22  25
ATOM     25  C   UNL     1      -5.128 -10.659  -2.242  0.00  0.00    +0.072 A 
ATOM     26  C   UNL     1      -3.824 -11.130  -2.076  0.00  0.00    +0.016 A 
ATOM     27  C   UNL     1      -3.556 -12.474  -2.217  0.00  0.00    +0.001 A 
ATOM     28  C   UNL     1      -4.575 -13.360  -2.523  0.00  0.00    +0.003 A 
ATOM     29  C   UNL     1      -5.870 -12.904  -2.689  0.00  0.00    +0.039 A 
ATOM     30  C   UNL     1      -6.155 -11.559  -2.545  0.00  0.00    +0.135 A 
ATOM     31  F   UNL     1      -7.421 -11.114  -2.701  0.00  0.00    -0.205 F 
ENDBRANCH  22  25
ENDBRANCH  20  21
ENDBRANCH  19  20
ENDBRANCH  18  19
ENDBRANCH   4  18
TORSDOF 8
