REMARK  Name = ZINC16609229
REMARK  7 active torsions:
REMARK  status: ('A' for Active; 'I' for Inactive)
REMARK    1  A    between atoms: C_1  and  C_2
REMARK    2  A    between atoms: C_7  and  N_8
REMARK    3  A    between atoms: C_7  and  N_60
REMARK    4  A    between atoms: C_15  and  C_18
REMARK    5  A    between atoms: C_15  and  O_31
REMARK    6  A    between atoms: C_18  and  C_19
REMARK    7  A    between atoms: C_19  and  C_21
REMARK                            x       y       z     vdW  Elec       q    Type
REMARK                         _______ _______ _______ _____ _____    ______ ____
ROOT
ATOM      1  N   UNL     1       1.112   5.019   1.918  0.00  0.00    -0.285 N 
ATOM      2  C   UNL     1       2.268   5.275   1.179  0.00  0.00    +0.041 A 
ATOM      3  C   UNL     1       3.349   6.115   1.439  0.00  0.00    +0.024 A 
ATOM      4  C   UNL     1       4.391   6.201   0.540  0.00  0.00    +0.002 A 
ATOM      5  C   UNL     1       4.374   5.456  -0.625  0.00  0.00    +0.000 A 
ATOM      6  C   UNL     1       3.303   4.620  -0.891  0.00  0.00    +0.009 A 
ATOM      7  C   UNL     1       2.261   4.533   0.005  0.00  0.00    +0.014 A 
ATOM      8  C   UNL     1       0.977   3.736   0.013  0.00  0.00    +0.175 C 
ATOM      9  C   UNL     1       0.305   4.133   1.310  0.00  0.00    +0.255 C 
ATOM     10  O   UNL     1      -0.760   3.728   1.723  0.00  0.00    -0.272 OA
ENDROOT
BRANCH   8  11
ATOM     11  O   UNL     1       0.161   4.090  -1.105  0.00  0.00    -0.374 OA
ATOM     12  H   UNL     1      -0.689   3.630  -1.134  0.00  0.00    +0.211 HD
ENDBRANCH   8  11
BRANCH   1  13
ATOM     13  C   UNL     1       0.813   5.644   3.209  0.00  0.00    +0.038 C 
BRANCH  13  20
ATOM     14  C   UNL     1      -2.871   9.949   2.454  0.00  0.00    +0.007 C 
ATOM     15  C   UNL     1      -2.269   8.564   2.701  0.00  0.00    -0.018 C 
ATOM     16  C   UNL     1      -1.392   8.603   3.956  0.00  0.00    -0.015 C 
ATOM     17  C   UNL     1      -0.745   7.232   4.163  0.00  0.00    -0.076 C 
ATOM     18  C   UNL     1      -0.762   6.800   1.779  0.00  0.00    -0.076 C 
ATOM     19  C   UNL     1      -1.410   8.158   1.500  0.00  0.00    -0.015 C 
ATOM     20  N   UNL     1       0.087   6.912   2.984  0.00  0.00    +0.390 N 
ATOM     21  H   UNL     1       0.769   7.666   2.843  0.00  0.00    -0.080 HD
ENDBRANCH  13  20
ENDBRANCH   1  13
BRANCH   8  22
ATOM     22  C   UNL     1       1.277   2.236   0.002  0.00  0.00    +0.129 C 
BRANCH  22  23
ATOM     23  C   UNL     1      -0.018   1.464   0.010  0.00  0.00    +0.167 C 
ATOM     24  O   UNL     1      -1.076   2.057   0.018  0.00  0.00    -0.292 OA
BRANCH  23  25
ATOM     25  C   UNL     1       0.002  -0.004   0.002  0.00  0.00    +0.021 A 
ATOM     26  C   UNL     1       1.222  -0.690  -0.019  0.00  0.00    +0.015 A 
ATOM     27  C   UNL     1       1.237  -2.066  -0.022  0.00  0.00    +0.050 A 
ATOM     28  C   UNL     1       0.043  -2.780  -0.015  0.00  0.00    +0.162 A 
ATOM     29  C   UNL     1      -1.176  -2.105   0.003  0.00  0.00    +0.163 A 
ATOM     30  C   UNL     1      -1.199  -0.723   0.010  0.00  0.00    +0.060 A 
ATOM     31  O   UNL     1      -2.352  -2.790   0.018  0.00  0.00    -0.485 OA
ATOM     32  C   UNL     1      -2.298  -4.169  -0.363  0.00  0.00    +0.270 C 
ATOM     33  C   UNL     1      -1.113  -4.822   0.363  0.00  0.00    +0.270 C 
ATOM     34  O   UNL     1       0.083  -4.139  -0.027  0.00  0.00    -0.485 OA
ENDBRANCH  23  25
ENDBRANCH  22  23
ENDBRANCH   8  22
TORSDOF 6
