REMARK  Name = ZINC08890509
REMARK  8 active torsions:
REMARK  status: ('A' for Active; 'I' for Inactive)
REMARK    1  A    between atoms: C_1  and  C_2
REMARK    2  A    between atoms: C_2  and  N_3
REMARK    3  A    between atoms: C_7  and  C_9
REMARK    4  A    between atoms: C_9  and  O_10
REMARK    5  A    between atoms: O_10  and  C_11
REMARK    6  A    between atoms: C_11  and  C_13
REMARK    7  A    between atoms: C_24  and  C_34
REMARK    8  A    between atoms: C_28  and  C_29
REMARK                            x       y       z     vdW  Elec       q    Type
REMARK                         _______ _______ _______ _____ _____    ______ ____
ROOT
ATOM      1  C   UNL     1      -5.384  -7.665  -0.038  0.00  0.00    +0.073 A 
ATOM      2  C   UNL     1      -5.742  -8.376   1.190  0.00  0.00    +0.015 A 
ATOM      3  C   UNL     1      -5.804  -7.719   2.423  0.00  0.00    +0.011 A 
ATOM      4  C   UNL     1      -6.144  -8.418   3.544  0.00  0.00    +0.001 A 
ATOM      5  C   UNL     1      -6.430  -9.780   3.475  0.00  0.00    +0.002 A 
ATOM      6  C   UNL     1      -6.378 -10.450   2.292  0.00  0.00    +0.028 A 
ATOM      7  C   UNL     1      -6.031  -9.761   1.114  0.00  0.00    +0.072 A 
ATOM      8  N   UNL     1      -5.971 -10.390  -0.059  0.00  0.00    -0.247 NA
ATOM      9  C   UNL     1      -5.648  -9.771  -1.184  0.00  0.00    +0.072 A 
ATOM     10  C   UNL     1      -5.355  -8.395  -1.219  0.00  0.00    -0.007 A 
ATOM     11  C   UNL     1      -5.010  -7.688  -2.500  0.00  0.00    +0.041 C 
ATOM     12  C   UNL     1      -4.498  -8.668  -3.552  0.00  0.00    -0.005 C 
ATOM     13  C   UNL     1      -5.525  -9.791  -3.743  0.00  0.00    +0.041 C 
ATOM     14  C   UNL     1      -5.601 -10.556  -2.435  0.00  0.00    -0.018 C 
ATOM     15  C   UNL     1      -5.642 -11.905  -2.415  0.00  0.00    +0.052 C 
ATOM     16  C   UNL     1      -4.292  -7.933  -4.878  0.00  0.00    +0.008 C 
ENDROOT
BRANCH  15  17
ATOM     17  C   UNL     1      -5.779 -12.651  -3.666  0.00  0.00    +0.128 A 
ATOM     18  C   UNL     1      -5.702 -14.009  -3.803  0.00  0.00    +0.049 A 
ATOM     19  C   UNL     1      -5.889 -14.288  -5.168  0.00  0.00    +0.042 A 
ATOM     20  C   UNL     1      -6.070 -13.106  -5.794  0.00  0.00    +0.195 A 
ATOM     21  O   UNL     1      -6.009 -12.121  -4.884  0.00  0.00    -0.464 OA
ENDBRANCH  15  17
BRANCH   1  22
ATOM     22  C   UNL     1      -5.069  -6.222  -0.024  0.00  0.00    +0.341 C 
ATOM     23  O   UNL     1      -5.955  -5.405  -0.180  0.00  0.00    -0.245 OA
BRANCH  22  24
ATOM     24  O   UNL     1      -3.800  -5.811   0.163  0.00  0.00    -0.452 OA
BRANCH  24  25
ATOM     25  C   UNL     1      -3.568  -4.400   0.166  0.00  0.00    +0.328 C 
BRANCH  25  30
ATOM     26  N   UNL     1       0.119  -1.357   0.665  0.00  0.00    -0.299 N 
ATOM     27  C   UNL     1      -0.336  -2.625   0.624  0.00  0.00    +0.306 C 
ATOM     28  O   UNL     1       0.437  -3.552   0.765  0.00  0.00    -0.252 OA
ATOM     29  N   UNL     1      -1.647  -2.864   0.427  0.00  0.00    -0.237 N 
ATOM     30  C   UNL     1      -2.102  -4.133   0.386  0.00  0.00    +0.258 C 
ATOM     31  O   UNL     1      -1.331  -5.058   0.527  0.00  0.00    -0.272 OA
ATOM     32  H   UNL     1      -0.497  -0.617   0.552  0.00  0.00    +0.150 HD
ATOM     33  H   UNL     1      -2.264  -2.124   0.314  0.00  0.00    +0.159 HD
BRANCH  26  35
ATOM     34  C   UNL     1       1.793   0.413   0.882  0.00  0.00    +0.024 C 
ATOM     35  C   UNL     1       1.545  -1.096   0.879  0.00  0.00    +0.102 C 
ENDBRANCH  26  35
ENDBRANCH  25  30
ENDBRANCH  24  25
ENDBRANCH  22  24
ENDBRANCH   1  22
TORSDOF 6
