REMARK  Name = ZINC39531161
REMARK  8 active torsions:
REMARK  status: ('A' for Active; 'I' for Inactive)
REMARK    1  A    between atoms: C_4  and  C_7
REMARK    2  A    between atoms: C_7  and  C_8
REMARK    3  A    between atoms: C_11  and  C_14
REMARK    4  A    between atoms: C_14  and  C_16
REMARK    5  A    between atoms: C_14  and  N_19
REMARK    6  A    between atoms: C_16  and  N_17
REMARK    7  A    between atoms: N_17  and  O_18
REMARK    8  A    between atoms: C_23  and  O_26
REMARK                            x       y       z     vdW  Elec       q    Type
REMARK                         _______ _______ _______ _____ _____    ______ ____
ROOT
ATOM      1  C   UNL     1       5.450  -1.675   5.388  0.00  0.00    +0.103 C 
ENDROOT
BRANCH   1   2
ATOM      2  N   UNL     1       4.312  -2.321   6.056  0.00  0.00    -0.295 NA
ATOM      3  C   UNL     1       4.248  -1.940   7.474  0.00  0.00    +0.066 C 
ATOM      4  C   UNL     1       3.018  -2.584   8.117  0.00  0.00    -0.063 C 
ATOM      5  N   UNL     1       3.108  -4.045   7.989  0.00  0.00    +0.398 N 
ATOM      6  C   UNL     1       3.146  -4.412   6.567  0.00  0.00    +0.073 C 
ATOM      7  C   UNL     1       4.377  -3.782   5.911  0.00  0.00    +0.096 C 
ATOM      8  H   UNL     1       3.947  -4.372   8.443  0.00  0.00    -0.082 HD
ATOM      9  H   UNL     1       2.303  -4.470   8.424  0.00  0.00    -0.082 HD
BRANCH   6  10
ATOM     10  O   UNL     1       3.216  -5.834   6.444  0.00  0.00    -0.409 OA
ATOM     11  H   UNL     1       2.466  -6.300   6.838  0.00  0.00    +0.207 HD
ENDBRANCH   6  10
ENDBRANCH   1   2
BRANCH   1  15
ATOM     12  C   UNL     1       4.391  -0.739   1.356  0.00  0.00    -0.043 A 
ATOM     13  C   UNL     1       5.054   0.194   2.131  0.00  0.00    +0.004 A 
ATOM     14  C   UNL     1       5.397  -0.109   3.436  0.00  0.00    +0.005 A 
ATOM     15  C   UNL     1       5.076  -1.344   3.966  0.00  0.00    -0.029 A 
ATOM     16  C   UNL     1       4.412  -2.277   3.191  0.00  0.00    +0.005 A 
ATOM     17  C   UNL     1       4.066  -1.973   1.888  0.00  0.00    +0.004 A 
BRANCH  12  18
ATOM     18  C   UNL     1       4.018  -0.409  -0.066  0.00  0.00    +0.070 C 
BRANCH  18  22
ATOM     19  C   UNL     1       0.140   1.380  -0.144  0.00  0.00    +0.000 A 
ATOM     20  C   UNL     1       1.264   2.173  -0.010  0.00  0.00    +0.000 A 
ATOM     21  C   UNL     1       2.519   1.594   0.016  0.00  0.00    +0.004 A 
ATOM     22  C   UNL     1       2.650   0.222  -0.093  0.00  0.00    -0.043 A 
ATOM     23  C   UNL     1       1.526  -0.571  -0.226  0.00  0.00    +0.004 A 
ATOM     24  C   UNL     1       0.271   0.008  -0.253  0.00  0.00    +0.000 A 
ENDBRANCH  18  22
ENDBRANCH  12  18
ENDBRANCH   1  15
BRANCH   1  25
ATOM     25  C   UNL     1       6.650  -2.624   5.392  0.00  0.00    +0.134 C 
BRANCH  25  26
ATOM     26  N   UNL     1       6.976  -2.994   6.776  0.00  0.00    -0.202 NA
ATOM     27  H   UNL     1       7.144  -2.175   7.340  0.00  0.00    +0.154 HD
BRANCH  26  28
ATOM     28  O   UNL     1       8.122  -3.904   6.819  0.00  0.00    -0.315 OA
ATOM     29  H   UNL     1       8.374  -4.176   7.711  0.00  0.00    +0.236 HD
ENDBRANCH  26  28
ENDBRANCH  25  26
ENDBRANCH   1  25
TORSDOF 8
