REMARK  Name = ZINC34256007
REMARK  9 active torsions:
REMARK  status: ('A' for Active; 'I' for Inactive)
REMARK    1  A    between atoms: C_1  and  C_2
REMARK    2  A    between atoms: C_2  and  C_4
REMARK    3  A    between atoms: C_2  and  O_33
REMARK    4  A    between atoms: C_4  and  C_30
REMARK    5  A    between atoms: C_9  and  C_12
REMARK    6  A    between atoms: N_23  and  C_26
REMARK    7  A    between atoms: C_26  and  C_27
REMARK    8  A    between atoms: C_26  and  C_28
REMARK    9  A    between atoms: C_26  and  C_29
REMARK                            x       y       z     vdW  Elec       q    Type
REMARK                         _______ _______ _______ _____ _____    ______ ____
ROOT
ATOM      1  C   UNL     1       0.742  -0.511   1.242  0.00  0.00    +0.074 C 
ATOM      2  C   UNL     1       0.933  -2.016   1.161  0.00  0.00    +0.088 C 
ATOM      3  C   UNL     1       2.271  -2.037   0.326  0.00  0.00    +0.077 C 
ATOM      4  C   UNL     1       3.100  -1.062   1.055  0.00  0.00    -0.025 C 
ATOM      5  N   UNL     1       2.119   0.066   1.293  0.00  0.00    +0.397 N 
ATOM      6  C   UNL     1       2.313  -3.406  -0.125  0.00  0.00    +0.225 C 
ATOM      7  O   UNL     1       3.294  -4.096  -0.295  0.00  0.00    -0.275 OA
ATOM      8  N   UNL     1       1.000  -3.757  -0.321  0.00  0.00    -0.236 N 
ATOM      9  C   UNL     1       0.115  -2.859   0.233  0.00  0.00    +0.225 C 
ATOM     10  O   UNL     1      -1.074  -2.763   0.016  0.00  0.00    -0.275 OA
ATOM     11  H   UNL     1       2.221   0.772   0.579  0.00  0.00    -0.083 HD
ATOM     12  H   UNL     1       2.287   0.471   2.201  0.00  0.00    -0.083 HD
ENDROOT
BRANCH   4  13
ATOM     13  C   UNL     1       3.602  -1.647   2.350  0.00  0.00    -0.039 A 
ATOM     14  C   UNL     1       2.908  -1.424   3.524  0.00  0.00    +0.023 A 
ATOM     15  C   UNL     1       3.369  -1.961   4.713  0.00  0.00    +0.043 A 
ATOM     16  C   UNL     1       4.524  -2.721   4.727  0.00  0.00    +0.041 A 
ATOM     17  C   UNL     1       5.219  -2.946   3.552  0.00  0.00    +0.061 A 
ATOM     18  C   UNL     1       4.754  -2.412   2.362  0.00  0.00    +0.061 A 
ATOM     19 CL   UNL     1       5.622  -2.699   0.885  0.00  0.00    -0.082 Cl
ATOM     20 CL   UNL     1       6.669  -3.899   3.570  0.00  0.00    -0.082 Cl
ATOM     21 CL   UNL     1       2.497  -1.679   6.188  0.00  0.00    -0.083 Cl
ENDBRANCH   4  13
BRANCH   8  22
ATOM     22  C   UNL     1       0.581  -4.965  -1.036  0.00  0.00    +0.036 C 
ATOM     23  C   UNL     1       1.818  -5.735  -1.505  0.00  0.00    +0.031 C 
ATOM     24  C   UNL     1      -0.246  -5.850  -0.101  0.00  0.00    +0.031 C 
ATOM     25  C   UNL     1      -0.266  -4.573  -2.248  0.00  0.00    +0.031 C 
ENDBRANCH   8  22
BRANCH   1  26
ATOM     26  C   UNL     1      -0.022  -0.147   2.489  0.00  0.00    +0.349 C 
ATOM     27  O   UNL     1      -1.154  -0.567   2.654  0.00  0.00    -0.248 OA
ATOM     28  O   UNL     1       0.493   0.567   3.332  0.00  0.00    -0.248 OA
ENDBRANCH   1  26
BRANCH   1  30
ATOM     29  C   UNL     1      -0.019   1.526   0.010  0.00  0.00    +0.037 C 
ATOM     30  C   UNL     1       0.002  -0.004   0.002  0.00  0.00    +0.112 C 
BRANCH  30  31
ATOM     31  O   UNL     1      -1.339  -0.499   0.012  0.00  0.00    -0.393 OA
ATOM     32  H   UNL     1      -1.853  -0.225   0.784  0.00  0.00    +0.210 HD
ENDBRANCH  30  31
ENDBRANCH   1  30
TORSDOF 5
