REMARK  Name = ZINC61487620
REMARK  4 active torsions:
REMARK  status: ('A' for Active; 'I' for Inactive)
REMARK    1  A    between atoms: C_1  and  C_2
REMARK    2  A    between atoms: C_2  and  C_3
REMARK    3  A    between atoms: C_3  and  C_5
REMARK    4  A    between atoms: N_7  and  C_8
REMARK                            x       y       z     vdW  Elec       q    Type
REMARK                         _______ _______ _______ _____ _____    ______ ____
ROOT
ATOM      1  C   UNL     1      -2.201  -4.042   1.196  0.00  0.00    +0.037 A 
ATOM      2  C   UNL     1      -1.271  -4.816   0.516  0.00  0.00    +0.027 A 
ATOM      3  C   UNL     1      -1.224  -6.181   0.721  0.00  0.00    +0.051 A 
ATOM      4  C   UNL     1      -2.105  -6.782   1.605  0.00  0.00    +0.173 A 
ATOM      5  C   UNL     1      -3.040  -6.008   2.289  0.00  0.00    +0.174 A 
ATOM      6  C   UNL     1      -3.082  -4.638   2.087  0.00  0.00    +0.073 A 
ATOM      7  O   UNL     1      -3.783  -6.827   3.090  0.00  0.00    -0.395 OA
ATOM      8  C   UNL     1      -3.567  -8.158   2.584  0.00  0.00    +0.589 C 
ATOM      9  O   UNL     1      -2.263  -8.086   1.978  0.00  0.00    -0.395 OA
ATOM     10  F   UNL     1      -4.536  -8.483   1.629  0.00  0.00    -0.125 F 
ATOM     11  F   UNL     1      -3.574  -9.087   3.630  0.00  0.00    -0.125 F 
ENDROOT
BRANCH   1  14
ATOM     12  C   UNL     1      -3.424  -2.004   1.051  0.00  0.00    +0.231 C 
ATOM     13  O   UNL     1      -4.456  -2.627   1.194  0.00  0.00    -0.274 OA
ATOM     14  N   UNL     1      -2.247  -2.657   0.987  0.00  0.00    -0.284 N 
ATOM     15  H   UNL     1      -1.431  -2.168   0.796  0.00  0.00    +0.155 HD
BRANCH  12  16
ATOM     16  C   UNL     1      -3.460  -0.501   0.944  0.00  0.00    +0.142 C 
ATOM     17 BR   UNL     1      -3.784   0.274   2.722  0.00  0.00    -0.078 Br
BRANCH  16  19
ATOM     18  C   UNL     1      -4.540   1.432  -0.212  0.00  0.00    +0.005 C 
ATOM     19  C   UNL     1      -4.583  -0.084  -0.007  0.00  0.00    +0.021 C 
ENDBRANCH  16  19
ENDBRANCH  12  16
ENDBRANCH   1  14
TORSDOF 3
