REMARK  Name = ZINC37409797
REMARK  6 active torsions:
REMARK  status: ('A' for Active; 'I' for Inactive)
REMARK    1  A    between atoms: C_1  and  C_2
REMARK    2  A    between atoms: C_7  and  N_12
REMARK    3  A    between atoms: C_9  and  C_11
REMARK    4  A    between atoms: C_13  and  C_15
REMARK    5  A    between atoms: C_15  and  C_35
REMARK    6  A    between atoms: N_27  and  C_28
REMARK                            x       y       z     vdW  Elec       q    Type
REMARK                         _______ _______ _______ _____ _____    ______ ____
ROOT
ATOM      1  C   UNL     1       1.753  -3.970   3.841  0.00  0.00    +0.133 C 
ATOM      2  C   UNL     1       1.089  -5.215   4.429  0.00  0.00    +0.158 C 
ATOM      3  N   UNL     1       0.098  -4.805   5.429  0.00  0.00    -0.331 N 
ATOM      4  C   UNL     1      -1.056  -5.414   5.819  0.00  0.00    +0.088 A 
ATOM      5  C   UNL     1      -1.921  -6.519   5.632  0.00  0.00    +0.067 A 
ATOM      6  C   UNL     1      -2.946  -6.374   6.491  0.00  0.00    +0.198 A 
ATOM      7  O   UNL     1      -2.776  -5.248   7.204  0.00  0.00    -0.461 OA
ATOM      8  C   UNL     1      -1.636  -4.635   6.820  0.00  0.00    +0.153 A 
ATOM      9  C   UNL     1      -0.806  -3.523   7.027  0.00  0.00    +0.079 A 
ATOM     10  C   UNL     1       0.247  -3.633   6.167  0.00  0.00    +0.109 A 
ATOM     11  C   UNL     1       1.393  -2.744   5.943  0.00  0.00    +0.268 C 
ATOM     12  O   UNL     1       1.636  -1.811   6.686  0.00  0.00    -0.268 OA
ATOM     13  N   UNL     1       2.166  -3.018   4.865  0.00  0.00    -0.250 N 
ATOM     14  C   UNL     1       2.983  -4.400   3.040  0.00  0.00    +0.044 C 
ENDROOT
BRANCH  13  15
ATOM     15  C   UNL     1       3.397  -2.368   4.731  0.00  0.00    +0.041 A 
ATOM     16  C   UNL     1       3.441  -1.033   4.348  0.00  0.00    +0.024 A 
ATOM     17  C   UNL     1       4.657  -0.394   4.215  0.00  0.00    +0.005 A 
ATOM     18  C   UNL     1       5.832  -1.079   4.463  0.00  0.00    +0.038 A 
ATOM     19  C   UNL     1       5.793  -2.410   4.844  0.00  0.00    +0.125 A 
ATOM     20  C   UNL     1       4.577  -3.054   4.985  0.00  0.00    +0.062 A 
ATOM     21  F   UNL     1       6.943  -3.078   5.085  0.00  0.00    -0.205 F 
ENDBRANCH  13  15
BRANCH   1  23
ATOM     22  N   UNL     1       0.929  -1.986   2.614  0.00  0.00    -0.310 N 
ATOM     23  C   UNL     1       0.780  -3.293   2.911  0.00  0.00    +0.239 C 
ATOM     24  O   UNL     1      -0.137  -3.923   2.428  0.00  0.00    -0.273 OA
ATOM     25  H   UNL     1       1.662  -1.482   3.000  0.00  0.00    +0.149 HD
BRANCH  22  31
ATOM     26  C   UNL     1      -1.058   2.362   1.355  0.00  0.00    +0.008 C 
ATOM     27  C   UNL     1      -1.031   0.861   1.060  0.00  0.00    -0.009 C 
ATOM     28  C   UNL     1      -0.595   0.633  -0.389  0.00  0.00    +0.003 C 
ATOM     29  C   UNL     1      -0.568  -0.868  -0.683  0.00  0.00    +0.002 C 
ATOM     30  C   UNL     1       0.420  -1.556   0.261  0.00  0.00    +0.022 C 
ATOM     31  C   UNL     1      -0.017  -1.328   1.710  0.00  0.00    +0.076 C 
ATOM     32  C   UNL     1      -0.044   0.173   2.005  0.00  0.00    +0.009 C 
ATOM     33  C   UNL     1      -0.480   0.401   3.453  0.00  0.00    +0.009 C 
ENDBRANCH  22  31
ENDBRANCH   1  23
TORSDOF 3
