REMARK  Name = ZINC39998029
REMARK  11 active torsions:
REMARK  status: ('A' for Active; 'I' for Inactive)
REMARK    1  A    between atoms: C_1  and  C_2
REMARK    2  A    between atoms: C_2  and  C_3
REMARK    3  A    between atoms: C_3  and  S_4
REMARK    4  A    between atoms: S_4  and  C_5
REMARK    5  A    between atoms: C_8  and  N_10
REMARK    6  A    between atoms: C_11  and  C_13
REMARK    7  A    between atoms: C_13  and  C_35
REMARK    8  A    between atoms: C_14  and  C_15
REMARK    9  A    between atoms: N_17  and  C_29
REMARK   10  A    between atoms: C_19  and  C_20
REMARK   11  A    between atoms: C_24  and  N_26
REMARK                            x       y       z     vdW  Elec       q    Type
REMARK                         _______ _______ _______ _____ _____    ______ ____
ROOT
ATOM      1  C   UNL     1       5.726  -4.685  -9.846  0.00  0.00    +0.022 A 
ATOM      2  C   UNL     1       5.758  -6.079  -9.893  0.00  0.00    +0.123 A 
ATOM      3  N   UNL     1       6.486  -6.432 -10.961  0.00  0.00    -0.239 N 
ATOM      4  N   UNL     1       6.941  -5.291 -11.627  0.00  0.00    -0.166 NA
ATOM      5  C   UNL     1       6.509  -4.220 -11.005  0.00  0.00    +0.100 A 
ENDROOT
BRANCH   5   6
ATOM      6  C   UNL     1       6.764  -2.813 -11.390  0.00  0.00    +0.005 A 
ATOM      7  C   UNL     1       5.786  -1.841 -11.179  0.00  0.00    +0.010 A 
ATOM      8  C   UNL     1       6.029  -0.532 -11.540  0.00  0.00    +0.003 A 
ATOM      9  C   UNL     1       7.240  -0.182 -12.111  0.00  0.00    +0.033 A 
ATOM     10  C   UNL     1       8.214  -1.141 -12.322  0.00  0.00    +0.127 A 
ATOM     11  C   UNL     1       7.984  -2.453 -11.961  0.00  0.00    +0.042 A 
BRANCH  10  12
ATOM     12  N   UNL     1       9.507  -0.759 -12.933  0.00  0.00    +0.056 N 
ATOM     13  O   UNL     1       9.729   0.493 -13.275  0.00  0.00    -0.126 OA
ATOM     14  O   UNL     1      10.435  -1.671 -13.136  0.00  0.00    -0.126 OA
ENDBRANCH  10  12
ENDBRANCH   5   6
BRANCH   3  15
ATOM     15  C   UNL     1       6.753  -7.750 -11.351  0.00  0.00    +0.065 A 
ATOM     16  C   UNL     1       6.243  -8.811 -10.614  0.00  0.00    +0.028 A 
ATOM     17  C   UNL     1       6.508 -10.110 -11.001  0.00  0.00    +0.002 A 
ATOM     18  C   UNL     1       7.280 -10.355 -12.122  0.00  0.00    +0.000 A 
ATOM     19  C   UNL     1       7.789  -9.301 -12.859  0.00  0.00    +0.002 A 
ATOM     20  C   UNL     1       7.523  -8.000 -12.480  0.00  0.00    +0.028 A 
ENDBRANCH   3  15
BRANCH   1  22
ATOM     21  C   UNL     1       4.083  -4.440  -8.071  0.00  0.00    +0.119 C 
ATOM     22  C   UNL     1       5.073  -3.884  -8.889  0.00  0.00    +0.036 C 
BRANCH  21  24
ATOM     23  N   UNL     1       2.585  -4.214  -6.235  0.00  0.00    -0.180 NA
ATOM     24  C   UNL     1       3.533  -3.682  -7.018  0.00  0.00    +0.290 C 
ATOM     25  O   UNL     1       3.960  -2.423  -6.799  0.00  0.00    -0.264 OA
BRANCH  23  29
ATOM     26  C   UNL     1       0.782  -2.496  -3.213  0.00  0.00    +0.160 A 
ATOM     27  N   UNL     1       1.720  -1.750  -3.865  0.00  0.00    -0.133 NA
ATOM     28  N   UNL     1       2.354  -2.220  -4.853  0.00  0.00    -0.120 NA
ATOM     29  C   UNL     1       2.070  -3.505  -5.249  0.00  0.00    +0.219 A 
ATOM     30  S   UNL     1       0.816  -3.953  -4.059  0.00  0.00    -0.020 S 
BRANCH  26  31
ATOM     31  S   UNL     1      -0.153  -2.076  -1.908  0.00  0.00    -0.097 S 
BRANCH  31  32
ATOM     32  C   UNL     1       0.348  -0.372  -1.539  0.00  0.00    +0.076 C 
BRANCH  32  34
ATOM     33  C   UNL     1      -0.025   1.583  -0.028  0.00  0.00    +0.004 C 
ATOM     34  C   UNL     1      -0.448   0.146  -0.339  0.00  0.00    +0.008 C 
ENDBRANCH  32  34
ENDBRANCH  31  32
ENDBRANCH  26  31
ENDBRANCH  23  29
ENDBRANCH  21  24
BRANCH  21  35
ATOM     35  C   UNL     1       3.629  -5.778  -8.304  0.00  0.00    +0.105 C 
ATOM     36  N   UNL     1       3.268  -6.839  -8.489  0.00  0.00    -0.191 NA
ENDBRANCH  21  35
ENDBRANCH   1  22
TORSDOF 10
