REMARK  Name = ZINC63710870
REMARK  10 active torsions:
REMARK  status: ('A' for Active; 'I' for Inactive)
REMARK    1  A    between atoms: C_1  and  C_2
REMARK    2  A    between atoms: C_2  and  C_3
REMARK    3  A    between atoms: C_2  and  N_4
REMARK    4  A    between atoms: C_8  and  C_10
REMARK    5  A    between atoms: C_10  and  N_11
REMARK    6  A    between atoms: C_12  and  C_14
REMARK    7  A    between atoms: C_14  and  C_15
REMARK    8  A    between atoms: C_14  and  C_16
REMARK    9  A    between atoms: C_14  and  N_17
REMARK   10  A    between atoms: N_20  and  C_21
REMARK                            x       y       z     vdW  Elec       q    Type
REMARK                         _______ _______ _______ _____ _____    ______ ____
ROOT
ATOM      1  N   UNL     1      -5.700  -0.320  -2.272  0.00  0.00    -0.313 N 
ATOM      2  C   UNL     1      -6.548   0.029  -3.260  0.00  0.00    +0.236 C 
ATOM      3  O   UNL     1      -6.136   0.626  -4.231  0.00  0.00    -0.273 OA
ATOM      4  H   UNL     1      -6.030  -0.798  -1.495  0.00  0.00    +0.149 HD
ENDROOT
BRANCH   2   5
ATOM      5  C   UNL     1      -8.010  -0.323  -3.156  0.00  0.00    +0.106 C 
ATOM      6  C   UNL     1      -8.738   0.754  -2.349  0.00  0.00    +0.041 C 
ATOM      7  C   UNL     1      -8.615  -0.406  -4.559  0.00  0.00    +0.041 C 
BRANCH   5   8
ATOM      8  N   UNL     1      -8.155  -1.617  -2.486  0.00  0.00    -0.286 N 
ATOM      9  C   UNL     1      -9.381  -2.137  -2.281  0.00  0.00    +0.300 C 
ATOM     10  O   UNL     1     -10.368  -1.532  -2.654  0.00  0.00    -0.253 OA
ATOM     11  N   UNL     1      -9.514  -3.328  -1.664  0.00  0.00    -0.302 N 
ATOM     12  C   UNL     1     -10.847  -3.893  -1.442  0.00  0.00    +0.129 C 
ATOM     13  H   UNL     1      -7.368  -2.100  -2.188  0.00  0.00    +0.151 HD
ATOM     14  H   UNL     1      -8.727  -3.811  -1.367  0.00  0.00    +0.150 HD
ENDBRANCH   5   8
ENDBRANCH   2   5
BRANCH   1  15
ATOM     15  C   UNL     1      -4.279   0.022  -2.373  0.00  0.00    +0.106 C 
BRANCH  15  20
ATOM     16  N   UNL     1      -1.376  -0.512   0.012  0.00  0.00    +0.381 N 
ATOM     17  C   UNL     1      -1.355  -1.980   0.013  0.00  0.00    -0.078 C 
ATOM     18  C   UNL     1      -2.785  -2.515   0.106  0.00  0.00    -0.018 C 
ATOM     19  C   UNL     1      -3.590  -2.015  -1.097  0.00  0.00    +0.001 C 
ATOM     20  C   UNL     1      -3.543  -0.485  -1.130  0.00  0.00    -0.011 C 
ATOM     21  C   UNL     1      -2.085  -0.025  -1.177  0.00  0.00    -0.074 C 
ATOM     22  H   UNL     1      -1.848  -0.185   0.842  0.00  0.00    -0.081 HD
BRANCH  16  24
ATOM     23  C   UNL     1      -0.019   1.526   0.010  0.00  0.00    -0.014 C 
ATOM     24  C   UNL     1       0.002  -0.004   0.002  0.00  0.00    -0.075 C 
ATOM     25  C   UNL     1       0.742  -0.511   1.242  0.00  0.00    -0.014 C 
ENDBRANCH  16  24
ENDBRANCH  15  20
ENDBRANCH   1  15
TORSDOF 5
