REMARK  Name = ZINC09720776
REMARK  8 active torsions:
REMARK  status: ('A' for Active; 'I' for Inactive)
REMARK    1  A    between atoms: C_3  and  N_14
REMARK    2  A    between atoms: C_4  and  N_11
REMARK    3  A    between atoms: C_6  and  C_7
REMARK    4  A    between atoms: N_14  and  C_15
REMARK    5  A    between atoms: C_15  and  C_16
REMARK    6  A    between atoms: C_16  and  N_17
REMARK    7  A    between atoms: C_18  and  C_19
REMARK    8  A    between atoms: C_24  and  O_25
REMARK                            x       y       z     vdW  Elec       q    Type
REMARK                         _______ _______ _______ _____ _____    ______ ____
ROOT
ATOM      1  N   UNL     1      -4.242   0.018   1.551  0.00  0.00    -0.340 N 
ATOM      2  H   UNL     1      -4.526  -0.620   0.701  0.00  0.00    +0.146 HD
ENDROOT
BRANCH   1   5
ATOM      3  C   UNL     1      -5.722   1.314   4.655  0.00  0.00    +0.014 A 
ATOM      4  C   UNL     1      -4.793   1.020   3.677  0.00  0.00    +0.026 A 
ATOM      5  C   UNL     1      -5.179   0.318   2.542  0.00  0.00    +0.058 A 
ATOM      6  C   UNL     1      -6.502  -0.081   2.393  0.00  0.00    +0.147 A 
ATOM      7  C   UNL     1      -7.425   0.212   3.378  0.00  0.00    +0.047 A 
ATOM      8  C   UNL     1      -7.036   0.911   4.506  0.00  0.00    +0.057 A 
BRANCH   8   9
ATOM      9  C   UNL     1      -8.047   1.235   5.576  0.00  0.00    +0.417 C 
ATOM     10  F   UNL     1      -7.423   1.942   6.609  0.00  0.00    -0.166 F 
ATOM     11  F   UNL     1      -9.071   2.016   5.028  0.00  0.00    -0.166 F 
ATOM     12  F   UNL     1      -8.587   0.047   6.082  0.00  0.00    -0.166 F 
ENDBRANCH   8   9
BRANCH   6  13
ATOM     13  N   UNL     1      -6.920  -0.824   1.183  0.00  0.00    +0.058 N 
ATOM     14  O   UNL     1      -6.445  -0.538   0.099  0.00  0.00    -0.126 OA
ATOM     15  O   UNL     1      -7.739  -1.721   1.272  0.00  0.00    -0.126 OA
ENDBRANCH   6  13
ENDBRANCH   1   5
BRANCH   1  16
ATOM     16  C   UNL     1      -2.882   0.553   1.644  0.00  0.00    +0.122 C 
BRANCH  16  17
ATOM     17  C   UNL     1      -2.064   0.078   0.441  0.00  0.00    +0.131 C 
BRANCH  17  18
ATOM     18  N   UNL     1      -0.703   0.613   0.534  0.00  0.00    -0.388 N 
ATOM     19  C   UNL     1       0.299  -0.191   0.690  0.00  0.00    +0.090 C 
ATOM     20  H   UNL     1      -0.533   1.698   0.470  0.00  0.00    +0.159 HD
BRANCH  19  21
ATOM     21  C   UNL     1       1.669   0.347   0.777  0.00  0.00    +0.033 A 
ATOM     22  C   UNL     1       2.754  -0.518   0.941  0.00  0.00    +0.028 A 
ATOM     23  C   UNL     1       4.033  -0.008   1.022  0.00  0.00    +0.019 A 
ATOM     24  C   UNL     1       4.246   1.359   0.942  0.00  0.00    +0.019 A 
ATOM     25  C   UNL     1       3.182   2.224   0.780  0.00  0.00    +0.047 A 
ATOM     26  C   UNL     1       1.890   1.728   0.691  0.00  0.00    +0.125 A 
ATOM     27 BR   UNL     1       5.501  -1.179   1.242  0.00  0.00    -0.050 Br
BRANCH  26  28
ATOM     28  O   UNL     1       0.844   2.577   0.526  0.00  0.00    -0.506 OA
ATOM     29  H   UNL     1       1.020   3.661   0.459  0.00  0.00    +0.292 HD
ENDBRANCH  26  28
ENDBRANCH  19  21
ENDBRANCH  17  18
ENDBRANCH  16  17
ENDBRANCH   1  16
TORSDOF 8
