REMARK  Name = ZINC43109713
REMARK  12 active torsions:
REMARK  status: ('A' for Active; 'I' for Inactive)
REMARK    1  A    between atoms: C_1  and  C_2
REMARK    2  A    between atoms: C_2  and  O_3
REMARK    3  A    between atoms: O_3  and  C_4
REMARK    4  A    between atoms: C_9  and  O_10
REMARK    5  A    between atoms: O_10  and  C_11
REMARK    6  A    between atoms: C_11  and  C_12
REMARK    7  A    between atoms: N_14  and  N_15
REMARK    8  A    between atoms: N_18  and  C_19
REMARK    9  A    between atoms: C_19  and  C_20
REMARK   10  A    between atoms: C_20  and  N_26
REMARK   11  A    between atoms: N_26  and  C_27
REMARK   12  A    between atoms: N_26  and  C_28
REMARK                            x       y       z     vdW  Elec       q    Type
REMARK                         _______ _______ _______ _____ _____    ______ ____
ROOT
ATOM      1  N   UNL     1       3.900  -0.535  -7.310  0.00  0.00    -0.218 N 
ATOM      2  C   UNL     1       4.563  -0.814  -8.450  0.00  0.00    +0.316 C 
ATOM      3  O   UNL     1       4.939   0.090  -9.171  0.00  0.00    -0.251 OA
ATOM      4  N   UNL     1       4.810  -2.094  -8.791  0.00  0.00    -0.300 N 
ATOM      5  H   UNL     1       3.723   0.386  -7.065  0.00  0.00    +0.174 HD
ATOM      6  H   UNL     1       4.510  -2.816  -8.216  0.00  0.00    +0.150 HD
ENDROOT
BRANCH   1   9
ATOM      7  C   UNL     1       2.805  -1.299  -5.340  0.00  0.00    +0.267 C 
ATOM      8  O   UNL     1       2.583  -0.147  -5.033  0.00  0.00    -0.271 OA
ATOM      9  N   UNL     1       3.467  -1.577  -6.480  0.00  0.00    -0.230 N 
ATOM     10  H   UNL     1       3.645  -2.499  -6.725  0.00  0.00    +0.173 HD
BRANCH   7  11
ATOM     11  C   UNL     1       2.339  -2.420  -4.446  0.00  0.00    +0.326 C 
BRANCH  11  12
ATOM     12  O   UNL     1       1.667  -1.874  -3.309  0.00  0.00    -0.479 OA
BRANCH  12  18
ATOM     13  C   UNL     1       0.515  -2.296  -1.265  0.00  0.00    +0.162 A 
ATOM     14  C   UNL     1       0.017  -3.201  -0.341  0.00  0.00    +0.049 A 
ATOM     15  C   UNL     1       0.186  -4.558  -0.542  0.00  0.00    +0.004 A 
ATOM     16  C   UNL     1       0.852  -5.016  -1.664  0.00  0.00    +0.004 A 
ATOM     17  C   UNL     1       1.352  -4.119  -2.589  0.00  0.00    +0.049 A 
ATOM     18  C   UNL     1       1.181  -2.758  -2.397  0.00  0.00    +0.163 A 
BRANCH  13  19
ATOM     19  O   UNL     1       0.350  -0.961  -1.069  0.00  0.00    -0.489 OA
BRANCH  19  21
ATOM     20  C   UNL     1      -0.431   0.967   0.162  0.00  0.00    +0.048 C 
ATOM     21  C   UNL     1      -0.343  -0.560   0.115  0.00  0.00    +0.226 C 
ENDBRANCH  19  21
ENDBRANCH  13  19
ENDBRANCH  12  18
ENDBRANCH  11  12
ENDBRANCH   7  11
ENDBRANCH   1   9
BRANCH   4  22
ATOM     22  C   UNL     1       5.530  -2.397 -10.030  0.00  0.00    +0.094 C 
BRANCH  22  23
ATOM     23  C   UNL     1       5.801  -3.900 -10.109  0.00  0.00    -0.050 C 
ATOM     24  C   UNL     1       6.665  -4.200 -11.336  0.00  0.00    -0.010 C 
ATOM     25  C   UNL     1       5.930  -3.748 -12.599  0.00  0.00    -0.001 C 
ATOM     26  C   UNL     1       4.602  -4.500 -12.714  0.00  0.00    -0.000 C 
ATOM     27  C   UNL     1       3.739  -4.201 -11.487  0.00  0.00    -0.001 C 
ATOM     28  C   UNL     1       4.474  -4.653 -10.223  0.00  0.00    -0.010 C 
BRANCH  23  29
ATOM     29  N   UNL     1       6.507  -4.334  -8.896  0.00  0.00    +0.381 N 
ATOM     30  C   UNL     1       6.799  -5.771  -8.987  0.00  0.00    -0.096 C 
ATOM     31  C   UNL     1       7.765  -3.587  -8.767  0.00  0.00    -0.096 C 
ATOM     32  H   UNL     1       5.928  -4.159  -8.089  0.00  0.00    -0.082 HD
ENDBRANCH  23  29
ENDBRANCH  22  23
ENDBRANCH   4  22
TORSDOF 9
