REMARK  Name = ZINC35426528
REMARK  3 active torsions:
REMARK  status: ('A' for Active; 'I' for Inactive)
REMARK    1  A    between atoms: C_5  and  C_6
REMARK    2  A    between atoms: N_8  and  C_9
REMARK    3  A    between atoms: C_12  and  C_14
REMARK                            x       y       z     vdW  Elec       q    Type
REMARK                         _______ _______ _______ _____ _____    ______ ____
ROOT
ATOM      1  C   UNL     1      -1.171  -0.881   0.009  0.00  0.00    +0.284 C 
ATOM      2  O   UNL     1      -2.290  -0.401   0.023  0.00  0.00    -0.266 OA
ATOM      3  N   UNL     1      -1.013  -2.219   0.000  0.00  0.00    -0.273 N 
ATOM      4  H   UNL     1      -0.122  -2.602  -0.011  0.00  0.00    +0.156 HD
ENDROOT
BRANCH   1   9
ATOM      5  C   UNL     1      -0.017   1.362   0.009  0.00  0.00    +0.056 A 
ATOM      6  C   UNL     1       1.321   1.784  -0.001  0.00  0.00    +0.058 A 
ATOM      7  C   UNL     1       2.090   0.671  -0.014  0.00  0.00    +0.171 A 
ATOM      8  O   UNL     1       1.291  -0.404  -0.012  0.00  0.00    -0.444 OA
ATOM      9  C   UNL     1       0.002  -0.004   0.002  0.00  0.00    +0.191 A 
ATOM     10 BR   UNL     1       3.981   0.638  -0.034  0.00  0.00    -0.008 Br
ENDBRANCH   1   9
BRANCH   3  11
ATOM     11  C   UNL     1      -2.123  -3.049   0.007  0.00  0.00    +0.073 A 
ATOM     12  C   UNL     1      -2.152  -4.427   0.005  0.00  0.00    +0.032 A 
ATOM     13  C   UNL     1      -3.365  -5.058   0.013  0.00  0.00    +0.025 A 
ATOM     14  C   UNL     1      -4.483  -4.228   0.022  0.00  0.00    +0.102 A 
ATOM     15  S   UNL     1      -3.744  -2.606   0.026  0.00  0.00    -0.067 S 
BRANCH  14  16
ATOM     16  C   UNL     1      -5.849  -4.580   0.031  0.00  0.00    +0.393 C 
ATOM     17  O   UNL     1      -6.178  -5.761   0.031  0.00  0.00    -0.240 OA
ATOM     18  O   UNL     1      -6.708  -3.705   0.038  0.00  0.00    -0.240 OA
ENDBRANCH  14  16
ENDBRANCH   3  11
TORSDOF 3
