REMARK  Name = ZINC04177855
REMARK  11 active torsions:
REMARK  status: ('A' for Active; 'I' for Inactive)
REMARK    1  A    between atoms: C_1  and  C_2
REMARK    2  A    between atoms: C_5  and  C_37
REMARK    3  A    between atoms: N_8  and  S_10
REMARK    4  A    between atoms: S_10  and  C_13
REMARK    5  A    between atoms: C_16  and  C_19
REMARK    6  A    between atoms: N_21  and  C_22
REMARK    7  A    between atoms: C_23  and  C_34
REMARK    8  A    between atoms: C_27  and  C_32
REMARK    9  A    between atoms: C_27  and  C_33
REMARK   10  A    between atoms: C_28  and  C_30
REMARK   11  A    between atoms: C_28  and  C_31
REMARK                            x       y       z     vdW  Elec       q    Type
REMARK                         _______ _______ _______ _____ _____    ______ ____
ROOT
ATOM      1  C   UNL     1      -7.646   1.504   0.083  0.00  0.00    +0.249 C 
ATOM      2  O   UNL     1      -8.151   1.176   1.139  0.00  0.00    -0.270 OA
ATOM      3  N   UNL     1      -8.228   1.153  -1.081  0.00  0.00    -0.275 N 
ATOM      4  H   UNL     1      -7.825   1.415  -1.923  0.00  0.00    +0.156 HD
ENDROOT
BRANCH   3   5
ATOM      5  C   UNL     1      -9.403   0.419  -1.074  0.00  0.00    +0.085 A 
ATOM      6  C   UNL     1     -10.145  -0.031  -2.160  0.00  0.00    +0.068 A 
ATOM      7  C   UNL     1     -11.344  -0.790  -1.877  0.00  0.00    -0.026 A 
ATOM      8  C   UNL     1     -11.623  -0.974  -0.565  0.00  0.00    -0.016 A 
ATOM      9  S   UNL     1     -10.306  -0.157   0.289  0.00  0.00    -0.079 S 
ATOM     10  C   UNL     1     -12.797  -1.702   0.001  0.00  0.00    -0.041 C 
ATOM     11  C   UNL     1     -12.886  -2.664  -2.302  0.00  0.00    -0.069 C 
ATOM     12  C   UNL     1     -12.287  -1.390  -2.911  0.00  0.00    +0.024 C 
ATOM     13  C   UNL     1     -11.781  -3.713  -2.139  0.00  0.00    -0.010 C 
ATOM     14  C   UNL     1     -13.923  -3.220  -3.296  0.00  0.00    -0.010 C 
ATOM     15  C   UNL     1     -12.315  -2.692   1.071  0.00  0.00    -0.005 C 
ATOM     16  C   UNL     1     -13.721  -0.677   0.684  0.00  0.00    -0.005 C 
ATOM     17  N   UNL     1     -13.606  -2.420  -1.026  0.00  0.00    +0.389 N 
ATOM     18  H   UNL     1     -14.441  -1.858  -1.230  0.00  0.00    -0.084 HD
ATOM     19  H   UNL     1     -13.890  -3.327  -0.637  0.00  0.00    -0.084 HD
BRANCH   6  20
ATOM     20  C   UNL     1      -9.720   0.261  -3.533  0.00  0.00    +0.244 C 
ATOM     21  O   UNL     1      -8.980  -0.508  -4.118  0.00  0.00    -0.270 OA
ATOM     22  N   UNL     1     -10.148   1.382  -4.147  0.00  0.00    -0.325 N 
ATOM     23  H   UNL     1     -10.737   1.995  -3.681  0.00  0.00    +0.145 HD
ATOM     24  H   UNL     1      -9.867   1.575  -5.055  0.00  0.00    +0.145 HD
ENDBRANCH   6  20
ENDBRANCH   3   5
BRANCH   1  28
ATOM     25  C   UNL     1      -4.043   3.754   0.061  0.00  0.00    +0.106 A 
ATOM     26  C   UNL     1      -4.642   3.400  -1.135  0.00  0.00    +0.029 A 
ATOM     27  C   UNL     1      -5.809   2.665  -1.135  0.00  0.00    +0.015 A 
ATOM     28  C   UNL     1      -6.392   2.287   0.075  0.00  0.00    +0.037 A 
ATOM     29  C   UNL     1      -5.786   2.652   1.279  0.00  0.00    +0.015 A 
ATOM     30  C   UNL     1      -4.616   3.382   1.264  0.00  0.00    +0.029 A 
BRANCH  25  31
ATOM     31  S   UNL     1      -2.550   4.688   0.052  0.00  0.00    +0.061 S 
ATOM     32  O   UNL     1      -2.485   5.364   1.300  0.00  0.00    -0.153 OA
ATOM     33  O   UNL     1      -2.509   5.377  -1.190  0.00  0.00    -0.153 OA
BRANCH  31  39
ATOM     34  C   UNL     1      -2.198   1.093  -1.204  0.00  0.00    +0.009 C 
ATOM     35  C   UNL     1      -0.752   1.593  -1.232  0.00  0.00    +0.002 C 
ATOM     36  C   UNL     1      -0.013   1.086   0.008  0.00  0.00    +0.009 C 
ATOM     37  C   UNL     1      -0.729   1.579   1.268  0.00  0.00    +0.002 C 
ATOM     38  C   UNL     1      -0.717   3.111   1.290  0.00  0.00    +0.112 C 
ATOM     39  N   UNL     1      -1.296   3.606   0.034  0.00  0.00    -0.176 NA
ATOM     40  C   UNL     1      -0.741   3.124  -1.238  0.00  0.00    +0.112 C 
ATOM     41  C   UNL     1      -0.008   1.045   2.507  0.00  0.00    +0.009 C 
ENDBRANCH  31  39
ENDBRANCH  25  31
ENDBRANCH   1  28
TORSDOF 5
