REMARK  Name = ZINC44982804
REMARK  5 active torsions:
REMARK  status: ('A' for Active; 'I' for Inactive)
REMARK    1  A    between atoms: C_3  and  C_9
REMARK    2  A    between atoms: C_4  and  N_8
REMARK    3  A    between atoms: C_6  and  N_7
REMARK    4  A    between atoms: N_13  and  C_14
REMARK    5  A    between atoms: C_14  and  C_15
REMARK                            x       y       z     vdW  Elec       q    Type
REMARK                         _______ _______ _______ _____ _____    ______ ____
ROOT
ATOM      1  C   UNL     1       0.214   1.088  -0.689  0.00  0.00    +0.023 A 
ATOM      2  C   UNL     1       1.422   1.739  -0.812  0.00  0.00    +0.015 A 
ATOM      3  C   UNL     1       2.447   1.486   0.100  0.00  0.00    +0.041 A 
ATOM      4  C   UNL     1       2.244   0.567   1.140  0.00  0.00    +0.037 A 
ATOM      5  C   UNL     1       1.026  -0.083   1.256  0.00  0.00    +0.046 A 
ATOM      6  C   UNL     1       0.012   0.176   0.343  0.00  0.00    +0.026 A 
ENDROOT
BRANCH   3   7
ATOM      7  C   UNL     1       3.744   2.182  -0.030  0.00  0.00    +0.184 A 
ATOM      8  N   UNL     1       4.939   1.627  -0.007  0.00  0.00    -0.108 NA
ATOM      9  N   UNL     1       5.851   2.519  -0.147  0.00  0.00    -0.023 NA
ATOM     10  N   UNL     1       5.326   3.690  -0.267  0.00  0.00    -0.044 NA
ATOM     11  N   UNL     1       3.932   3.521  -0.203  0.00  0.00    -0.225 N 
BRANCH  11  12
ATOM     12  C   UNL     1       2.903   4.559  -0.297  0.00  0.00    +0.153 C 
BRANCH  12  13
ATOM     13  C   UNL     1       2.621   5.126   1.096  0.00  0.00    +0.036 C 
ATOM     14  C   UNL     1       1.462   6.125   1.017  0.00  0.00    +0.010 C 
ATOM     15  C   UNL     1       1.240   6.742   2.401  0.00  0.00    +0.028 C 
ATOM     16  C   UNL     1       2.540   7.398   2.873  0.00  0.00    +0.160 C 
ATOM     17  O   UNL     1       3.584   6.421   2.894  0.00  0.00    -0.379 OA
ATOM     18  C   UNL     1       3.868   5.842   1.619  0.00  0.00    +0.165 C 
ENDBRANCH  12  13
ENDBRANCH  11  12
ENDBRANCH   3   7
BRANCH   6  19
ATOM     19  N   UNL     1      -1.213  -0.480   0.460  0.00  0.00    -0.358 N 
ATOM     20  H   UNL     1      -1.923  -0.300  -0.176  0.00  0.00    +0.142 HD
ATOM     21  H   UNL     1      -1.356  -1.115   1.179  0.00  0.00    +0.142 HD
ENDBRANCH   6  19
BRANCH   4  22
ATOM     22  N   UNL     1       3.263   0.308   2.054  0.00  0.00    -0.357 N 
ATOM     23  H   UNL     1       4.075   0.838   2.038  0.00  0.00    +0.142 HD
ATOM     24  H   UNL     1       3.161  -0.403   2.706  0.00  0.00    +0.142 HD
ENDBRANCH   4  22
TORSDOF 5
