REMARK  Name = ZINC08624932
REMARK  10 active torsions:
REMARK  status: ('A' for Active; 'I' for Inactive)
REMARK    1  A    between atoms: C_4  and  O_7
REMARK    2  A    between atoms: O_7  and  C_8
REMARK    3  A    between atoms: C_8  and  C_9
REMARK    4  A    between atoms: N_11  and  C_12
REMARK    5  A    between atoms: C_12  and  C_13
REMARK    6  A    between atoms: C_13  and  O_15
REMARK    7  A    between atoms: O_15  and  C_16
REMARK    8  A    between atoms: C_16  and  C_17
REMARK    9  A    between atoms: N_19  and  C_20
REMARK   10  A    between atoms: C_21  and  C_29
REMARK                            x       y       z     vdW  Elec       q    Type
REMARK                         _______ _______ _______ _____ _____    ______ ____
ROOT
ATOM      1  C   UNL     1      -0.014   1.209   0.009  0.00  0.00    +0.255 C 
ATOM      2  O   UNL     1       0.002  -0.004   0.002  0.00  0.00    -0.272 OA
ATOM      3  N   UNL     1      -1.191   1.867   0.018  0.00  0.00    -0.277 N 
ATOM      4  H   UNL     1      -1.204   2.836   0.023  0.00  0.00    +0.155 HD
ENDROOT
BRANCH   3   5
ATOM      5  C   UNL     1      -2.382   1.157   0.020  0.00  0.00    +0.084 A 
ATOM      6  C   UNL     1      -3.679   1.650   0.034  0.00  0.00    +0.068 A 
ATOM      7  C   UNL     1      -4.764   0.684   0.029  0.00  0.00    -0.023 A 
ATOM      8  C   UNL     1      -4.382  -0.611   0.021  0.00  0.00    -0.004 A 
ATOM      9  S   UNL     1      -2.612  -0.560   0.012  0.00  0.00    -0.077 S 
ATOM     10  C   UNL     1      -5.272  -1.816   0.019  0.00  0.00    +0.043 C 
ATOM     11  C   UNL     1      -6.689  -1.371   0.407  0.00  0.00    +0.005 C 
ATOM     12  C   UNL     1      -7.063  -0.138  -0.422  0.00  0.00    +0.005 C 
ATOM     13  C   UNL     1      -6.239   1.066   0.037  0.00  0.00    +0.037 C 
BRANCH   6  14
ATOM     14  C   UNL     1      -3.944   3.092   0.051  0.00  0.00    +0.244 C 
ATOM     15  O   UNL     1      -4.063   3.701  -0.997  0.00  0.00    -0.270 OA
ATOM     16  N   UNL     1      -4.057   3.743   1.225  0.00  0.00    -0.325 N 
ATOM     17  H   UNL     1      -3.963   3.257   2.060  0.00  0.00    +0.145 HD
ATOM     18  H   UNL     1      -4.233   4.697   1.236  0.00  0.00    +0.145 HD
ENDBRANCH   6  14
ENDBRANCH   3   5
BRANCH   1  19
ATOM     19  C   UNL     1       1.280   1.980   0.001  0.00  0.00    +0.328 C 
BRANCH  19  20
ATOM     20  O   UNL     1       2.397   1.051  -0.015  0.00  0.00    -0.454 OA
BRANCH  20  21
ATOM     21  C   UNL     1       3.630   1.581  -0.024  0.00  0.00    +0.325 C 
ATOM     22  O   UNL     1       3.772   2.781  -0.019  0.00  0.00    -0.249 OA
BRANCH  21  23
ATOM     23  C   UNL     1       4.837   0.680  -0.041  0.00  0.00    +0.225 C 
BRANCH  23  26
ATOM     24  C   UNL     1       7.264   0.899  -0.062  0.00  0.00    +0.251 C 
ATOM     25  O   UNL     1       7.344  -0.311  -0.070  0.00  0.00    -0.272 OA
ATOM     26  N   UNL     1       6.055   1.494  -0.048  0.00  0.00    -0.302 N 
ATOM     27  H   UNL     1       5.991   2.462  -0.042  0.00  0.00    +0.149 HD
BRANCH  24  28
ATOM     28  C   UNL     1       8.517   1.737  -0.070  0.00  0.00    +0.324 C 
BRANCH  28  29
ATOM     29  O   UNL     1       9.661   0.882  -0.086  0.00  0.00    -0.483 OA
BRANCH  29  33
ATOM     30  C   UNL     1      13.361   2.706  -0.111  0.00  0.00    +0.000 A 
ATOM     31  C   UNL     1      13.272   1.327  -0.117  0.00  0.00    +0.004 A 
ATOM     32  C   UNL     1      12.034   0.713  -0.109  0.00  0.00    +0.045 A 
ATOM     33  C   UNL     1      10.880   1.483  -0.094  0.00  0.00    +0.121 A 
ATOM     34  C   UNL     1      10.972   2.867  -0.093  0.00  0.00    +0.045 A 
ATOM     35  C   UNL     1      12.213   3.475  -0.096  0.00  0.00    +0.004 A 
ENDBRANCH  29  33
ENDBRANCH  28  29
ENDBRANCH  24  28
ENDBRANCH  23  26
ENDBRANCH  21  23
ENDBRANCH  20  21
ENDBRANCH  19  20
ENDBRANCH   1  19
TORSDOF 10
