REMARK  Name = ZINC67193173
REMARK  5 active torsions:
REMARK  status: ('A' for Active; 'I' for Inactive)
REMARK    1  A    between atoms: C_1  and  C_2
REMARK    2  A    between atoms: C_5  and  N_9
REMARK    3  A    between atoms: C_10  and  C_12
REMARK    4  A    between atoms: C_12  and  N_13
REMARK    5  A    between atoms: C_14  and  C_16
REMARK                            x       y       z     vdW  Elec       q    Type
REMARK                         _______ _______ _______ _____ _____    ______ ____
ROOT
ATOM      1  C   UNL     1      -0.134  -6.344  -1.194  0.00  0.00    +0.200 C 
ENDROOT
BRANCH   1   3
ATOM      2  N   UNL     1       0.059  -4.172  -0.025  0.00  0.00    -0.282 N 
ATOM      3  C   UNL     1      -0.040  -4.840  -1.192  0.00  0.00    +0.234 C 
ATOM      4  O   UNL     1      -0.054  -4.230  -2.240  0.00  0.00    -0.274 OA
ATOM      5  H   UNL     1       0.150  -4.662   0.807  0.00  0.00    +0.155 HD
BRANCH   2  10
ATOM      6  C   UNL     1      -0.065   1.502   0.016  0.00  0.00    +0.044 C 
ATOM      7  C   UNL     1      -0.031  -0.005   0.006  0.00  0.00    -0.048 A 
ATOM      8  C   UNL     1      -0.622  -0.701  -1.033  0.00  0.00    +0.005 A 
ATOM      9  C   UNL     1      -0.593  -2.082  -1.046  0.00  0.00    +0.026 A 
ATOM     10  C   UNL     1       0.029  -2.772  -0.015  0.00  0.00    +0.069 A 
ATOM     11  C   UNL     1       0.622  -2.070   1.029  0.00  0.00    +0.145 A 
ATOM     12  C   UNL     1       0.594  -0.688   1.033  0.00  0.00    +0.043 A 
ATOM     13  F   UNL     1       1.228  -2.738   2.035  0.00  0.00    -0.204 F 
ENDBRANCH   2  10
ENDBRANCH   1   3
BRANCH   1  14
ATOM     14  N   UNL     1      -0.232  -6.825  -2.574  0.00  0.00    -0.303 N 
ATOM     15  C   UNL     1      -0.326  -8.147  -2.822  0.00  0.00    +0.244 C 
ATOM     16  O   UNL     1      -0.330  -8.939  -1.900  0.00  0.00    -0.270 OA
ATOM     17  H   UNL     1      -0.229  -6.193  -3.310  0.00  0.00    +0.150 HD
BRANCH  15  18
ATOM     18  C   UNL     1      -0.425  -8.633  -4.215  0.00  0.00    +0.037 A 
ATOM     19  C   UNL     1      -0.415  -7.726  -5.277  0.00  0.00    +0.013 A 
ATOM     20  C   UNL     1      -0.507  -8.188  -6.572  0.00  0.00    +0.004 A 
ATOM     21  C   UNL     1      -0.610  -9.547  -6.826  0.00  0.00    -0.044 A 
ATOM     22  C   UNL     1      -0.620 -10.451  -5.778  0.00  0.00    -0.043 A 
ATOM     23  C   UNL     1      -0.523  -9.999  -4.475  0.00  0.00    +0.017 A 
ATOM     24  C   UNL     1      -0.739 -11.860  -6.319  0.00  0.00    +0.036 C 
ATOM     25  C   UNL     1      -1.239 -11.695  -7.770  0.00  0.00    +0.009 C 
ATOM     26  C   UNL     1      -0.721 -10.290  -8.141  0.00  0.00    +0.036 C 
ENDBRANCH  15  18
ENDBRANCH   1  14
TORSDOF 4
