REMARK  Name = ZINC51043700
REMARK  4 active torsions:
REMARK  status: ('A' for Active; 'I' for Inactive)
REMARK    1  A    between atoms: C_1  and  C_2
REMARK    2  A    between atoms: C_2  and  C_3
REMARK    3  A    between atoms: C_9  and  N_11
REMARK    4  A    between atoms: CA_16  and  C_18
REMARK                            x       y       z     vdW  Elec       q    Type
REMARK                         _______ _______ _______ _____ _____    ______ ____
ROOT
ATOM      1  N   UNL     1      -0.484  -2.624  -1.134  0.00  0.00    -0.327 N 
ATOM      2  C   UNL     1      -0.648  -3.884  -0.572  0.00  0.00    +0.097 A 
ATOM      3  C   UNL     1       0.463  -4.566  -0.072  0.00  0.00    +0.041 A 
ATOM      4  C   UNL     1       0.292  -5.820   0.486  0.00  0.00    +0.006 A 
ATOM      5  C   UNL     1      -0.987  -6.359   0.529  0.00  0.00    +0.033 A 
ATOM      6  CA  UNL     1      -2.051  -5.625   0.014  0.00  0.00    +0.130 A 
ATOM      7  N   UNL     1      -1.852  -4.420  -0.511  0.00  0.00    -0.338 N 
ATOM      8  H   UNL     1      -1.253  -2.143  -1.479  0.00  0.00    +0.148 HD
ATOM      9  H   UNL     1      -2.610  -3.925  -0.861  0.00  0.00    +0.167 HD
ENDROOT
BRANCH   1  15
ATOM     10  C   UNL     1       0.718  -0.497  -1.257  0.00  0.00    +0.009 C 
ATOM     11  C   UNL     1      -0.089  -0.097  -2.493  0.00  0.00    +0.005 C 
ATOM     12  C   UNL     1       0.627  -0.590  -3.752  0.00  0.00    +0.000 C 
ATOM     13  C   UNL     1       0.758  -2.114  -3.700  0.00  0.00    +0.002 C 
ATOM     14  C   UNL     1       1.565  -2.514  -2.464  0.00  0.00    +0.022 C 
ATOM     15  C   UNL     1       0.849  -2.021  -1.205  0.00  0.00    +0.075 C 
BRANCH  10  17
ATOM     16  C   UNL     1      -0.019   1.526   0.010  0.00  0.00    +0.004 C 
ATOM     17  C   UNL     1       0.002  -0.004   0.002  0.00  0.00    +0.002 C 
ENDBRANCH  10  17
ENDBRANCH   1  15
BRANCH   6  18
ATOM     18  C   UNL     1      -3.418  -6.190   0.054  0.00  0.00    +0.402 C 
ATOM     19  O   UNL     1      -4.357  -5.551  -0.397  0.00  0.00    -0.239 OA
ATOM     20  OXT UNL     1      -3.608  -7.296   0.540  0.00  0.00    -0.239 OA
ENDBRANCH   6  18
TORSDOF 3
