REMARK  Name = ZINC44457924
REMARK  7 active torsions:
REMARK  status: ('A' for Active; 'I' for Inactive)
REMARK    1  A    between atoms: C_3  and  S_24
REMARK    2  A    between atoms: C_6  and  C_7
REMARK    3  A    between atoms: C_7  and  C_8
REMARK    4  A    between atoms: C_8  and  N_9
REMARK    5  A    between atoms: C_10  and  C_12
REMARK    6  A    between atoms: N_20  and  C_21
REMARK    7  A    between atoms: S_24  and  N_27
REMARK                            x       y       z     vdW  Elec       q    Type
REMARK                         _______ _______ _______ _____ _____    ______ ____
ROOT
ATOM      1  N   UNL     1      -2.998  -1.781  -1.425  0.00  0.00    -0.315 N 
ATOM      2  C   UNL     1      -3.589  -2.120  -2.587  0.00  0.00    +0.216 C 
ATOM      3  O   UNL     1      -3.079  -1.804  -3.642  0.00  0.00    -0.276 OA
ATOM      4  H   UNL     1      -3.406  -2.033  -0.582  0.00  0.00    +0.149 HD
ENDROOT
BRANCH   2   5
ATOM      5  C   UNL     1      -4.885  -2.889  -2.578  0.00  0.00    +0.078 C 
ATOM      6  C   UNL     1      -4.678  -4.227  -1.863  0.00  0.00    +0.032 C 
ATOM      7  C   UNL     1      -6.004  -4.992  -1.825  0.00  0.00    +0.110 C 
ATOM      8  N   UNL     1      -6.520  -5.113  -3.195  0.00  0.00    -0.286 N 
ATOM      9  C   UNL     1      -6.673  -3.895  -4.003  0.00  0.00    +0.110 C 
ATOM     10  C   UNL     1      -5.338  -3.143  -4.017  0.00  0.00    +0.032 C 
ATOM     11  C   UNL     1      -6.847  -6.318  -3.702  0.00  0.00    +0.302 C 
ATOM     12  O   UNL     1      -7.358  -6.397  -4.802  0.00  0.00    -0.253 OA
ATOM     13  N   UNL     1      -6.608  -7.436  -2.989  0.00  0.00    -0.296 N 
ATOM     14  H   UNL     1      -6.269  -7.370  -2.082  0.00  0.00    +0.151 HD
BRANCH  13  15
ATOM     15  C   UNL     1      -6.859  -8.752  -3.582  0.00  0.00    +0.075 C 
ATOM     16  C   UNL     1      -7.559  -9.798  -2.712  0.00  0.00    +0.024 C 
ATOM     17  C   UNL     1      -6.069  -9.940  -3.029  0.00  0.00    +0.024 C 
ENDBRANCH  13  15
ENDBRANCH   2   5
BRANCH   1  18
ATOM     18  C   UNL     1      -1.738  -1.033  -1.434  0.00  0.00    +0.109 C 
BRANCH  18  19
ATOM     19  C   UNL     1      -1.285  -0.779   0.005  0.00  0.00    +0.054 C 
BRANCH  19  25
ATOM     20  C   UNL     1      -0.007   1.373   0.002  0.00  0.00    +0.005 A 
ATOM     21  C   UNL     1       1.182   2.079  -0.006  0.00  0.00    +0.029 A 
ATOM     22  C   UNL     1       2.387   1.403  -0.022  0.00  0.00    +0.105 A 
ATOM     23  C   UNL     1       2.405   0.021  -0.029  0.00  0.00    +0.029 A 
ATOM     24  C   UNL     1       1.216  -0.685  -0.019  0.00  0.00    +0.005 A 
ATOM     25  C   UNL     1       0.011  -0.009  -0.005  0.00  0.00    -0.046 A 
BRANCH  22  26
ATOM     26  S   UNL     1       3.902   2.303  -0.034  0.00  0.00    +0.056 S 
ATOM     27  O   UNL     1       4.881   1.443  -0.599  0.00  0.00    -0.153 OA
ATOM     28  O   UNL     1       3.609   3.584  -0.576  0.00  0.00    -0.153 OA
BRANCH  26  29
ATOM     29  N   UNL     1       4.340   2.547   1.544  0.00  0.00    -0.204 NA
ATOM     30  H   UNL     1       3.780   2.207   2.261  0.00  0.00    +0.144 HD
ATOM     31  H   UNL     1       5.155   3.029   1.753  0.00  0.00    +0.144 HD
ENDBRANCH  26  29
ENDBRANCH  22  26
ENDBRANCH  19  25
ENDBRANCH  18  19
ENDBRANCH   1  18
TORSDOF 7
