REMARK  Name = ZINC63296267
REMARK  6 active torsions:
REMARK  status: ('A' for Active; 'I' for Inactive)
REMARK    1  A    between atoms: C_3  and  N_10
REMARK    2  A    between atoms: C_6  and  C_7
REMARK    3  A    between atoms: C_7  and  C_8
REMARK    4  A    between atoms: C_8  and  O_9
REMARK    5  A    between atoms: C_11  and  C_13
REMARK    6  A    between atoms: C_13  and  N_14
REMARK                            x       y       z     vdW  Elec       q    Type
REMARK                         _______ _______ _______ _____ _____    ______ ____
ROOT
ATOM      1  N   UNL     1       7.172   1.306   0.250  0.00  0.00    -0.291 N 
ATOM      2  C   UNL     1       8.432   1.774   0.353  0.00  0.00    +0.303 C 
ATOM      3  O   UNL     1       8.629   2.968   0.470  0.00  0.00    -0.253 OA
ATOM      4  N   UNL     1       9.473   0.919   0.326  0.00  0.00    -0.283 N 
ATOM      5  C   UNL     1       9.224  -0.526   0.293  0.00  0.00    +0.114 C 
ATOM      6  C   UNL     1       9.896  -1.133  -0.953  0.00  0.00    +0.052 C 
ATOM      7  C   UNL     1      11.285  -0.548  -1.023  0.00  0.00    -0.035 C 
ATOM      8  C   UNL     1      12.476  -1.124  -1.138  0.00  0.00    +0.001 A 
ATOM      9  C   UNL     1      12.869  -2.526  -1.348  0.00  0.00    +0.030 A 
ATOM     10  C   UNL     1      14.205  -2.773  -1.400  0.00  0.00    +0.042 A 
ATOM     11  C   UNL     1      15.178  -1.776  -1.264  0.00  0.00    +0.022 A 
ATOM     12  C   UNL     1      14.905  -0.460  -1.077  0.00  0.00    +0.027 A 
ATOM     13  C   UNL     1      13.534  -0.076  -1.014  0.00  0.00    +0.043 A 
ATOM     14  N   UNL     1      12.996   1.099  -0.868  0.00  0.00    -0.376 N 
ATOM     15  C   UNL     1      11.542   0.953  -0.942  0.00  0.00    +0.124 C 
ATOM     16  C   UNL     1      10.847   1.445   0.326  0.00  0.00    +0.138 C 
ATOM     17 CL   UNL     1      14.732  -4.409  -1.646  0.00  0.00    -0.084 Cl
ATOM     18  H   UNL     1       7.010   0.350   0.230  0.00  0.00    +0.151 HD
ATOM     19  H   UNL     1      13.476   1.931  -0.733  0.00  0.00    +0.160 HD
ENDROOT
BRANCH   1  20
ATOM     20  C   UNL     1       6.048   2.241   0.167  0.00  0.00    +0.202 C 
BRANCH  20  22
ATOM     21  N   UNL     1       3.585   2.124  -0.029  0.00  0.00    -0.284 N 
ATOM     22  C   UNL     1       4.758   1.468   0.059  0.00  0.00    +0.234 C 
ATOM     23  O   UNL     1       4.777   0.255   0.052  0.00  0.00    -0.274 OA
ATOM     24  H   UNL     1       3.574   3.092  -0.099  0.00  0.00    +0.155 HD
BRANCH  21  27
ATOM     25  C   UNL     1       1.083  -0.463   0.724  0.00  0.00    +0.005 A 
ATOM     26  C   UNL     1       2.272   0.240   0.718  0.00  0.00    +0.023 A 
ATOM     27  C   UNL     1       2.381   1.410  -0.021  0.00  0.00    +0.033 A 
ATOM     28  C   UNL     1       1.294   1.870  -0.752  0.00  0.00    +0.023 A 
ATOM     29  C   UNL     1       0.108   1.163  -0.742  0.00  0.00    +0.005 A 
ATOM     30  C   UNL     1       0.002  -0.002  -0.005  0.00  0.00    -0.045 A 
BRANCH  30  31
ATOM     31  C   UNL     1      -1.294  -0.771   0.004  0.00  0.00    +0.063 C 
BRANCH  31  32
ATOM     32  C   UNL     1      -2.177  -0.269   1.149  0.00  0.00    +0.160 C 
BRANCH  32  33
ATOM     33  O   UNL     1      -3.406  -0.998   1.157  0.00  0.00    -0.395 OA
ATOM     34  H   UNL     1      -4.016  -0.732   1.859  0.00  0.00    +0.209 HD
ENDBRANCH  32  33
ENDBRANCH  31  32
ENDBRANCH  30  31
ENDBRANCH  21  27
ENDBRANCH  20  22
ENDBRANCH   1  20
TORSDOF 6
