REMARK  Name = ZINC64299893
REMARK  12 active torsions:
REMARK  status: ('A' for Active; 'I' for Inactive)
REMARK    1  A    between atoms: C_1  and  C_2
REMARK    2  A    between atoms: C_2  and  C_3
REMARK    3  A    between atoms: C_3  and  C_4
REMARK    4  A    between atoms: C_4  and  N_5
REMARK    5  A    between atoms: N_8  and  C_9
REMARK    6  A    between atoms: C_9  and  C_15
REMARK    7  A    between atoms: N_17  and  C_18
REMARK    8  A    between atoms: C_18  and  C_19
REMARK    9  A    between atoms: C_19  and  C_20
REMARK   10  A    between atoms: C_19  and  N_23
REMARK   11  A    between atoms: N_23  and  C_24
REMARK   12  A    between atoms: N_23  and  C_25
REMARK                            x       y       z     vdW  Elec       q    Type
REMARK                         _______ _______ _______ _____ _____    ______ ____
ROOT
ATOM      1  C   UNL     1      -3.763  -6.264  -0.150  0.00  0.00    +0.112 C 
ATOM      2  C   UNL     1      -3.126  -7.183   0.894  0.00  0.00    +0.035 C 
ATOM      3  C   UNL     1      -3.481  -6.685   2.296  0.00  0.00    +0.003 C 
ATOM      4  C   UNL     1      -5.001  -6.692   2.470  0.00  0.00    +0.000 C 
ATOM      5  C   UNL     1      -5.638  -5.773   1.426  0.00  0.00    +0.003 C 
ATOM      6  C   UNL     1      -5.283  -6.271   0.024  0.00  0.00    +0.035 C 
ENDROOT
BRANCH   1  10
ATOM      7  N   UNL     1      -1.460  -3.421   0.194  0.00  0.00    -0.299 N 
ATOM      8  C   UNL     1      -1.936  -4.653  -0.072  0.00  0.00    +0.300 C 
ATOM      9  O   UNL     1      -1.174  -5.542  -0.399  0.00  0.00    -0.253 OA
ATOM     10  N   UNL     1      -3.258  -4.900   0.026  0.00  0.00    -0.285 N 
ATOM     11  H   UNL     1      -2.056  -2.731   0.525  0.00  0.00    +0.150 HD
ATOM     12  H   UNL     1      -3.874  -4.175   0.213  0.00  0.00    +0.151 HD
BRANCH   7  13
ATOM     13  C   UNL     1      -0.041  -3.123  -0.018  0.00  0.00    +0.106 C 
BRANCH  13  14
ATOM     14  C   UNL     1       0.211  -1.636   0.237  0.00  0.00    +0.018 C 
BRANCH  14  16
ATOM     15  C   UNL     1       1.945   0.163   0.272  0.00  0.00    +0.004 C 
ATOM     16  C   UNL     1       1.693  -1.324   0.016  0.00  0.00    -0.002 C 
ENDBRANCH  14  16
ENDBRANCH  13  14
ENDBRANCH   7  13
ENDBRANCH   1  10
BRANCH   1  17
ATOM     17  C   UNL     1      -3.413  -6.755  -1.532  0.00  0.00    +0.237 C 
ATOM     18  O   UNL     1      -3.086  -7.910  -1.700  0.00  0.00    -0.273 OA
ATOM     19  N   UNL     1      -3.463  -5.909  -2.580  0.00  0.00    -0.315 N 
ATOM     20  H   UNL     1      -3.654  -4.969  -2.436  0.00  0.00    +0.149 HD
BRANCH  19  21
ATOM     21  C   UNL     1      -3.230  -6.410  -3.937  0.00  0.00    +0.089 C 
BRANCH  21  22
ATOM     22  C   UNL     1      -3.222  -5.237  -4.919  0.00  0.00    -0.049 C 
BRANCH  22  23
ATOM     23  N   UNL     1      -2.272  -4.217  -4.455  0.00  0.00    +0.379 N 
ATOM     24  C   UNL     1      -0.936  -4.814  -4.328  0.00  0.00    -0.096 C 
ATOM     25  C   UNL     1      -2.225  -3.114  -5.425  0.00  0.00    -0.096 C 
ATOM     26  H   UNL     1      -2.569  -3.863  -3.558  0.00  0.00    -0.082 HD
ENDBRANCH  22  23
BRANCH  22  27
ATOM     27  C   UNL     1      -4.624  -4.629  -4.999  0.00  0.00    -0.023 C 
ATOM     28  C   UNL     1      -5.667  -5.125  -3.996  0.00  0.00    +0.002 C 
ATOM     29  C   UNL     1      -5.762  -5.539  -5.465  0.00  0.00    +0.002 C 
ENDBRANCH  22  27
ENDBRANCH  21  22
ENDBRANCH  19  21
ENDBRANCH   1  17
TORSDOF 9
