REMARK  Name = ZINC08691507
REMARK  6 active torsions:
REMARK  status: ('A' for Active; 'I' for Inactive)
REMARK    1  A    between atoms: N_7  and  C_23
REMARK    2  A    between atoms: N_10  and  C_11
REMARK    3  A    between atoms: C_11  and  C_12
REMARK    4  A    between atoms: C_12  and  C_14
REMARK    5  A    between atoms: C_17  and  N_20
REMARK    6  A    between atoms: C_23  and  C_24
REMARK                            x       y       z     vdW  Elec       q    Type
REMARK                         _______ _______ _______ _____ _____    ______ ____
ROOT
ATOM      1  C   UNL     1      -0.017   1.373   0.010  0.00  0.00    +0.002 A 
ATOM      2  C   UNL     1       1.169   2.093   0.002  0.00  0.00    +0.002 A 
ATOM      3  C   UNL     1       2.384   1.439  -0.013  0.00  0.00    +0.028 A 
ATOM      4  C   UNL     1       2.421   0.053  -0.021  0.00  0.00    +0.069 A 
ATOM      5  C   UNL     1       1.224  -0.681  -0.013  0.00  0.00    +0.068 A 
ATOM      6  C   UNL     1       0.002  -0.004   0.002  0.00  0.00    +0.028 A 
ATOM      7  N   UNL     1       1.562  -1.998  -0.024  0.00  0.00    -0.309 N 
ATOM      8  C   UNL     1       2.866  -2.117  -0.038  0.00  0.00    +0.175 A 
ATOM      9  N   UNL     1       3.552  -3.313  -0.053  0.00  0.00    -0.330 N 
ATOM     10  N   UNL     1       3.445  -0.880  -0.037  0.00  0.00    -0.306 N 
ATOM     11  H   UNL     1       3.065  -4.152  -0.053  0.00  0.00    +0.145 HD
ATOM     12  H   UNL     1       4.522  -3.316  -0.062  0.00  0.00    +0.145 HD
ENDROOT
BRANCH  10  13
ATOM     13  C   UNL     1       4.882  -0.594  -0.049  0.00  0.00    +0.204 C 
BRANCH  13  14
ATOM     14  C   UNL     1       5.388  -0.504   1.367  0.00  0.00    +0.183 C 
ATOM     15  O   UNL     1       4.625  -0.663   2.295  0.00  0.00    -0.290 OA
BRANCH  14  16
ATOM     16  C   UNL     1       6.810  -0.222   1.624  0.00  0.00    +0.019 A 
ATOM     17  C   UNL     1       7.693  -0.032   0.556  0.00  0.00    +0.013 A 
ATOM     18  C   UNL     1       9.023   0.231   0.804  0.00  0.00    +0.033 A 
ATOM     19  C   UNL     1       9.486   0.307   2.107  0.00  0.00    +0.126 A 
ATOM     20  C   UNL     1       8.618   0.120   3.169  0.00  0.00    +0.033 A 
ATOM     21  C   UNL     1       7.284  -0.138   2.937  0.00  0.00    +0.013 A 
BRANCH  19  22
ATOM     22  N   UNL     1      10.915   0.589   2.365  0.00  0.00    +0.056 N 
ATOM     23  O   UNL     1      11.676   0.753   1.439  0.00  0.00    -0.126 OA
ATOM     24  O   UNL     1      11.323   0.656   3.501  0.00  0.00    -0.126 OA
ENDBRANCH  19  22
ENDBRANCH  14  16
ENDBRANCH  13  14
ENDBRANCH  10  13
BRANCH   7  25
ATOM     25  C   UNL     1       0.612  -3.113  -0.021  0.00  0.00    +0.160 C 
BRANCH  25  26
ATOM     26  C   UNL     1       0.272  -3.488  -1.440  0.00  0.00    -0.028 A 
ATOM     27  C   UNL     1      -0.793  -2.879  -2.079  0.00  0.00    +0.007 A 
ATOM     28  C   UNL     1      -1.105  -3.222  -3.381  0.00  0.00    +0.020 A 
ATOM     29  C   UNL     1      -0.353  -4.175  -4.044  0.00  0.00    +0.041 A 
ATOM     30  C   UNL     1       0.712  -4.784  -3.405  0.00  0.00    +0.020 A 
ATOM     31  C   UNL     1       1.027  -4.436  -2.104  0.00  0.00    +0.007 A 
ATOM     32 CL   UNL     1      -0.746  -4.607  -5.679  0.00  0.00    -0.084 Cl
ENDBRANCH  25  26
ENDBRANCH   7  25
TORSDOF 6
