REMARK  Name = ZINC67035556
REMARK  9 active torsions:
REMARK  status: ('A' for Active; 'I' for Inactive)
REMARK    1  A    between atoms: C_1  and  C_2
REMARK    2  A    between atoms: C_2  and  C_3
REMARK    3  A    between atoms: C_2  and  C_4
REMARK    4  A    between atoms: C_2  and  N_5
REMARK    5  A    between atoms: C_7  and  C_24
REMARK    6  A    between atoms: C_9  and  N_10
REMARK    7  A    between atoms: N_13  and  N_14
REMARK    8  A    between atoms: C_15  and  C_17
REMARK    9  A    between atoms: C_17  and  C_18
REMARK                            x       y       z     vdW  Elec       q    Type
REMARK                         _______ _______ _______ _____ _____    ______ ____
ROOT
ATOM      1  N   UNL     1       0.468  -2.886  -0.770  0.00  0.00    -0.254 N 
ATOM      2  C   UNL     1       0.724  -4.138  -1.199  0.00  0.00    +0.321 C 
ATOM      3  O   UNL     1       1.317  -4.312  -2.246  0.00  0.00    -0.251 OA
ATOM      4  N   UNL     1       0.322  -5.196  -0.468  0.00  0.00    -0.218 N 
ATOM      5  H   UNL     1      -0.005  -2.747   0.065  0.00  0.00    +0.158 HD
ATOM      6  H   UNL     1       0.506  -6.097  -0.777  0.00  0.00    +0.174 HD
ENDROOT
BRANCH   1  11
ATOM      7  N   UNL     1       0.688  -0.476  -1.203  0.00  0.00    -0.329 N 
ATOM      8  C   UNL     1       1.225   0.327  -2.158  0.00  0.00    +0.107 A 
ATOM      9  C   UNL     1       1.778  -0.464  -3.126  0.00  0.00    +0.071 A 
ATOM     10  C   UNL     1       1.546  -1.851  -2.706  0.00  0.00    +0.062 A 
ATOM     11  C   UNL     1       0.885  -1.789  -1.528  0.00  0.00    +0.108 A 
BRANCH   7  13
ATOM     12  C   UNL     1      -0.019   1.526   0.010  0.00  0.00    +0.034 C 
ATOM     13  C   UNL     1       0.002  -0.004   0.002  0.00  0.00    +0.038 C 
ATOM     14  C   UNL     1       0.742  -0.511   1.242  0.00  0.00    +0.034 C 
ATOM     15  C   UNL     1      -1.433  -0.534   0.013  0.00  0.00    +0.034 C 
ENDBRANCH   7  13
BRANCH   9  16
ATOM     16  C   UNL     1       2.448  -0.027  -4.313  0.00  0.00    +0.101 C 
ATOM     17  N   UNL     1       2.980   0.320  -5.255  0.00  0.00    -0.191 NA
ENDBRANCH   9  16
ENDBRANCH   1  11
BRANCH   4  18
ATOM     18  N   UNL     1      -0.361  -4.995   0.739  0.00  0.00    -0.233 N 
ATOM     19  C   UNL     1      -0.763  -6.053   1.470  0.00  0.00    +0.229 C 
ATOM     20  O   UNL     1      -0.533  -7.180   1.083  0.00  0.00    -0.274 OA
ATOM     21  H   UNL     1      -0.545  -4.094   1.047  0.00  0.00    +0.173 HD
BRANCH  19  22
ATOM     22  C   UNL     1      -1.499  -5.837   2.767  0.00  0.00    +0.101 C 
BRANCH  22  23
ATOM     23  C   UNL     1      -1.838  -7.191   3.393  0.00  0.00    -0.002 C 
ATOM     24  C   UNL     1      -2.821  -7.939   2.490  0.00  0.00    +0.004 C 
ATOM     25  C   UNL     1      -3.161  -9.293   3.116  0.00  0.00    +0.000 C 
ATOM     26  C   UNL     1      -3.795  -9.075   4.491  0.00  0.00    +0.000 C 
ATOM     27  C   UNL     1      -2.811  -8.328   5.394  0.00  0.00    +0.000 C 
ATOM     28  C   UNL     1      -2.472  -6.973   4.768  0.00  0.00    +0.004 C 
ENDBRANCH  22  23
ENDBRANCH  19  22
ENDBRANCH   4  18
TORSDOF 6
