REMARK  Name = ZINC38771310
REMARK  7 active torsions:
REMARK  status: ('A' for Active; 'I' for Inactive)
REMARK    1  A    between atoms: C_1  and  C_2
REMARK    2  A    between atoms: C_2  and  S_3
REMARK    3  A    between atoms: S_3  and  C_4
REMARK    4  A    between atoms: C_9  and  N_10
REMARK    5  A    between atoms: C_11  and  C_13
REMARK    6  A    between atoms: C_17  and  N_20
REMARK    7  A    between atoms: C_18  and  C_19
REMARK                            x       y       z     vdW  Elec       q    Type
REMARK                         _______ _______ _______ _____ _____    ______ ____
ROOT
ATOM      1  N   UNL     1       2.138  -3.568  -3.676  0.00  0.00    -0.281 N 
ATOM      2  C   UNL     1       2.880  -3.997  -4.716  0.00  0.00    +0.249 C 
ATOM      3  O   UNL     1       3.047  -5.188  -4.894  0.00  0.00    -0.270 OA
ATOM      4  H   UNL     1       1.936  -2.624  -3.581  0.00  0.00    +0.155 HD
ENDROOT
BRANCH   2   5
ATOM      5  C   UNL     1       3.492  -3.019  -5.641  0.00  0.00    +0.042 A 
ATOM      6  C   UNL     1       3.193  -1.660  -5.522  0.00  0.00    +0.013 A 
ATOM      7  C   UNL     1       3.767  -0.753  -6.388  0.00  0.00    +0.003 A 
ATOM      8  C   UNL     1       4.637  -1.186  -7.372  0.00  0.00    +0.033 A 
ATOM      9  C   UNL     1       4.937  -2.531  -7.496  0.00  0.00    +0.130 A 
ATOM     10  C   UNL     1       4.375  -3.449  -6.633  0.00  0.00    -0.008 A 
ATOM     11  C   UNL     1       4.707  -4.912  -6.764  0.00  0.00    +0.047 C 
BRANCH   9  12
ATOM     12  N   UNL     1       5.869  -2.986  -8.553  0.00  0.00    +0.057 N 
ATOM     13  O   UNL     1       6.463  -2.175  -9.225  0.00  0.00    -0.126 OA
ATOM     14  O   UNL     1       6.035  -4.168  -8.743  0.00  0.00    -0.126 OA
ENDBRANCH   9  12
ENDBRANCH   2   5
BRANCH   1  20
ATOM     15  C   UNL     1       1.461  -4.091  -1.410  0.00  0.00    +0.029 A 
ATOM     16  C   UNL     1       0.980  -5.004  -0.482  0.00  0.00    +0.016 A 
ATOM     17  C   UNL     1       0.703  -6.302  -0.869  0.00  0.00    +0.001 A 
ATOM     18  C   UNL     1       0.904  -6.694  -2.180  0.00  0.00    +0.002 A 
ATOM     19  C   UNL     1       1.383  -5.792  -3.111  0.00  0.00    +0.024 A 
ATOM     20  C   UNL     1       1.658  -4.486  -2.733  0.00  0.00    +0.047 A 
BRANCH  15  21
ATOM     21  S   UNL     1       1.815  -2.436  -0.919  0.00  0.00    -0.124 S 
BRANCH  21  23
ATOM     22  C   UNL     1       1.676  -1.007   1.409  0.00  0.00    +0.015 C 
ATOM     23  C   UNL     1       1.411  -2.406   0.849  0.00  0.00    +0.071 C 
ENDBRANCH  21  23
ENDBRANCH  15  21
ENDBRANCH   1  20
TORSDOF 5
