REMARK  Name = ZINC58950118
REMARK  6 active torsions:
REMARK  status: ('A' for Active; 'I' for Inactive)
REMARK    1  A    between atoms: C_1  and  C_2
REMARK    2  A    between atoms: C_5  and  C_8
REMARK    3  A    between atoms: C_20  and  N_26
REMARK    4  A    between atoms: C_21  and  C_22
REMARK    5  A    between atoms: C_22  and  O_24
REMARK    6  A    between atoms: O_24  and  C_25
REMARK                            x       y       z     vdW  Elec       q    Type
REMARK                         _______ _______ _______ _____ _____    ______ ____
ROOT
ATOM      1  C   UNL     1       0.090  -4.082   0.074  0.00  0.00    +0.101 C 
ATOM      2  C   UNL     1      -1.159  -4.624   0.712  0.00  0.00    +0.091 A 
ATOM      3  C   UNL     1      -2.402  -4.428   0.096  0.00  0.00    +0.262 A 
ATOM      4  O   UNL     1      -2.485  -3.820  -0.959  0.00  0.00    -0.267 OA
ATOM      5  N   UNL     1      -3.506  -4.925   0.692  0.00  0.00    -0.273 N 
ATOM      6  H   UNL     1      -4.377  -4.801   0.282  0.00  0.00    +0.173 HD
ATOM      7  C   UNL     1      -3.398  -5.601   1.866  0.00  0.00    +0.352 A 
ATOM      8  O   UNL     1      -4.511  -6.091   2.449  0.00  0.00    -0.245 OA
ATOM      9  N   UNL     1      -2.235  -5.787   2.446  0.00  0.00    -0.157 NA
ATOM     10  C   UNL     1      -1.103  -5.316   1.904  0.00  0.00    +0.236 A 
ATOM     11  O   UNL     1       0.075  -5.527   2.529  0.00  0.00    -0.423 OA
ATOM     12  C   UNL     1       1.226  -5.414   1.848  0.00  0.00    +0.197 C 
ATOM     13  C   UNL     1       1.302  -4.740   0.675  0.00  0.00    +0.105 C 
ENDROOT
BRANCH   1  18
ATOM     14  C   UNL     1       0.369   1.623   0.951  0.00  0.00    +0.044 C 
ATOM     15  C   UNL     1       0.296   0.135   0.722  0.00  0.00    -0.050 A 
ATOM     16  C   UNL     1       0.255  -0.365  -0.566  0.00  0.00    +0.003 A 
ATOM     17  C   UNL     1       0.189  -1.730  -0.776  0.00  0.00    +0.005 A 
ATOM     18  C   UNL     1       0.164  -2.595   0.302  0.00  0.00    -0.035 A 
ATOM     19  C   UNL     1       0.206  -2.095   1.591  0.00  0.00    +0.005 A 
ATOM     20  C   UNL     1       0.277  -0.730   1.800  0.00  0.00    +0.003 A 
ENDBRANCH   1  18
BRANCH  12  21
ATOM     21  N   UNL     1       2.357  -5.997   2.354  0.00  0.00    -0.329 N 
ATOM     22  H   UNL     1       2.340  -6.407   3.233  0.00  0.00    +0.145 HD
ATOM     23  H   UNL     1       3.176  -5.998   1.834  0.00  0.00    +0.145 HD
ENDBRANCH  12  21
BRANCH  13  24
ATOM     24  C   UNL     1       2.534  -4.655   0.011  0.00  0.00    +0.341 C 
ATOM     25  O   UNL     1       2.763  -5.376  -0.943  0.00  0.00    -0.245 OA
BRANCH  24  26
ATOM     26  O   UNL     1       3.468  -3.773   0.429  0.00  0.00    -0.465 OA
ATOM     27  C   UNL     1       4.700  -3.740  -0.294  0.00  0.00    +0.280 C 
ENDBRANCH  24  26
ENDBRANCH  13  24
TORSDOF 4
