REMARK  Name = ZINC12429547
REMARK  5 active torsions:
REMARK  status: ('A' for Active; 'I' for Inactive)
REMARK    1  A    between atoms: C_6  and  C_16
REMARK    2  A    between atoms: C_7  and  C_9
REMARK    3  A    between atoms: C_16  and  N_61
REMARK    4  A    between atoms: C_20  and  C_23
REMARK    5  A    between atoms: C_23  and  N_63
REMARK                            x       y       z     vdW  Elec       q    Type
REMARK                         _______ _______ _______ _____ _____    ______ ____
ROOT
ATOM      1  C   UNL     1       3.057   4.526  -0.001  0.00  0.00    -0.022 C 
ENDROOT
BRANCH   1   7
ATOM      2  C   UNL     1       1.011   1.928   0.003  0.00  0.00    +0.100 A 
ATOM      3  C   UNL     1      -0.013   1.076   0.008  0.00  0.00    +0.067 A 
ATOM      4  S   UNL     1      -1.415   2.181   0.019  0.00  0.00    -0.058 S 
ATOM      5  C   UNL     1      -0.510   3.711   0.027  0.00  0.00    +0.178 A 
ATOM      6  N   UNL     1       0.796   3.290   0.013  0.00  0.00    -0.299 N 
ATOM      7  C   UNL     1       1.553   4.447   0.013  0.00  0.00    +0.040 A 
ATOM      8  C   UNL     1       0.694   5.503   0.027  0.00  0.00    +0.146 A 
ATOM      9  N   UNL     1      -0.571   5.009   0.036  0.00  0.00    -0.216 NA
BRANCH   8  10
ATOM     10  C   UNL     1       1.070   6.927   0.031  0.00  0.00    +0.267 C 
ATOM     11  O   UNL     1       2.243   7.247   0.021  0.00  0.00    -0.268 OA
ATOM     12  N   UNL     1       0.113   7.876   0.046  0.00  0.00    -0.296 N 
ATOM     13  C   UNL     1      -1.337   7.632   0.052  0.00  0.00    +0.108 C 
ATOM     14  C   UNL     1      -2.034   9.008   0.045  0.00  0.00    +0.020 C 
ATOM     15  C   UNL     1      -0.945   9.944  -0.545  0.00  0.00    +0.020 C 
ATOM     16  C   UNL     1       0.347   9.332   0.052  0.00  0.00    +0.108 C 
ENDBRANCH   8  10
ENDBRANCH   1   7
BRANCH   1  22
ATOM     17  C   UNL     1       3.113   5.797  -2.061  0.00  0.00    -0.078 C 
ATOM     18  C   UNL     1       3.499   5.733  -3.540  0.00  0.00    -0.018 C 
ATOM     19  C   UNL     1       5.015   5.556  -3.660  0.00  0.00    -0.002 C 
ATOM     20  C   UNL     1       5.433   4.286  -2.913  0.00  0.00    -0.044 C 
ATOM     21  C   UNL     1       4.991   4.392  -1.451  0.00  0.00    -0.077 C 
ATOM     22  N   UNL     1       3.520   4.537  -1.404  0.00  0.00    +0.384 N 
ATOM     23  H   UNL     1       3.092   3.748  -1.903  0.00  0.00    -0.081 HD
BRANCH  20  24
ATOM     24  C   UNL     1       6.954   4.133  -2.977  0.00  0.00    -0.077 C 
BRANCH  24  30
ATOM     25  C   UNL     1       6.859   2.635  -4.876  0.00  0.00    -0.079 C 
ATOM     26  C   UNL     1       7.182   2.510  -6.367  0.00  0.00    -0.019 C 
ATOM     27  C   UNL     1       8.698   2.594  -6.565  0.00  0.00    -0.004 C 
ATOM     28  C   UNL     1       9.207   3.917  -5.986  0.00  0.00    -0.019 C 
ATOM     29  C   UNL     1       8.826   4.002  -4.506  0.00  0.00    -0.079 C 
ATOM     30  N   UNL     1       7.354   3.939  -4.386  0.00  0.00    +0.380 N 
ATOM     31  H   UNL     1       6.941   4.687  -4.956  0.00  0.00    -0.082 HD
ENDBRANCH  24  30
ENDBRANCH  20  24
ENDBRANCH   1  22
TORSDOF 5
