REMARK  Name = ZINC24271327
REMARK  12 active torsions:
REMARK  status: ('A' for Active; 'I' for Inactive)
REMARK    1  A    between atoms: C_1  and  C_2
REMARK    2  A    between atoms: C_2  and  C_4
REMARK    3  A    between atoms: C_2  and  S_15
REMARK    4  A    between atoms: N_6  and  C_7
REMARK    5  A    between atoms: S_15  and  C_16
REMARK    6  A    between atoms: C_19  and  C_22
REMARK    7  A    between atoms: N_20  and  N_21
REMARK    8  A    between atoms: C_22  and  O_23
REMARK    9  A    between atoms: O_23  and  C_24
REMARK   10  A    between atoms: C_27  and  C_30
REMARK   11  A    between atoms: C_30  and  C_31
REMARK   12  A    between atoms: C_30  and  C_32
REMARK                            x       y       z     vdW  Elec       q    Type
REMARK                         _______ _______ _______ _____ _____    ______ ____
ROOT
ATOM      1  C   UNL     1       2.510  -0.043  -1.286  0.00  0.00    +0.209 A 
ATOM      2  N   UNL     1       2.989   0.628  -0.263  0.00  0.00    -0.121 NA
ATOM      3  N   UNL     1       4.240   0.864  -0.443  0.00  0.00    -0.128 NA
ATOM      4  C   UNL     1       4.630   0.362  -1.580  0.00  0.00    +0.189 A 
ATOM      5  N   UNL     1       3.545  -0.238  -2.155  0.00  0.00    -0.225 N 
ENDROOT
BRANCH   5   6
ATOM      6  N   UNL     1       3.503  -0.894  -3.353  0.00  0.00    -0.295 N 
ATOM      7  H   UNL     1       3.279  -0.260  -4.105  0.00  0.00    +0.163 HD
ATOM      8  H   UNL     1       4.371  -1.375  -3.532  0.00  0.00    +0.163 HD
ENDBRANCH   5   6
BRANCH   1   9
ATOM      9  S   UNL     1       0.849  -0.593  -1.492  0.00  0.00    -0.072 S 
BRANCH   9  11
ATOM     10  C   UNL     1      -0.008   1.520   0.019  0.00  0.00    +0.029 C 
ATOM     11  C   UNL     1       0.004  -0.010   0.003  0.00  0.00    +0.137 C 
BRANCH  11  12
ATOM     12  C   UNL     1      -1.412  -0.524   0.013  0.00  0.00    +0.230 C 
ATOM     13  O   UNL     1      -1.931  -0.892  -1.020  0.00  0.00    -0.274 OA
ATOM     14  N   UNL     1      -2.103  -0.575   1.169  0.00  0.00    -0.285 N 
ATOM     15  H   UNL     1      -1.668  -0.345   2.004  0.00  0.00    +0.155 HD
BRANCH  14  16
ATOM     16  C   UNL     1      -3.449  -0.960   1.163  0.00  0.00    +0.035 A 
ATOM     17  C   UNL     1      -4.343  -0.374   2.050  0.00  0.00    +0.026 A 
ATOM     18  C   UNL     1      -5.671  -0.755   2.043  0.00  0.00    +0.041 A 
ATOM     19  C   UNL     1      -6.111  -1.720   1.154  0.00  0.00    +0.142 A 
ATOM     20  C   UNL     1      -5.221  -2.306   0.268  0.00  0.00    +0.078 A 
ATOM     21  C   UNL     1      -3.893  -1.924   0.268  0.00  0.00    +0.046 A 
ATOM     22 CL   UNL     1      -5.776  -3.517  -0.846  0.00  0.00    -0.081 Cl
ATOM     23  F   UNL     1      -7.410  -2.092   1.149  0.00  0.00    -0.204 F 
ENDBRANCH  14  16
ENDBRANCH  11  12
ENDBRANCH   9  11
ENDBRANCH   1   9
BRANCH   4  24
ATOM     24  C   UNL     1       6.023   0.427  -2.153  0.00  0.00    +0.306 C 
BRANCH  24  25
ATOM     25  O   UNL     1       6.770  -0.711  -1.719  0.00  0.00    -0.484 OA
BRANCH  25  26
ATOM     26  C   UNL     1       8.055  -0.807  -2.150  0.00  0.00    +0.121 A 
ATOM     27  C   UNL     1       8.588   0.178  -2.969  0.00  0.00    +0.046 A 
ATOM     28  C   UNL     1       9.895   0.079  -3.405  0.00  0.00    +0.007 A 
ATOM     29  C   UNL     1      10.672  -1.001  -3.026  0.00  0.00    -0.045 A 
ATOM     30  C   UNL     1      10.143  -1.984  -2.210  0.00  0.00    +0.007 A 
ATOM     31  C   UNL     1       8.838  -1.886  -1.766  0.00  0.00    +0.046 A 
BRANCH  29  32
ATOM     32  C   UNL     1      12.097  -1.107  -3.504  0.00  0.00    +0.013 C 
ATOM     33  C   UNL     1      13.039  -1.133  -2.298  0.00  0.00    +0.012 C 
ATOM     34  C   UNL     1      12.269  -2.393  -4.314  0.00  0.00    +0.012 C 
ENDBRANCH  29  32
ENDBRANCH  25  26
ENDBRANCH  24  25
ENDBRANCH   4  24
TORSDOF 9
