REMARK  Name = ZINC65565455
REMARK  6 active torsions:
REMARK  status: ('A' for Active; 'I' for Inactive)
REMARK    1  A    between atoms: C_1  and  C_2
REMARK    2  A    between atoms: C_5  and  C_7
REMARK    3  A    between atoms: C_7  and  C_9
REMARK    4  A    between atoms: C_7  and  N_10
REMARK    5  A    between atoms: C_16  and  C_19
REMARK    6  A    between atoms: N_21  and  C_22
REMARK                            x       y       z     vdW  Elec       q    Type
REMARK                         _______ _______ _______ _____ _____    ______ ____
ROOT
ATOM      1  N   UNL     1       2.820  -2.969   0.861  0.00  0.00    -0.290 N 
ATOM      2  C   UNL     1       3.507  -3.989   1.413  0.00  0.00    +0.303 C 
ATOM      3  O   UNL     1       3.131  -5.134   1.252  0.00  0.00    -0.253 OA
ATOM      4  N   UNL     1       4.611  -3.739   2.144  0.00  0.00    -0.286 N 
ATOM      5  C   UNL     1       5.013  -2.358   2.445  0.00  0.00    +0.110 C 
ATOM      6  C   UNL     1       6.469  -2.162   2.009  0.00  0.00    +0.032 C 
ATOM      7  C   UNL     1       7.344  -3.230   2.669  0.00  0.00    +0.078 C 
ATOM      8  C   UNL     1       6.886  -4.619   2.216  0.00  0.00    +0.032 C 
ATOM      9  C   UNL     1       5.433  -4.843   2.660  0.00  0.00    +0.110 C 
ATOM     10  H   UNL     1       3.076  -2.053   1.049  0.00  0.00    +0.151 HD
ENDROOT
BRANCH   7  11
ATOM     11  C   UNL     1       8.781  -3.019   2.269  0.00  0.00    +0.216 C 
ATOM     12  O   UNL     1       9.077  -2.105   1.529  0.00  0.00    -0.276 OA
ATOM     13  N   UNL     1       9.738  -3.846   2.734  0.00  0.00    -0.318 N 
ATOM     14  C   UNL     1      11.136  -3.642   2.345  0.00  0.00    +0.128 C 
ATOM     15  H   UNL     1       9.502  -4.577   3.326  0.00  0.00    +0.148 HD
ENDBRANCH   7  11
BRANCH   1  16
ATOM     16  C   UNL     1       1.686  -3.245  -0.025  0.00  0.00    +0.137 C 
ATOM     17  C   UNL     1       2.195  -3.480  -1.448  0.00  0.00    +0.036 C 
BRANCH  16  22
ATOM     18  C   UNL     1      -0.017   1.502   0.006  0.00  0.00    +0.086 C 
ATOM     19  C   UNL     1       0.003  -0.004  -0.002  0.00  0.00    +0.102 A 
ATOM     20  C   UNL     1      -1.077  -0.806  -0.003  0.00  0.00    +0.045 A 
ATOM     21  C   UNL     1      -0.600  -2.137  -0.011  0.00  0.00    +0.047 A 
ATOM     22  C   UNL     1       0.744  -2.069  -0.016  0.00  0.00    +0.125 A 
ATOM     23  O   UNL     1       1.103  -0.775  -0.016  0.00  0.00    -0.463 OA
ENDBRANCH  16  22
ENDBRANCH   1  16
TORSDOF 3
