REMARK  Name = ZINC52565773
REMARK  6 active torsions:
REMARK  status: ('A' for Active; 'I' for Inactive)
REMARK    1  A    between atoms: C_6  and  S_7
REMARK    2  A    between atoms: S_7  and  N_10
REMARK    3  A    between atoms: C_14  and  C_16
REMARK    4  A    between atoms: C_16  and  C_17
REMARK    5  A    between atoms: C_17  and  N_18
REMARK    6  A    between atoms: C_21  and  C_24
REMARK                            x       y       z     vdW  Elec       q    Type
REMARK                         _______ _______ _______ _____ _____    ______ ____
ROOT
ATOM      1  N   UNL     1      -2.165  -2.086  -3.715  0.00  0.00    -0.174 NA
ATOM      2  C   UNL     1      -1.113  -2.193  -4.742  0.00  0.00    +0.110 C 
ATOM      3  C   UNL     1       0.190  -1.766  -4.021  0.00  0.00    +0.019 C 
ATOM      4  C   UNL     1      -0.023  -2.369  -2.608  0.00  0.00    +0.022 C 
ATOM      5  C   UNL     1      -1.541  -2.200  -2.388  0.00  0.00    +0.078 C 
ENDROOT
BRANCH   1   6
ATOM      6  S   UNL     1      -3.780  -1.866  -4.007  0.00  0.00    +0.061 S 
ATOM      7  O   UNL     1      -4.474  -2.458  -2.917  0.00  0.00    -0.153 OA
ATOM      8  O   UNL     1      -4.005  -2.255  -5.355  0.00  0.00    -0.153 OA
BRANCH   6  14
ATOM      9  C   UNL     1      -3.991   0.640  -5.062  0.00  0.00    +0.032 A 
ATOM     10  C   UNL     1      -4.237   2.001  -5.005  0.00  0.00    +0.049 A 
ATOM     11  C   UNL     1      -4.586   2.588  -3.802  0.00  0.00    +0.142 A 
ATOM     12  C   UNL     1      -4.689   1.806  -2.652  0.00  0.00    +0.078 A 
ATOM     13  C   UNL     1      -4.443   0.445  -2.716  0.00  0.00    +0.055 A 
ATOM     14  C   UNL     1      -4.094  -0.135  -3.922  0.00  0.00    +0.107 A 
ATOM     15  N   UNL     1      -5.043   2.414  -1.439  0.00  0.00    -0.280 N 
ATOM     16  C   UNL     1      -5.576   3.655  -1.460  0.00  0.00    +0.255 C 
ATOM     17  O   UNL     1      -5.861   4.213  -0.421  0.00  0.00    -0.272 OA
ATOM     18  C   UNL     1      -5.817   4.344  -2.779  0.00  0.00    +0.325 C 
ATOM     19  O   UNL     1      -4.832   3.923  -3.727  0.00  0.00    -0.481 OA
ATOM     20  H   UNL     1      -4.906   1.951  -0.598  0.00  0.00    +0.155 HD
ENDBRANCH   6  14
ENDBRANCH   1   6
BRANCH   5  21
ATOM     21  C   UNL     1      -2.098  -3.422  -1.655  0.00  0.00    +0.002 C 
BRANCH  21  22
ATOM     22  C   UNL     1      -1.506  -3.485  -0.246  0.00  0.00    -0.077 C 
BRANCH  22  23
ATOM     23  N   UNL     1      -1.938  -4.725   0.412  0.00  0.00    +0.380 N 
ATOM     24  C   UNL     1      -3.394  -4.698   0.595  0.00  0.00    -0.078 C 
ATOM     25  C   UNL     1      -3.860  -6.021   1.206  0.00  0.00    -0.011 C 
ATOM     26  C   UNL     1      -3.178  -6.218   2.563  0.00  0.00    +0.014 C 
ATOM     27  C   UNL     1      -1.659  -6.170   2.371  0.00  0.00    -0.011 C 
ATOM     28  C   UNL     1      -1.275  -4.842   1.717  0.00  0.00    -0.078 C 
ATOM     29  H   UNL     1      -1.688  -5.515  -0.163  0.00  0.00    -0.082 HD
BRANCH  26  30
ATOM     30  C   UNL     1      -3.572  -7.556   3.135  0.00  0.00    -0.039 C 
ATOM     31  C   UNL     1      -4.215  -7.783   4.301  0.00  0.00    +0.002 A 
ATOM     32  C   UNL     1      -4.732  -6.914   5.364  0.00  0.00    +0.029 A 
ATOM     33  C   UNL     1      -5.342  -7.484   6.429  0.00  0.00    +0.111 A 
ATOM     34  N   UNL     1      -5.499  -8.796   6.563  0.00  0.00    -0.261 NA
ATOM     35  C   UNL     1      -5.090  -9.681   5.699  0.00  0.00    +0.136 A 
ATOM     36  C   UNL     1      -4.402  -9.244   4.476  0.00  0.00    +0.061 A 
ATOM     37  N   UNL     1      -3.897  -9.890   3.461  0.00  0.00    -0.379 N 
ATOM     38  C   UNL     1      -3.333  -8.916   2.518  0.00  0.00    +0.145 C 
ATOM     39  H   UNL     1      -3.897 -10.854   3.346  0.00  0.00    +0.160 HD
ENDBRANCH  26  30
ENDBRANCH  22  23
ENDBRANCH  21  22
ENDBRANCH   5  21
TORSDOF 6
