REMARK  Name = ZINC44021257
REMARK  4 active torsions:
REMARK  status: ('A' for Active; 'I' for Inactive)
REMARK    1  A    between atoms: C_3  and  N_8
REMARK    2  A    between atoms: C_5  and  O_7
REMARK    3  A    between atoms: N_8  and  C_9
REMARK    4  A    between atoms: N_13  and  C_18
REMARK                            x       y       z     vdW  Elec       q    Type
REMARK                         _______ _______ _______ _____ _____    ______ ____
ROOT
ATOM      1  C   UNL     1       3.618   3.501   0.084  0.00  0.00    +0.109 A 
ATOM      2  C   UNL     1       2.408   4.100   0.297  0.00  0.00    +0.112 A 
ATOM      3  C   UNL     1       2.349   5.498   0.411  0.00  0.00    +0.259 A 
ATOM      4  O   UNL     1       1.281   6.054   0.602  0.00  0.00    -0.267 OA
ATOM      5  N   UNL     1       3.481   6.222   0.307  0.00  0.00    -0.255 N 
ATOM      6  C   UNL     1       4.664   5.617   0.097  0.00  0.00    +0.331 A 
ATOM      7  O   UNL     1       5.673   6.289   0.007  0.00  0.00    -0.246 OA
ATOM      8  N   UNL     1       4.748   4.278  -0.010  0.00  0.00    -0.295 N 
ATOM      9  H   UNL     1       5.610   3.859  -0.158  0.00  0.00    +0.172 HD
ENDROOT
BRANCH   5  10
ATOM     10  C   UNL     1       3.423   7.681   0.424  0.00  0.00    +0.054 C 
ATOM     11  C   UNL     1       3.928   8.317  -0.872  0.00  0.00    +0.032 C 
ATOM     12  C   UNL     1       3.868   9.841  -0.750  0.00  0.00    -0.008 C 
ATOM     13  C   UNL     1       2.422  10.276  -0.498  0.00  0.00    +0.007 C 
ATOM     14  C   UNL     1       1.917   9.639   0.798  0.00  0.00    -0.008 C 
ATOM     15  C   UNL     1       1.978   8.115   0.676  0.00  0.00    +0.032 C 
ATOM     16  C   UNL     1       2.796  10.093   1.965  0.00  0.00    +0.007 C 
ATOM     17  C   UNL     1       4.241   9.658   1.714  0.00  0.00    -0.008 C 
ATOM     18  C   UNL     1       4.747  10.295   0.418  0.00  0.00    +0.007 C 
ATOM     19  C   UNL     1       4.302   8.134   1.592  0.00  0.00    +0.032 C 
ENDBRANCH   5  10
BRANCH   1  20
ATOM     20  N   UNL     1       3.704   2.136  -0.030  0.00  0.00    -0.301 N 
ATOM     21  H   UNL     1       2.922   1.585   0.129  0.00  0.00    +0.154 HD
BRANCH  20  24
ATOM     22  C   UNL     1       6.521  -0.227  -0.095  0.00  0.00    +0.005 A 
ATOM     23  C   UNL     1       5.320   0.363   0.247  0.00  0.00    +0.023 A 
ATOM     24  C   UNL     1       4.921   1.539  -0.375  0.00  0.00    +0.036 A 
ATOM     25  C   UNL     1       5.731   2.120  -1.341  0.00  0.00    +0.068 A 
ATOM     26  C   UNL     1       6.936   1.526  -1.681  0.00  0.00    +0.119 A 
ATOM     27  C   UNL     1       7.329   0.350  -1.056  0.00  0.00    +0.045 A 
BRANCH  26  28
ATOM     28  O   UNL     1       7.731   2.092  -2.626  0.00  0.00    -0.507 OA
ATOM     29  H   UNL     1       8.370   2.726  -2.273  0.00  0.00    +0.292 HD
ENDBRANCH  26  28
ENDBRANCH  20  24
ENDBRANCH   1  20
TORSDOF 4
