REMARK  Name = ZINC40812017
REMARK  10 active torsions:
REMARK  status: ('A' for Active; 'I' for Inactive)
REMARK    1  A    between atoms: C_1  and  C_2
REMARK    2  A    between atoms: C_2  and  C_3
REMARK    3  A    between atoms: C_3  and  C_4
REMARK    4  A    between atoms: C_4  and  C_5
REMARK    5  A    between atoms: C_8  and  N_11
REMARK    6  A    between atoms: C_12  and  C_14
REMARK    7  A    between atoms: C_15  and  C_34
REMARK    8  A    between atoms: N_23  and  N_24
REMARK    9  A    between atoms: C_25  and  C_27
REMARK   10  A    between atoms: C_30  and  O_33
REMARK                            x       y       z     vdW  Elec       q    Type
REMARK                         _______ _______ _______ _____ _____    ______ ____
ROOT
ATOM      1  C   UNL     1       3.576  -4.448   8.208  0.00  0.00    +0.193 A 
ATOM      2  C   UNL     1       3.026  -4.636   9.445  0.00  0.00    +0.009 A 
ATOM      3  C   UNL     1       4.083  -4.986  10.295  0.00  0.00    +0.042 A 
ATOM      4  C   UNL     1       5.232  -4.996   9.541  0.00  0.00    +0.115 A 
ATOM      5  O   UNL     1       4.907  -4.677   8.290  0.00  0.00    -0.454 OA
ATOM      6  C   UNL     1       6.587  -5.326  10.114  0.00  0.00    +0.075 C 
ATOM      7  C   UNL     1       6.559  -5.126  11.632  0.00  0.00    +0.014 C 
ATOM      8  C   UNL     1       5.395  -5.902  12.258  0.00  0.00    +0.058 C 
ATOM      9  C   UNL     1       4.093  -5.310  11.739  0.00  0.00    +0.070 C 
ATOM     10  N   UNL     1       3.067  -5.104  12.506  0.00  0.00    -0.184 NA
ATOM     11  C   UNL     1       1.573  -4.494   9.820  0.00  0.00    +0.048 C 
ENDROOT
BRANCH   1  13
ATOM     12  N   UNL     1       3.506  -3.919   5.829  0.00  0.00    -0.279 N 
ATOM     13  C   UNL     1       2.846  -4.068   6.994  0.00  0.00    +0.284 C 
ATOM     14  O   UNL     1       1.643  -3.887   7.039  0.00  0.00    -0.266 OA
ATOM     15  H   UNL     1       4.450  -4.137   5.775  0.00  0.00    +0.155 HD
BRANCH  12  19
ATOM     16  C   UNL     1       1.495  -2.523   2.459  0.00  0.00    -0.047 A 
ATOM     17  C   UNL     1       2.522  -3.439   2.320  0.00  0.00    +0.005 A 
ATOM     18  C   UNL     1       3.191  -3.904   3.435  0.00  0.00    +0.023 A 
ATOM     19  C   UNL     1       2.831  -3.450   4.697  0.00  0.00    +0.034 A 
ATOM     20  C   UNL     1       1.800  -2.530   4.834  0.00  0.00    +0.023 A 
ATOM     21  C   UNL     1       1.138  -2.066   3.714  0.00  0.00    +0.005 A 
BRANCH  16  22
ATOM     22  C   UNL     1       0.768  -2.018   1.239  0.00  0.00    +0.035 C 
BRANCH  22  23
ATOM     23  C   UNL     1       1.474  -0.771   0.705  0.00  0.00    +0.004 C 
BRANCH  23  25
ATOM     24  C   UNL     1       1.441   0.990  -1.068  0.00  0.00    +0.004 C 
ATOM     25  C   UNL     1       0.735  -0.258  -0.533  0.00  0.00    -0.003 C 
ENDBRANCH  23  25
ENDBRANCH  22  23
ENDBRANCH  16  22
ENDBRANCH  12  19
ENDBRANCH   1  13
BRANCH  10  26
ATOM     26  N   UNL     1       3.134  -5.429  13.867  0.00  0.00    -0.203 N 
ATOM     27  C   UNL     1       2.068  -5.215  14.664  0.00  0.00    +0.263 C 
ATOM     28  O   UNL     1       1.049  -4.739  14.201  0.00  0.00    -0.268 OA
ATOM     29  H   UNL     1       3.947  -5.809  14.236  0.00  0.00    +0.178 HD
BRANCH  27  30
ATOM     30  C   UNL     1       2.138  -5.558  16.097  0.00  0.00    +0.039 A 
ATOM     31  C   UNL     1       3.310  -6.100  16.632  0.00  0.00    +0.016 A 
ATOM     32  C   UNL     1       3.372  -6.418  17.970  0.00  0.00    +0.046 A 
ATOM     33  C   UNL     1       2.270  -6.202  18.789  0.00  0.00    +0.117 A 
ATOM     34  C   UNL     1       1.102  -5.663  18.262  0.00  0.00    +0.046 A 
ATOM     35  C   UNL     1       1.034  -5.337  16.925  0.00  0.00    +0.016 A 
BRANCH  33  36
ATOM     36  O   UNL     1       2.334  -6.517  20.108  0.00  0.00    -0.507 OA
ATOM     37  H   UNL     1       2.647  -5.795  20.670  0.00  0.00    +0.292 HD
ENDBRANCH  33  36
ENDBRANCH  27  30
ENDBRANCH  10  26
TORSDOF 8
