REMARK  Name = ZINC08926176
REMARK  6 active torsions:
REMARK  status: ('A' for Active; 'I' for Inactive)
REMARK    1  A    between atoms: C_1  and  N_2
REMARK    2  A    between atoms: C_11  and  C_25
REMARK    3  A    between atoms: C_13  and  C_21
REMARK    4  A    between atoms: C_13  and  C_23
REMARK    5  A    between atoms: C_14  and  N_20
REMARK    6  A    between atoms: C_15  and  C_18
REMARK                            x       y       z     vdW  Elec       q    Type
REMARK                         _______ _______ _______ _____ _____    ______ ____
ROOT
ATOM      1  C   UNL     1       0.961   3.750  -1.657  0.00  0.00    +0.105 C 
ATOM      2  N   UNL     1       2.052   3.964  -0.698  0.00  0.00    -0.295 NA
ATOM      3  C   UNL     1       3.272   3.205  -1.097  0.00  0.00    +0.080 C 
ATOM      4  C   UNL     1       4.109   3.120   0.197  0.00  0.00    +0.024 C 
ATOM      5  C   UNL     1       3.087   3.277   1.343  0.00  0.00    +0.021 C 
ATOM      6  C   UNL     1       1.716   3.385   0.628  0.00  0.00    +0.065 C 
ATOM      7  C   UNL     1       1.187   1.972   0.438  0.00  0.00    +0.047 C 
ATOM      8  C   UNL     1      -0.332   1.939   0.272  0.00  0.00    +0.069 C 
ATOM      9  C   UNL     1      -0.796   0.482   0.291  0.00  0.00    +0.188 C 
ATOM     10  C   UNL     1       0.005  -0.379  -0.637  0.00  0.00    +0.054 C 
ATOM     11  C   UNL     1       1.224  -0.031  -1.129  0.00  0.00    +0.074 C 
ATOM     12  C   UNL     1       1.793   1.287  -0.758  0.00  0.00    -0.026 C 
ATOM     13  C   UNL     1       2.786   1.814  -1.451  0.00  0.00    -0.003 C 
ENDROOT
BRANCH   8  14
ATOM     14  C   UNL     1      -0.981   2.691   1.405  0.00  0.00    -0.027 A 
ATOM     15  C   UNL     1      -0.629   2.410   2.712  0.00  0.00    +0.005 A 
ATOM     16  C   UNL     1      -1.221   3.103   3.752  0.00  0.00    +0.000 A 
ATOM     17  C   UNL     1      -2.172   4.071   3.485  0.00  0.00    +0.001 A 
ATOM     18  C   UNL     1      -2.527   4.349   2.179  0.00  0.00    +0.015 A 
ATOM     19  C   UNL     1      -1.932   3.659   1.138  0.00  0.00    +0.021 A 
ATOM     20 BR   UNL     1      -2.418   4.040  -0.649  0.00  0.00    -0.050 Br
ENDBRANCH   8  14
BRANCH  10  21
ATOM     21  N   UNL     1      -0.520  -1.583  -1.012  0.00  0.00    -0.358 N 
ATOM     22  H   UNL     1       0.042  -2.240  -1.692  0.00  0.00    +0.142 HD
ATOM     23  H   UNL     1      -1.504  -1.896  -0.633  0.00  0.00    +0.142 HD
ENDBRANCH  10  21
BRANCH  11  24
ATOM     24  C   UNL     1       1.944  -0.920  -1.990  0.00  0.00    +0.101 C 
ATOM     25  N   UNL     1       2.515  -1.626  -2.673  0.00  0.00    -0.191 NA
ENDBRANCH  11  24
BRANCH   9  26
ATOM     26  C   UNL     1      -0.667  -0.043   1.660  0.00  0.00    +0.091 C 
ATOM     27  N   UNL     1      -0.568  -0.448   2.716  0.00  0.00    -0.194 NA
ENDBRANCH   9  26
BRANCH   9  28
ATOM     28  C   UNL     1      -2.211   0.426  -0.111  0.00  0.00    +0.091 C 
ATOM     29  N   UNL     1      -3.303   0.383  -0.421  0.00  0.00    -0.194 NA
ENDBRANCH   9  28
TORSDOF 5
