REMARK  Name = ZINC41804523
REMARK  5 active torsions:
REMARK  status: ('A' for Active; 'I' for Inactive)
REMARK    1  A    between atoms: C_7  and  C_11
REMARK    2  A    between atoms: C_7  and  N_14
REMARK    3  A    between atoms: N_14  and  C_15
REMARK    4  A    between atoms: C_15  and  C_16
REMARK    5  A    between atoms: C_16  and  C_17
REMARK                            x       y       z     vdW  Elec       q    Type
REMARK                         _______ _______ _______ _____ _____    ______ ____
ROOT
ATOM      1  C   UNL     1       0.288   1.496  -0.455  0.00  0.00    +0.000 A 
ATOM      2  C   UNL     1       1.516   2.064  -0.170  0.00  0.00    +0.004 A 
ATOM      3  C   UNL     1       2.584   1.261   0.170  0.00  0.00    +0.046 A 
ATOM      4  C   UNL     1       2.431  -0.121   0.227  0.00  0.00    +0.123 A 
ATOM      5  C   UNL     1       1.202  -0.687  -0.062  0.00  0.00    -0.006 A 
ATOM      6  C   UNL     1       0.132   0.125  -0.400  0.00  0.00    +0.006 A 
ATOM      7  C   UNL     1       0.996  -2.180  -0.023  0.00  0.00    +0.068 C 
ATOM      8  C   UNL     1       2.126  -2.836   0.774  0.00  0.00    +0.044 C 
ATOM      9  C   UNL     1       3.461  -2.274   0.269  0.00  0.00    +0.228 C 
ATOM     10  O   UNL     1       3.505  -0.879   0.571  0.00  0.00    -0.492 OA
ENDROOT
BRANCH   7  11
ATOM     11  C   UNL     1      -0.325  -2.487   0.634  0.00  0.00    +0.350 C 
ATOM     12  O   UNL     1      -1.241  -2.950  -0.025  0.00  0.00    -0.248 OA
ATOM     13  O   UNL     1      -0.478  -2.272   1.824  0.00  0.00    -0.248 OA
ENDBRANCH   7  11
BRANCH   7  14
ATOM     14  N   UNL     1       0.994  -2.709  -1.394  0.00  0.00    +0.393 N 
ATOM     15  H   UNL     1       0.193  -2.350  -1.891  0.00  0.00    -0.084 HD
ATOM     16  H   UNL     1       1.839  -2.424  -1.866  0.00  0.00    -0.084 HD
BRANCH  14  17
ATOM     17  C   UNL     1       0.927  -4.176  -1.353  0.00  0.00    -0.071 C 
BRANCH  17  18
ATOM     18  C   UNL     1       0.851  -4.723  -2.779  0.00  0.00    +0.076 C 
BRANCH  18  19
ATOM     19  C   UNL     1       0.782  -6.228  -2.737  0.00  0.00    +0.209 C 
ATOM     20  O   UNL     1       0.793  -6.806  -1.671  0.00  0.00    -0.276 OA
ATOM     21  N   UNL     1       0.709  -6.932  -3.884  0.00  0.00    -0.329 N 
ATOM     22  H   UNL     1       0.700  -6.470  -4.737  0.00  0.00    +0.145 HD
ATOM     23  H   UNL     1       0.665  -7.900  -3.857  0.00  0.00    +0.145 HD
ENDBRANCH  18  19
ENDBRANCH  17  18
ENDBRANCH  14  17
ENDBRANCH   7  14
TORSDOF 5
