REMARK  Name = ZINC29124157
REMARK  6 active torsions:
REMARK  status: ('A' for Active; 'I' for Inactive)
REMARK    1  A    between atoms: C_1  and  C_2
REMARK    2  A    between atoms: C_3  and  C_29
REMARK    3  A    between atoms: C_6  and  C_20
REMARK    4  A    between atoms: C_10  and  C_11
REMARK    5  A    between atoms: C_14  and  C_17
REMARK    6  A    between atoms: C_23  and  C_26
REMARK                            x       y       z     vdW  Elec       q    Type
REMARK                         _______ _______ _______ _____ _____    ______ ____
ROOT
ATOM      1  C   UNL     1       1.630  -5.724  -0.046  0.00  0.00    +0.045 C 
ATOM      2  C   UNL     1       0.844  -4.439  -0.031  0.00  0.00    -0.035 A 
ATOM      3  C   UNL     1       1.488  -3.244  -0.030  0.00  0.00    -0.004 A 
ATOM      4  C   UNL     1       0.737  -2.049  -0.016  0.00  0.00    +0.141 A 
ATOM      5  N   UNL     1       1.101  -0.776  -0.018  0.00  0.00    -0.228 NA
ATOM      6  C   UNL     1       0.002  -0.004   0.002  0.00  0.00    +0.090 A 
ATOM      7  C   UNL     1      -1.091  -0.817   0.008  0.00  0.00    +0.121 A 
ATOM      8  N   UNL     1      -0.633  -2.105  -0.003  0.00  0.00    -0.305 N 
ATOM      9  C   UNL     1      -1.278  -3.307  -0.004  0.00  0.00    +0.101 A 
ATOM     10  C   UNL     1      -0.571  -4.470  -0.018  0.00  0.00    +0.002 A 
ATOM     11  C   UNL     1       2.994  -3.194  -0.044  0.00  0.00    +0.048 C 
ENDROOT
BRANCH  10  12
ATOM     12  C   UNL     1      -1.283  -5.770  -0.020  0.00  0.00    -0.016 A 
ATOM     13  C   UNL     1      -0.950  -6.747  -0.958  0.00  0.00    +0.009 A 
ATOM     14  C   UNL     1      -1.608  -7.957  -0.957  0.00  0.00    +0.012 A 
ATOM     15  C   UNL     1      -2.616  -8.202  -0.022  0.00  0.00    +0.012 A 
ATOM     16  C   UNL     1      -2.953  -7.222   0.913  0.00  0.00    +0.012 A 
ATOM     17  C   UNL     1      -2.291  -6.014   0.914  0.00  0.00    +0.009 A 
BRANCH  15  18
ATOM     18  C   UNL     1      -3.326  -9.499  -0.023  0.00  0.00    +0.094 C 
ATOM     19  N   UNL     1      -4.267  -9.728   0.849  0.00  0.00    -0.387 N 
ATOM     20  N   UNL     1      -2.994 -10.466  -0.947  0.00  0.00    -0.345 N 
ATOM     21  H   UNL     1      -4.795 -10.692   0.848  0.00  0.00    +0.157 HD
ATOM     22  H   UNL     1      -3.522 -11.431  -0.948  0.00  0.00    +0.144 HD
ATOM     23  H   UNL     1      -2.200 -10.274  -1.683  0.00  0.00    +0.144 HD
ATOM     24  H   UNL     1      -4.533  -8.956   1.586  0.00  0.00    +0.157 HD
ENDBRANCH  15  18
ENDBRANCH  10  12
BRANCH   6  25
ATOM     25  C   UNL     1      -0.018   1.478   0.010  0.00  0.00    +0.002 A 
ATOM     26  C   UNL     1      -1.236   2.159   0.020  0.00  0.00    +0.011 A 
ATOM     27  C   UNL     1      -1.255   3.536   0.032  0.00  0.00    +0.012 A 
ATOM     28  C   UNL     1      -0.056   4.250   0.025  0.00  0.00    +0.012 A 
ATOM     29  C   UNL     1       1.163   3.569   0.010  0.00  0.00    +0.012 A 
ATOM     30  C   UNL     1       1.181   2.192   0.003  0.00  0.00    +0.011 A 
BRANCH  28  31
ATOM     31  C   UNL     1      -0.076   5.730   0.032  0.00  0.00    +0.094 C 
ATOM     32  N   UNL     1       1.044   6.397   0.024  0.00  0.00    -0.387 N 
ATOM     33  N   UNL     1      -1.278   6.403   0.046  0.00  0.00    -0.345 N 
ATOM     34  H   UNL     1       1.029   7.497   0.029  0.00  0.00    +0.157 HD
ATOM     35  H   UNL     1      -1.293   7.503   0.052  0.00  0.00    +0.144 HD
ATOM     36  H   UNL     1      -2.224   5.840   0.053  0.00  0.00    +0.144 HD
ATOM     37  H   UNL     1       2.004   5.860   0.012  0.00  0.00    +0.157 HD
ENDBRANCH  28  31
ENDBRANCH   6  25
TORSDOF 4
