REMARK  Name = ZINC40935333
REMARK  5 active torsions:
REMARK  status: ('A' for Active; 'I' for Inactive)
REMARK    1  A    between atoms: C_1  and  C_2
REMARK    2  A    between atoms: C_6  and  C_8
REMARK    3  A    between atoms: C_9  and  C_17
REMARK    4  A    between atoms: N_13  and  C_14
REMARK    5  A    between atoms: C_14  and  C_16
REMARK                            x       y       z     vdW  Elec       q    Type
REMARK                         _______ _______ _______ _____ _____    ______ ____
ROOT
ATOM      1  C   UNL     1       0.710  -2.488   2.619  0.00  0.00    +0.092 A 
ATOM      2  C   UNL     1       0.532  -1.791   3.773  0.00  0.00    +0.076 A 
ATOM      3  N   UNL     1       0.204  -2.697   4.767  0.00  0.00    -0.325 N 
ATOM      4  C   UNL     1       0.182  -3.939   4.217  0.00  0.00    +0.198 A 
ATOM      5  N   UNL     1       0.485  -3.829   2.898  0.00  0.00    -0.324 N 
ATOM      6  N   UNL     1      -0.094  -5.073   4.861  0.00  0.00    -0.151 NA
ATOM      7  H   UNL     1       0.537  -4.560   2.263  0.00  0.00    +0.169 HD
ATOM      8  H   UNL     1       0.021  -2.483   5.695  0.00  0.00    +0.169 HD
ENDROOT
BRANCH   2   9
ATOM      9  C   UNL     1       0.666  -0.329   3.938  0.00  0.00    +0.019 A 
ATOM     10  C   UNL     1       0.587   0.522   2.810  0.00  0.00    +0.015 A 
ATOM     11  C   UNL     1       0.712   1.865   2.974  0.00  0.00    +0.049 A 
ATOM     12  C   UNL     1       0.917   2.389   4.265  0.00  0.00    +0.156 A 
ATOM     13  N   UNL     1       1.071   3.628   4.720  0.00  0.00    -0.215 NA
ATOM     14  C   UNL     1       1.238   3.603   6.034  0.00  0.00    +0.246 A 
ATOM     15  N   UNL     1       1.197   2.363   6.461  0.00  0.00    -0.154 NA
ATOM     16  N   UNL     1       0.990   1.548   5.339  0.00  0.00    -0.220 N 
ATOM     17  C   UNL     1       0.861   0.205   5.181  0.00  0.00    +0.124 A 
ENDBRANCH   2   9
BRANCH   1  23
ATOM     18  C   UNL     1      -0.494  -1.659  -2.018  0.00  0.00    +0.068 C 
ATOM     19  C   UNL     1       0.505  -1.523  -0.898  0.00  0.00    +0.074 A 
ATOM     20  C   UNL     1       1.710  -0.882  -1.131  0.00  0.00    +0.144 A 
ATOM     21  C   UNL     1       2.629  -0.758  -0.095  0.00  0.00    +0.042 A 
ATOM     22  C   UNL     1       2.305  -1.285   1.141  0.00  0.00    +0.033 A 
ATOM     23  C   UNL     1       1.071  -1.920   1.306  0.00  0.00    +0.090 A 
ATOM     24  N   UNL     1       0.218  -2.013   0.291  0.00  0.00    -0.247 NA
ATOM     25  F   UNL     1       1.990  -0.380  -2.354  0.00  0.00    -0.204 F 
ENDBRANCH   1  23
BRANCH   6  26
ATOM     26  C   UNL     1      -0.465  -5.038   6.136  0.00  0.00    +0.176 C 
ATOM     27  O   UNL     1      -0.647  -3.970   6.688  0.00  0.00    -0.497 OA
ATOM     28  C   UNL     1      -0.660  -6.323   6.899  0.00  0.00    +0.106 C 
ATOM     29  H   UNL     1      -1.313  -3.414   6.259  0.00  0.00    +0.293 HD
ENDBRANCH   6  26
TORSDOF 3
