REMARK  Name = ZINC08579539
REMARK  8 active torsions:
REMARK  status: ('A' for Active; 'I' for Inactive)
REMARK    1  A    between atoms: C_1  and  C_2
REMARK    2  A    between atoms: C_5  and  C_7
REMARK    3  A    between atoms: N_17  and  N_18
REMARK    4  A    between atoms: N_18  and  C_19
REMARK    5  A    between atoms: C_19  and  N_21
REMARK    6  A    between atoms: N_22  and  O_26
REMARK    7  A    between atoms: C_23  and  C_24
REMARK    8  A    between atoms: C_23  and  C_25
REMARK                            x       y       z     vdW  Elec       q    Type
REMARK                         _______ _______ _______ _____ _____    ______ ____
ROOT
ATOM      1  C   UNL     1       1.679  -3.211  -0.041  0.00  0.00    +0.124 C 
ATOM      2  N   UNL     1       1.298  -4.452  -0.065  0.00  0.00    -0.135 N 
ATOM      3  O   UNL     1      -0.062  -4.827  -0.134  0.00  0.00    -0.166 OA
ATOM      4  C   UNL     1       2.463  -5.357   0.002  0.00  0.00    +0.197 C 
ATOM      5  C   UNL     1       2.296  -6.442  -1.091  0.00  0.00    +0.056 C 
ATOM      6  C   UNL     1       1.685  -7.774  -0.563  0.00  0.00    +0.004 C 
ATOM      7  C   UNL     1       0.539  -7.564   0.383  0.00  0.00    +0.000 C 
ATOM      8  C   UNL     1       1.172  -7.593   1.780  0.00  0.00    +0.006 C 
ATOM      9  C   UNL     1       1.547  -6.267   2.276  0.00  0.00    +0.056 C 
ATOM     10  C   UNL     1       2.721  -5.821   1.380  0.00  0.00    +0.082 C 
ATOM     11  N   UNL     1       3.921  -5.867   1.834  0.00  0.00    -0.186 NA
ATOM     12  N   UNL     1       3.618  -4.509  -0.423  0.00  0.00    -0.145 NA
ATOM     13  C   UNL     1       3.187  -3.141  -0.051  0.00  0.00    +0.091 C 
ATOM     14  C   UNL     1       3.659  -2.137  -1.109  0.00  0.00    +0.037 C 
ATOM     15  C   UNL     1       3.724  -2.743   1.323  0.00  0.00    +0.037 C 
ENDROOT
BRANCH   1  20
ATOM     16  C   UNL     1       0.044   1.524  -0.037  0.00  0.00    +0.086 C 
ATOM     17  C   UNL     1       0.051   0.017  -0.034  0.00  0.00    +0.103 A 
ATOM     18  C   UNL     1      -1.042  -0.774  -0.025  0.00  0.00    +0.045 A 
ATOM     19  C   UNL     1      -0.589  -2.105  -0.026  0.00  0.00    +0.051 A 
ATOM     20  C   UNL     1       0.774  -2.055  -0.036  0.00  0.00    +0.152 A 
ATOM     21  O   UNL     1       1.145  -0.759  -0.045  0.00  0.00    -0.459 OA
ENDBRANCH   1  20
BRANCH  11  22
ATOM     22  N   UNL     1       4.152  -6.215   3.171  0.00  0.00    -0.219 N 
ATOM     23  H   UNL     1       3.413  -6.497   3.733  0.00  0.00    +0.176 HD
BRANCH  22  24
ATOM     24  C   UNL     1       5.400  -6.158   3.677  0.00  0.00    +0.147 C 
ATOM     25  S   UNL     1       5.682  -6.583   5.311  0.00  0.00    -0.017 S 
BRANCH  24  26
ATOM     26  N   UNL     1       6.426  -5.766   2.896  0.00  0.00    -0.339 N 
ATOM     27  H   UNL     1       6.267  -5.525   1.970  0.00  0.00    +0.144 HD
ATOM     28  H   UNL     1       7.325  -5.725   3.260  0.00  0.00    +0.144 HD
ENDBRANCH  24  26
ENDBRANCH  22  24
ENDBRANCH  11  22
BRANCH  12  29
ATOM     29  O   UNL     1       3.835  -4.598  -1.868  0.00  0.00    -0.309 OA
ATOM     30  H   UNL     1       4.575  -4.064  -2.189  0.00  0.00    +0.237 HD
ENDBRANCH  12  29
TORSDOF 5
