REMARK  Name = ZINC28376859
REMARK  11 active torsions:
REMARK  status: ('A' for Active; 'I' for Inactive)
REMARK    1  A    between atoms: C_1  and  C_2
REMARK    2  A    between atoms: C_2  and  N_3
REMARK    3  A    between atoms: C_4  and  C_6
REMARK    4  A    between atoms: C_6  and  O_7
REMARK    5  A    between atoms: O_7  and  C_8
REMARK    6  A    between atoms: C_11  and  N_14
REMARK    7  A    between atoms: N_14  and  C_15
REMARK    8  A    between atoms: C_15  and  C_17
REMARK    9  A    between atoms: C_15  and  C_18
REMARK   10  A    between atoms: N_23  and  C_24
REMARK   11  A    between atoms: C_27  and  C_30
REMARK                            x       y       z     vdW  Elec       q    Type
REMARK                         _______ _______ _______ _____ _____    ______ ____
ROOT
ATOM      1  C   UNL     1       3.611  -6.234  -0.483  0.00  0.00    +0.154 C 
ATOM      2  C   UNL     1       2.964  -6.853   0.758  0.00  0.00    +0.038 C 
ENDROOT
BRANCH   1   3
ATOM      3  C   UNL     1       3.596  -4.732  -0.362  0.00  0.00    +0.240 C 
ATOM      4  O   UNL     1       4.638  -4.113  -0.369  0.00  0.00    -0.273 OA
ATOM      5  N   UNL     1       2.424  -4.077  -0.245  0.00  0.00    -0.238 N 
ATOM      6  C   UNL     1       2.410  -2.734  -0.137  0.00  0.00    +0.310 C 
ATOM      7  O   UNL     1       3.454  -2.113  -0.144  0.00  0.00    -0.252 OA
ATOM      8  N   UNL     1       1.237  -2.080  -0.020  0.00  0.00    -0.269 N 
ATOM      9  H   UNL     1       1.478  -4.640  -0.239  0.00  0.00    +0.159 HD
ATOM     10  H   UNL     1       0.298  -2.645   0.074  0.00  0.00    +0.156 HD
BRANCH   8  11
ATOM     11  C   UNL     1       1.214  -0.680  -0.020  0.00  0.00    +0.035 A 
ATOM     12  C   UNL     1       2.137   0.031  -0.775  0.00  0.00    +0.023 A 
ATOM     13  C   UNL     1       2.111   1.412  -0.773  0.00  0.00    +0.005 A 
ATOM     14  C   UNL     1       1.168   2.086  -0.019  0.00  0.00    -0.050 A 
ATOM     15  C   UNL     1       0.248   1.381   0.734  0.00  0.00    +0.005 A 
ATOM     16  C   UNL     1       0.268  -0.001   0.736  0.00  0.00    +0.023 A 
ATOM     17  C   UNL     1       1.143   3.593  -0.019  0.00  0.00    +0.044 C 
ENDBRANCH   8  11
ENDBRANCH   1   3
BRANCH   1  18
ATOM     18  N   UNL     1       4.995  -6.701  -0.596  0.00  0.00    -0.333 N 
ATOM     19  H   UNL     1       5.816  -6.093  -0.187  0.00  0.00    +0.147 HD
BRANCH  18  23
ATOM     20  C   UNL     1       5.825 -10.333  -2.466  0.00  0.00    +0.121 A 
ATOM     21  C   UNL     1       6.859  -9.566  -1.950  0.00  0.00    +0.047 A 
ATOM     22  C   UNL     1       6.586  -8.363  -1.331  0.00  0.00    +0.026 A 
ATOM     23  C   UNL     1       5.274  -7.920  -1.223  0.00  0.00    +0.028 A 
ATOM     24  C   UNL     1       4.238  -8.691  -1.734  0.00  0.00    +0.026 A 
ATOM     25  C   UNL     1       4.514  -9.891  -2.359  0.00  0.00    +0.047 A 
BRANCH  20  26
ATOM     26  O   UNL     1       6.095 -11.518  -3.075  0.00  0.00    -0.483 OA
BRANCH  26  27
ATOM     27  C   UNL     1       4.982 -12.255  -3.583  0.00  0.00    +0.324 C 
BRANCH  27  29
ATOM     28  N   UNL     1       4.591 -14.390  -4.770  0.00  0.00    -0.313 N 
ATOM     29  C   UNL     1       5.471 -13.530  -4.220  0.00  0.00    +0.251 C 
ATOM     30  O   UNL     1       6.658 -13.783  -4.237  0.00  0.00    -0.272 OA
ATOM     31  H   UNL     1       3.516 -14.161  -4.754  0.00  0.00    +0.149 HD
BRANCH  28  33
ATOM     32  C   UNL     1       3.875 -16.420  -5.932  0.00  0.00    +0.024 C 
ATOM     33  C   UNL     1       5.068 -15.630  -5.388  0.00  0.00    +0.101 C 
ENDBRANCH  28  33
ENDBRANCH  27  29
ENDBRANCH  26  27
ENDBRANCH  20  26
ENDBRANCH  18  23
ENDBRANCH   1  18
TORSDOF 8
