REMARK  Name = ZINC51968288
REMARK  10 active torsions:
REMARK  status: ('A' for Active; 'I' for Inactive)
REMARK    1  A    between atoms: C_1  and  C_2
REMARK    2  A    between atoms: C_3  and  N_13
REMARK    3  A    between atoms: C_5  and  C_11
REMARK    4  A    between atoms: C_7  and  N_8
REMARK    5  A    between atoms: N_13  and  C_14
REMARK    6  A    between atoms: C_14  and  C_15
REMARK    7  A    between atoms: C_15  and  C_17
REMARK    8  A    between atoms: C_15  and  O_25
REMARK    9  A    between atoms: C_20  and  O_23
REMARK   10  A    between atoms: O_23  and  C_24
REMARK                            x       y       z     vdW  Elec       q    Type
REMARK                         _______ _______ _______ _____ _____    ______ ____
ROOT
ATOM      1  N   UNL     1      -0.726  -0.038  -2.326  0.00  0.00    -0.341 N 
ATOM      2  H   UNL     1      -0.914   0.913  -2.293  0.00  0.00    +0.146 HD
ENDROOT
BRANCH   1   5
ATOM      3  C   UNL     1      -0.539   1.447   0.089  0.00  0.00    +0.048 C 
ATOM      4  C   UNL     1      -0.248  -0.031   0.040  0.00  0.00    +0.001 A 
ATOM      5  C   UNL     1      -0.351  -0.718  -1.165  0.00  0.00    +0.034 A 
ATOM      6  C   UNL     1      -0.083  -2.077  -1.213  0.00  0.00    +0.042 A 
ATOM      7  C   UNL     1       0.291  -2.751  -0.049  0.00  0.00    +0.056 A 
ATOM      8  C   UNL     1       0.392  -2.052   1.155  0.00  0.00    +0.052 A 
ATOM      9  C   UNL     1       0.127  -0.698   1.191  0.00  0.00    +0.132 A 
BRANCH   9  10
ATOM     10  N   UNL     1       0.240   0.042   2.468  0.00  0.00    +0.057 N 
ATOM     11  O   UNL     1       0.674   1.171   2.476  0.00  0.00    -0.126 OA
ATOM     12  O   UNL     1      -0.101  -0.482   3.502  0.00  0.00    -0.126 OA
ENDBRANCH   9  10
BRANCH   7  13
ATOM     13  C   UNL     1       0.569  -4.155  -0.090  0.00  0.00    +0.099 C 
ATOM     14  N   UNL     1       0.790  -5.269  -0.123  0.00  0.00    -0.191 NA
ENDBRANCH   7  13
ENDBRANCH   1   5
BRANCH   1  15
ATOM     15  C   UNL     1      -0.835  -0.762  -3.595  0.00  0.00    +0.137 C 
BRANCH  15  16
ATOM     16  C   UNL     1      -1.257   0.208  -4.701  0.00  0.00    +0.161 C 
BRANCH  16  17
ATOM     17  C   UNL     1      -1.488  -0.557  -5.979  0.00  0.00    -0.017 A 
ATOM     18  C   UNL     1      -0.413  -0.935  -6.761  0.00  0.00    +0.010 A 
ATOM     19  C   UNL     1      -0.622  -1.635  -7.933  0.00  0.00    +0.046 A 
ATOM     20  C   UNL     1      -1.912  -1.960  -8.325  0.00  0.00    +0.120 A 
ATOM     21  C   UNL     1      -2.990  -1.581  -7.538  0.00  0.00    +0.046 A 
ATOM     22  C   UNL     1      -2.775  -0.884  -6.364  0.00  0.00    +0.010 A 
BRANCH  20  23
ATOM     23  O   UNL     1      -2.121  -2.649  -9.477  0.00  0.00    -0.495 OA
ATOM     24  C   UNL     1      -3.476  -2.949  -9.818  0.00  0.00    +0.277 C 
ENDBRANCH  20  23
ENDBRANCH  16  17
BRANCH  16  25
ATOM     25  O   UNL     1      -0.226   1.176  -4.905  0.00  0.00    -0.386 OA
ATOM     26  H   UNL     1       0.623   0.796  -5.168  0.00  0.00    +0.210 HD
ENDBRANCH  16  25
ENDBRANCH  15  16
ENDBRANCH   1  15
TORSDOF 8
