REMARK  Name = ZINC41634728
REMARK  8 active torsions:
REMARK  status: ('A' for Active; 'I' for Inactive)
REMARK    1  A    between atoms: C_1  and  C_2
REMARK    2  A    between atoms: C_7  and  C_8
REMARK    3  A    between atoms: C_8  and  C_10
REMARK    4  A    between atoms: C_8  and  N_19
REMARK    5  A    between atoms: C_11  and  O_18
REMARK    6  A    between atoms: N_22  and  C_25
REMARK    7  A    between atoms: C_25  and  C_26
REMARK    8  A    between atoms: C_26  and  O_27
REMARK                            x       y       z     vdW  Elec       q    Type
REMARK                         _______ _______ _______ _____ _____    ______ ____
ROOT
ATOM      1  C   UNL     1       0.025   0.045   2.504  0.00  0.00    +0.006 C 
ENDROOT
BRANCH   1   2
ATOM      2  C   UNL     1      -1.391   0.382   2.893  0.00  0.00    +0.045 A 
ATOM      3  C   UNL     1      -1.974   1.582   3.005  0.00  0.00    +0.225 A 
ATOM      4  N   UNL     1      -3.293   1.688   3.376  0.00  0.00    -0.174 N 
ATOM      5  C   UNL     1      -3.967   0.530   3.620  0.00  0.00    +0.199 A 
ATOM      6  S   UNL     1      -2.736  -0.715   3.317  0.00  0.00    -0.050 S 
ATOM      7  N   UNL     1      -5.197   0.803   3.959  0.00  0.00    -0.208 NA
ATOM      8  C   UNL     1      -5.373   2.123   3.950  0.00  0.00    +0.246 A 
ATOM      9  N   UNL     1      -4.256   2.704   3.605  0.00  0.00    -0.150 NA
BRANCH   3  10
ATOM     10  O   UNL     1      -1.253   2.707   2.749  0.00  0.00    -0.492 OA
ATOM     11  H   UNL     1      -1.754   3.527   2.855  0.00  0.00    +0.294 HD
ENDBRANCH   3  10
ENDBRANCH   1   2
BRANCH   1  18
ATOM     12  C   UNL     1      -0.018   1.503   0.010  0.00  0.00    +0.044 C 
ATOM     13  C   UNL     1       0.002  -0.004   0.002  0.00  0.00    -0.049 A 
ATOM     14  C   UNL     1       0.006  -0.689  -1.199  0.00  0.00    +0.003 A 
ATOM     15  C   UNL     1       0.025  -2.071  -1.207  0.00  0.00    +0.000 A 
ATOM     16  C   UNL     1       0.040  -2.768  -0.013  0.00  0.00    +0.000 A 
ATOM     17  C   UNL     1       0.037  -2.084   1.188  0.00  0.00    +0.002 A 
ATOM     18  C   UNL     1       0.023  -0.702   1.195  0.00  0.00    -0.053 A 
ENDBRANCH   1  18
BRANCH   1  19
ATOM     19  N   UNL     1       0.632  -0.795   3.546  0.00  0.00    +0.389 N 
ATOM     20  C   UNL     1       0.632  -0.068   4.822  0.00  0.00    -0.062 C 
ATOM     21  C   UNL     1       1.247  -0.950   5.911  0.00  0.00    +0.066 C 
ATOM     22  N   UNL     1       2.621  -1.307   5.531  0.00  0.00    -0.304 NA
ATOM     23  C   UNL     1       2.639  -2.014   4.242  0.00  0.00    +0.066 C 
ATOM     24  C   UNL     1       2.013  -1.123   3.167  0.00  0.00    -0.062 C 
ATOM     25  H   UNL     1       0.099  -1.646   3.644  0.00  0.00    -0.080 HD
BRANCH  22  26
ATOM     26  C   UNL     1       3.266  -2.108   6.580  0.00  0.00    +0.112 C 
BRANCH  26  27
ATOM     27  C   UNL     1       4.758  -2.249   6.269  0.00  0.00    +0.171 C 
BRANCH  27  28
ATOM     28  O   UNL     1       5.382  -0.966   6.335  0.00  0.00    -0.394 OA
ATOM     29  H   UNL     1       6.331  -0.979   6.149  0.00  0.00    +0.209 HD
ENDBRANCH  27  28
ENDBRANCH  26  27
ENDBRANCH  22  26
ENDBRANCH   1  19
TORSDOF 7
