REMARK  Name = ZINC50335668
REMARK  5 active torsions:
REMARK  status: ('A' for Active; 'I' for Inactive)
REMARK    1  A    between atoms: C_1  and  C_2
REMARK    2  A    between atoms: C_2  and  C_22
REMARK    3  A    between atoms: C_7  and  C_9
REMARK    4  A    between atoms: C_12  and  N_15
REMARK    5  A    between atoms: C_18  and  O_21
REMARK                            x       y       z     vdW  Elec       q    Type
REMARK                         _______ _______ _______ _____ _____    ______ ____
ROOT
ATOM      1  C   UNL     1      -0.019   1.526   0.010  0.00  0.00    +0.011 C 
ATOM      2  C   UNL     1       0.002  -0.004   0.002  0.00  0.00    -0.027 C 
ATOM      3  C   UNL     1       0.704  -0.495  -1.265  0.00  0.00    +0.062 C 
ATOM      4  C   UNL     1       0.867  -2.010  -1.182  0.00  0.00    +0.055 A 
ATOM      5  C   UNL     1       0.777  -2.638   0.025  0.00  0.00    +0.041 A 
ATOM      6  S   UNL     1       1.028  -4.342  -0.402  0.00  0.00    -0.069 S 
ATOM      7  C   UNL     1       1.235  -4.083  -2.160  0.00  0.00    +0.109 A 
ATOM      8  N   UNL     1       1.097  -2.771  -2.244  0.00  0.00    -0.244 NA
ATOM      9  C   UNL     1       0.530  -2.026   1.361  0.00  0.00    +0.153 C 
ATOM     10  C   UNL     1       0.743  -0.509   1.244  0.00  0.00    +0.043 C 
ATOM     11  C   UNL     1      -1.434  -0.531   0.020  0.00  0.00    +0.011 C 
ENDROOT
BRANCH   7  12
ATOM     12  C   UNL     1       1.492  -5.071  -3.231  0.00  0.00    +0.007 A 
ATOM     13  C   UNL     1       1.629  -4.650  -4.554  0.00  0.00    +0.013 A 
ATOM     14  C   UNL     1       1.869  -5.576  -5.548  0.00  0.00    +0.033 A 
ATOM     15  C   UNL     1       1.975  -6.920  -5.235  0.00  0.00    +0.126 A 
ATOM     16  C   UNL     1       1.841  -7.343  -3.925  0.00  0.00    +0.033 A 
ATOM     17  C   UNL     1       1.606  -6.427  -2.921  0.00  0.00    +0.013 A 
BRANCH  15  18
ATOM     18  N   UNL     1       2.233  -7.908  -6.307  0.00  0.00    +0.056 N 
ATOM     19  O   UNL     1       2.350  -7.540  -7.452  0.00  0.00    -0.126 OA
ATOM     20  O   UNL     1       2.326  -9.082  -6.036  0.00  0.00    -0.126 OA
ENDBRANCH  15  18
ENDBRANCH   7  12
BRANCH   9  21
ATOM     21  O   UNL     1       1.443  -2.570   2.317  0.00  0.00    -0.387 OA
ATOM     22  H   UNL     1       1.373  -3.528   2.426  0.00  0.00    +0.210 HD
ENDBRANCH   9  21
TORSDOF 3
