REMARK  Name = ZINC04723488
REMARK  4 active torsions:
REMARK  status: ('A' for Active; 'I' for Inactive)
REMARK    1  A    between atoms: C_4  and  O_7
REMARK    2  A    between atoms: O_7  and  C_8
REMARK    3  A    between atoms: C_15  and  C_18
REMARK    4  A    between atoms: N_23  and  C_26
REMARK                            x       y       z     vdW  Elec       q    Type
REMARK                         _______ _______ _______ _____ _____    ______ ____
ROOT
ATOM      1  C   UNL     1      -3.541   2.997  -0.218  0.00  0.00    +0.129 A 
ATOM      2  C   UNL     1      -3.482   1.713  -0.756  0.00  0.00    +0.048 A 
ATOM      3  C   UNL     1      -4.636   1.016  -1.033  0.00  0.00    +0.030 A 
ATOM      4  C   UNL     1      -5.877   1.593  -0.776  0.00  0.00    +0.047 A 
ATOM      5  C   UNL     1      -5.942   2.890  -0.232  0.00  0.00    +0.004 A 
ATOM      6  C   UNL     1      -4.758   3.586   0.050  0.00  0.00    +0.056 A 
ATOM      7  C   UNL     1      -7.314   3.208  -0.082  0.00  0.00    +0.041 A 
ATOM      8  C   UNL     1      -8.035   2.142  -0.519  0.00  0.00    +0.103 A 
ATOM      9  N   UNL     1      -7.170   1.153  -0.944  0.00  0.00    -0.351 N 
ATOM     10  H   UNL     1      -7.432   0.290  -1.302  0.00  0.00    +0.166 HD
ENDROOT
BRANCH   8  11
ATOM     11  C   UNL     1      -9.503   2.056  -0.536  0.00  0.00    +0.263 C 
ATOM     12  O   UNL     1     -10.171   3.072  -0.590  0.00  0.00    -0.268 OA
ATOM     13  N   UNL     1     -10.108   0.853  -0.492  0.00  0.00    -0.293 N 
ATOM     14  C   UNL     1      -9.320  -0.387  -0.442  0.00  0.00    +0.127 C 
ATOM     15  C   UNL     1      -9.835  -1.240   0.728  0.00  0.00    +0.125 C 
ATOM     16  N   UNL     1     -11.285  -1.432   0.586  0.00  0.00    -0.314 N 
ATOM     17  C   UNL     1     -12.002  -0.153   0.668  0.00  0.00    +0.125 C 
ATOM     18  C   UNL     1     -11.575   0.745  -0.498  0.00  0.00    +0.127 C 
BRANCH  16  19
ATOM     19  C   UNL     1     -11.763  -2.333   1.529  0.00  0.00    +0.099 A 
ATOM     20  C   UNL     1     -11.209  -3.607   1.609  0.00  0.00    +0.042 A 
ATOM     21  C   UNL     1     -11.694  -4.494   2.553  0.00  0.00    +0.005 A 
ATOM     22  C   UNL     1     -12.722  -4.076   3.389  0.00  0.00    +0.018 A 
ATOM     23  C   UNL     1     -13.225  -2.797   3.254  0.00  0.00    +0.084 A 
ATOM     24  N   UNL     1     -12.768  -1.898   2.342  0.00  0.00    -0.350 N 
ATOM     25  H   UNL     1     -13.156  -0.950   2.270  0.00  0.00    +0.166 HD
ENDBRANCH  16  19
ENDBRANCH   8  11
BRANCH   1  26
ATOM     26  O   UNL     1      -2.391   3.671   0.050  0.00  0.00    -0.456 OA
BRANCH  26  30
ATOM     27  C   UNL     1       1.173   1.970  -1.144  0.00  0.00    +0.000 A 
ATOM     28  C   UNL     1       0.312   2.502  -2.086  0.00  0.00    +0.004 A 
ATOM     29  C   UNL     1      -0.879   3.077  -1.689  0.00  0.00    +0.046 A 
ATOM     30  C   UNL     1      -1.217   3.111  -0.343  0.00  0.00    +0.128 A 
ATOM     31  C   UNL     1      -0.351   2.577   0.600  0.00  0.00    +0.046 A 
ATOM     32  C   UNL     1       0.842   2.008   0.198  0.00  0.00    +0.004 A 
ENDBRANCH  26  30
ENDBRANCH   1  26
TORSDOF 4
