REMARK  Name = ZINC65237594
REMARK  4 active torsions:
REMARK  status: ('A' for Active; 'I' for Inactive)
REMARK    1  A    between atoms: C_15  and  C_16
REMARK    2  A    between atoms: N_18  and  C_19
REMARK    3  A    between atoms: C_19  and  C_20
REMARK    4  A    between atoms: C_20  and  C_21
REMARK                            x       y       z     vdW  Elec       q    Type
REMARK                         _______ _______ _______ _____ _____    ______ ____
ROOT
ATOM      1  C   UNL     1      -0.017   1.379   0.010  0.00  0.00    +0.002 A 
ATOM      2  C   UNL     1       1.165   2.097   0.002  0.00  0.00    +0.002 A 
ATOM      3  C   UNL     1       2.381   1.435  -0.022  0.00  0.00    +0.026 A 
ATOM      4  C   UNL     1       2.406   0.057  -0.035  0.00  0.00    +0.071 A 
ATOM      5  C   UNL     1       1.211  -0.677  -0.011  0.00  0.00    +0.056 A 
ATOM      6  C   UNL     1       0.002  -0.004   0.002  0.00  0.00    +0.025 A 
ATOM      7  N   UNL     1       1.268  -2.075   0.023  0.00  0.00    -0.282 N 
ATOM      8  C   UNL     1       2.383  -2.760  -0.303  0.00  0.00    +0.246 C 
ATOM      9  O   UNL     1       2.384  -3.972  -0.255  0.00  0.00    -0.273 OA
ATOM     10  C   UNL     1       3.628  -2.025  -0.729  0.00  0.00    +0.236 C 
ATOM     11  N   UNL     1       3.579  -0.689  -0.085  0.00  0.00    -0.218 N 
ATOM     12  N   UNL     1       4.845  -0.485   0.445  0.00  0.00    -0.184 N 
ATOM     13  N   UNL     1       5.514  -1.714   0.503  0.00  0.00    -0.166 NA
ATOM     14  C   UNL     1       4.870  -2.661  -0.155  0.00  0.00    +0.153 C 
ATOM     15  H   UNL     1       0.477  -2.570   0.291  0.00  0.00    +0.155 HD
ATOM     16  H   UNL     1       5.208   0.369   0.729  0.00  0.00    +0.193 HD
ENDROOT
BRANCH  14  17
ATOM     17  C   UNL     1       5.266  -4.063  -0.297  0.00  0.00    +0.262 C 
ATOM     18  O   UNL     1       4.565  -4.832  -0.928  0.00  0.00    -0.269 OA
ATOM     19  N   UNL     1       6.407  -4.502   0.270  0.00  0.00    -0.310 N 
ATOM     20  H   UNL     1       6.966  -3.888   0.773  0.00  0.00    +0.149 HD
BRANCH  19  21
ATOM     21  C   UNL     1       6.804  -5.904   0.127  0.00  0.00    +0.109 C 
BRANCH  21  22
ATOM     22  C   UNL     1       8.127  -6.138   0.860  0.00  0.00    +0.049 C 
BRANCH  22  23
ATOM     23  C   UNL     1       8.535  -7.581   0.713  0.00  0.00    -0.072 C 
ATOM     24  C   UNL     1       9.357  -7.885  -0.239  0.00  0.00    -0.028 C 
ATOM     25  C   UNL     1       9.844  -9.277  -0.516  0.00  0.00    +0.027 C 
ATOM     26  C   UNL     1       9.592 -10.175   0.697  0.00  0.00    +0.004 C 
ATOM     27  C   UNL     1       8.133  -9.996   1.138  0.00  0.00    +0.005 C 
ATOM     28  C   UNL     1       7.967  -8.575   1.684  0.00  0.00    +0.030 C 
ENDBRANCH  22  23
ENDBRANCH  21  22
ENDBRANCH  19  21
ENDBRANCH  14  17
TORSDOF 4
