REMARK  Name = ZINC37549242
REMARK  6 active torsions:
REMARK  status: ('A' for Active; 'I' for Inactive)
REMARK    1  A    between atoms: C_1  and  C_2
REMARK    2  A    between atoms: C_5  and  C_17
REMARK    3  A    between atoms: C_7  and  N_8
REMARK    4  A    between atoms: C_9  and  C_11
REMARK    5  A    between atoms: C_18  and  C_19
REMARK    6  A    between atoms: C_19  and  O_20
REMARK                            x       y       z     vdW  Elec       q    Type
REMARK                         _______ _______ _______ _____ _____    ______ ____
ROOT
ATOM      1  C   UNL     1      -0.022   1.495   0.005  0.00  0.00    +0.045 C 
ATOM      2  C   UNL     1      -0.010  -0.012   0.002  0.00  0.00    -0.029 A 
ATOM      3  C   UNL     1      -0.016  -0.699  -1.198  0.00  0.00    +0.006 A 
ATOM      4  C   UNL     1      -0.005  -2.078  -1.209  0.00  0.00    +0.017 A 
ATOM      5  C   UNL     1       0.013  -2.786  -0.005  0.00  0.00    +0.027 A 
ATOM      6  C   UNL     1       0.019  -2.094   1.205  0.00  0.00    +0.040 A 
ATOM      7  C   UNL     1       0.013  -0.707   1.205  0.00  0.00    +0.038 A 
ENDROOT
BRANCH   7   8
ATOM      8  N   UNL     1       0.025  -0.008   2.417  0.00  0.00    -0.279 N 
ATOM      9  C   UNL     1       0.532  -0.586   3.523  0.00  0.00    +0.284 C 
ATOM     10  O   UNL     1       1.071  -1.675   3.449  0.00  0.00    -0.266 OA
ATOM     11  H   UNL     1      -0.332   0.893   2.460  0.00  0.00    +0.155 HD
BRANCH   9  12
ATOM     12  C   UNL     1       0.436   0.096   4.816  0.00  0.00    +0.191 A 
ATOM     13  C   UNL     1       0.911  -0.373   6.008  0.00  0.00    +0.056 A 
ATOM     14  C   UNL     1       0.604   0.597   6.974  0.00  0.00    +0.063 A 
ATOM     15  C   UNL     1      -0.038   1.604   6.338  0.00  0.00    +0.195 A 
ATOM     16  O   UNL     1      -0.132   1.300   5.037  0.00  0.00    -0.439 OA
ATOM     17 CL   UNL     1      -0.636   3.054   7.084  0.00  0.00    -0.043 Cl
ENDBRANCH   9  12
ENDBRANCH   7   8
BRANCH   5  18
ATOM     18  C   UNL     1       0.024  -4.218  -0.014  0.00  0.00    -0.064 C 
ATOM     19  C   UNL     1       0.033  -5.392  -0.021  0.00  0.00    -0.069 C 
BRANCH  19  20
ATOM     20  C   UNL     1       0.044  -6.864  -0.030  0.00  0.00    +0.244 C 
BRANCH  20  21
ATOM     21  O   UNL     1       0.061  -7.348   1.314  0.00  0.00    -0.383 OA
ATOM     22  H   UNL     1       0.070  -8.312   1.385  0.00  0.00    +0.211 HD
ENDBRANCH  20  21
ENDBRANCH  19  20
ENDBRANCH   5  18
TORSDOF 5
