REMARK  Name = ZINC37414851
REMARK  5 active torsions:
REMARK  status: ('A' for Active; 'I' for Inactive)
REMARK    1  A    between atoms: C_1  and  C_2
REMARK    2  A    between atoms: C_6  and  C_8
REMARK    3  A    between atoms: C_8  and  C_10
REMARK    4  A    between atoms: C_8  and  N_11
REMARK    5  A    between atoms: N_11  and  C_12
REMARK                            x       y       z     vdW  Elec       q    Type
REMARK                         _______ _______ _______ _____ _____    ______ ____
ROOT
ATOM      1  N   UNL     1       0.956  -3.993   2.371  0.00  0.00    -0.336 N 
ATOM      2  H   UNL     1       1.142  -4.377   1.500  0.00  0.00    +0.147 HD
ENDROOT
BRANCH   1   3
ATOM      3  C   UNL     1       1.550  -4.536   3.517  0.00  0.00    +0.045 A 
ATOM      4  C   UNL     1       1.280  -3.990   4.764  0.00  0.00    +0.073 A 
ATOM      5  C   UNL     1       1.868  -4.528   5.898  0.00  0.00    +0.164 A 
ATOM      6  C   UNL     1       2.727  -5.615   5.785  0.00  0.00    +0.163 A 
ATOM      7  C   UNL     1       2.996  -6.157   4.537  0.00  0.00    +0.066 A 
ATOM      8  C   UNL     1       2.405  -5.624   3.406  0.00  0.00    +0.042 A 
ATOM      9 BR   UNL     1       2.769  -6.372   1.708  0.00  0.00    -0.048 Br
ATOM     10  O   UNL     1       3.308  -6.163   6.889  0.00  0.00    -0.485 OA
ATOM     11  C   UNL     1       3.309  -5.364   8.078  0.00  0.00    +0.270 C 
ATOM     12  C   UNL     1       1.904  -4.776   8.263  0.00  0.00    +0.270 C 
ATOM     13  O   UNL     1       1.597  -3.979   7.114  0.00  0.00    -0.485 OA
ENDBRANCH   1   3
BRANCH   1  14
ATOM     14  C   UNL     1       0.054  -2.845   2.489  0.00  0.00    +0.098 C 
ATOM     15  C   UNL     1      -1.359  -3.337   2.809  0.00  0.00    +0.033 C 
BRANCH  14  21
ATOM     16  C   UNL     1      -0.018   1.503   0.010  0.00  0.00    +0.044 C 
ATOM     17  C   UNL     1       0.002  -0.004   0.002  0.00  0.00    -0.050 A 
ATOM     18  C   UNL     1       0.006  -0.689  -1.199  0.00  0.00    +0.003 A 
ATOM     19  C   UNL     1       0.025  -2.071  -1.207  0.00  0.00    +0.001 A 
ATOM     20  C   UNL     1       0.040  -2.768  -0.013  0.00  0.00    +0.005 A 
ATOM     21  C   UNL     1       0.037  -2.084   1.188  0.00  0.00    -0.027 A 
ATOM     22  C   UNL     1       0.023  -0.702   1.195  0.00  0.00    +0.008 A 
ENDBRANCH  14  21
ENDBRANCH   1  14
TORSDOF 3
