REMARK  Name = ZINC67060994
REMARK  7 active torsions:
REMARK  status: ('A' for Active; 'I' for Inactive)
REMARK    1  A    between atoms: C_1  and  C_2
REMARK    2  A    between atoms: C_5  and  C_7
REMARK    3  A    between atoms: C_10  and  C_12
REMARK    4  A    between atoms: C_12  and  N_13
REMARK    5  A    between atoms: N_16  and  N_17
REMARK    6  A    between atoms: C_18  and  C_20
REMARK    7  A    between atoms: C_20  and  C_21
REMARK                            x       y       z     vdW  Elec       q    Type
REMARK                         _______ _______ _______ _____ _____    ______ ____
ROOT
ATOM      1  N   UNL     1       1.294  -6.343   0.787  0.00  0.00    -0.291 N 
ATOM      2  C   UNL     1       1.062  -7.647   0.540  0.00  0.00    +0.316 C 
ATOM      3  O   UNL     1       1.134  -8.073  -0.596  0.00  0.00    -0.251 OA
ATOM      4  N   UNL     1       0.752  -8.480   1.554  0.00  0.00    -0.218 N 
ATOM      5  H   UNL     1       1.236  -6.003   1.693  0.00  0.00    +0.151 HD
ATOM      6  H   UNL     1       0.586  -9.419   1.377  0.00  0.00    +0.174 HD
ENDROOT
BRANCH   4   7
ATOM      7  N   UNL     1       0.669  -7.989   2.863  0.00  0.00    -0.233 N 
ATOM      8  C   UNL     1       0.358  -8.821   3.877  0.00  0.00    +0.229 C 
ATOM      9  O   UNL     1       0.150  -9.995   3.655  0.00  0.00    -0.274 OA
ATOM     10  H   UNL     1       0.835  -7.050   3.041  0.00  0.00    +0.173 HD
BRANCH   8  11
ATOM     11  C   UNL     1       0.269  -8.293   5.285  0.00  0.00    +0.101 C 
BRANCH  11  12
ATOM     12  C   UNL     1      -0.096  -9.435   6.236  0.00  0.00    -0.002 C 
ATOM     13  C   UNL     1      -1.500  -9.945   5.905  0.00  0.00    +0.004 C 
ATOM     14  C   UNL     1      -1.865 -11.086   6.856  0.00  0.00    +0.000 C 
ATOM     15  C   UNL     1      -1.833 -10.579   8.299  0.00  0.00    +0.000 C 
ATOM     16  C   UNL     1      -0.429 -10.069   8.630  0.00  0.00    +0.000 C 
ATOM     17  C   UNL     1      -0.064  -8.927   7.679  0.00  0.00    +0.004 C 
ENDBRANCH  11  12
ENDBRANCH   8  11
ENDBRANCH   4   7
BRANCH   1  18
ATOM     18  C   UNL     1       1.631  -5.438  -0.315  0.00  0.00    +0.180 C 
BRANCH  18  22
ATOM     19  C   UNL     1       1.434  -1.989   0.869  0.00  0.00    +0.109 A 
ATOM     20  C   UNL     1       2.746  -2.209   1.068  0.00  0.00    +0.045 A 
ATOM     21  C   UNL     1       3.007  -3.535   0.653  0.00  0.00    +0.046 A 
ATOM     22  C   UNL     1       1.839  -4.046   0.224  0.00  0.00    +0.122 A 
ATOM     23  O   UNL     1       0.889  -3.107   0.362  0.00  0.00    -0.463 OA
BRANCH  19  27
ATOM     24  C   UNL     1      -0.019   1.526   0.010  0.00  0.00    +0.008 C 
ATOM     25  C   UNL     1       0.002  -0.004   0.002  0.00  0.00    -0.003 C 
ATOM     26  C   UNL     1      -0.828  -0.728   1.065  0.00  0.00    +0.015 C 
ATOM     27  C   UNL     1       0.700  -0.708   1.168  0.00  0.00    +0.058 C 
ENDBRANCH  19  27
ENDBRANCH  18  22
ENDBRANCH   1  18
TORSDOF 6
