REMARK  Name = ZINC40999749
REMARK  3 active torsions:
REMARK  status: ('A' for Active; 'I' for Inactive)
REMARK    1  A    between atoms: C_2  and  C_11
REMARK    2  A    between atoms: C_13  and  C_16
REMARK    3  A    between atoms: C_16  and  N_17
REMARK                            x       y       z     vdW  Elec       q    Type
REMARK                         _______ _______ _______ _____ _____    ______ ____
ROOT
ATOM      1  C   UNL     1      -0.017   1.378   0.010  0.00  0.00    +0.060 A 
ATOM      2  C   UNL     1       1.183   2.091   0.002  0.00  0.00    +0.012 A 
ATOM      3  C   UNL     1       2.399   1.405  -0.013  0.00  0.00    +0.029 A 
ATOM      4  C   UNL     1       2.412   0.025  -0.021  0.00  0.00    +0.064 A 
ATOM      5  C   UNL     1       1.219  -0.684  -0.013  0.00  0.00    +0.180 A 
ATOM      6  C   UNL     1       0.002  -0.004   0.002  0.00  0.00    +0.168 A 
ATOM      7  O   UNL     1      -1.010  -0.921   0.007  0.00  0.00    -0.453 OA
ATOM      8  C   UNL     1      -0.409  -2.159  -0.418  0.00  0.00    +0.466 C 
ATOM      9  O   UNL     1       0.968  -2.026  -0.018  0.00  0.00    -0.451 OA
ATOM     10 BR   UNL     1       4.060  -0.902  -0.041  0.00  0.00    -0.046 Br
ENDROOT
BRANCH   2  11
ATOM     11  C   UNL     1       1.167   3.569   0.009  0.00  0.00    +0.109 A 
ATOM     12  N   UNL     1       2.182   4.422  -0.001  0.00  0.00    -0.246 NA
ATOM     13  C   UNL     1       1.982   5.719   0.008  0.00  0.00    +0.032 A 
ATOM     14  C   UNL     1       0.715   6.209   0.028  0.00  0.00    +0.068 A 
ATOM     15  S   UNL     1      -0.227   4.689   0.028  0.00  0.00    -0.075 S 
BRANCH  13  16
ATOM     16  C   UNL     1       3.156   6.664  -0.004  0.00  0.00    -0.029 C 
BRANCH  16  17
ATOM     17  N   UNL     1       3.633   6.870   1.370  0.00  0.00    +0.382 N 
ATOM     18  H   UNL     1       2.890   7.264   1.928  0.00  0.00    -0.090 HD
ATOM     19  H   UNL     1       3.917   5.986   1.763  0.00  0.00    -0.090 HD
ATOM     20  H   UNL     1       4.419   7.503   1.362  0.00  0.00    -0.090 HD
ENDBRANCH  16  17
ENDBRANCH  13  16
ENDBRANCH   2  11
TORSDOF 3
