REMARK  Name = ZINC04469809
REMARK  5 active torsions:
REMARK  status: ('A' for Active; 'I' for Inactive)
REMARK    1  A    between atoms: C_1  and  C_2
REMARK    2  A    between atoms: C_2  and  C_4
REMARK    3  A    between atoms: C_2  and  O_10
REMARK    4  A    between atoms: O_10  and  C_11
REMARK    5  A    between atoms: C_11  and  C_13
REMARK                            x       y       z     vdW  Elec       q    Type
REMARK                         _______ _______ _______ _____ _____    ______ ____
ROOT
ATOM      1  O   UNL     1       2.574  -2.634  -0.037  0.00  0.00    -0.449 OA
ENDROOT
BRANCH   1   3
ATOM      2  C   UNL     1       0.496  -2.695   1.232  0.00  0.00    +0.062 C 
ATOM      3  C   UNL     1       1.199  -2.169  -0.021  0.00  0.00    +0.259 C 
BRANCH   3   4
ATOM      4  C   UNL     1       1.178  -0.662  -0.013  0.00  0.00    +0.261 C 
ATOM      5  O   UNL     1       2.220  -0.042  -0.019  0.00  0.00    -0.271 OA
ATOM      6  N   UNL     1       0.002  -0.004   0.002  0.00  0.00    -0.237 N 
ATOM      7  C   UNL     1      -0.016   1.344   0.009  0.00  0.00    +0.303 C 
ATOM      8  O   UNL     1       1.028   1.966   0.003  0.00  0.00    -0.253 OA
ATOM      9  N   UNL     1      -1.192   2.002   0.019  0.00  0.00    -0.313 N 
ATOM     10  H   UNL     1      -0.831  -0.500   0.007  0.00  0.00    +0.159 HD
ATOM     11  H   UNL     1      -2.026   1.505   0.020  0.00  0.00    +0.146 HD
ATOM     12  H   UNL     1      -1.206   2.971   0.024  0.00  0.00    +0.146 HD
ENDBRANCH   3   4
ENDBRANCH   1   3
BRANCH   1  13
ATOM     13  C   UNL     1       2.814  -3.812  -0.645  0.00  0.00    +0.343 C 
ATOM     14  O   UNL     1       1.900  -4.433  -1.150  0.00  0.00    -0.245 OA
BRANCH  13  15
ATOM     15  C   UNL     1       4.189  -4.347  -0.700  0.00  0.00    +0.097 A 
ATOM     16  C   UNL     1       4.661  -5.176   0.322  0.00  0.00    +0.056 A 
ATOM     17  C   UNL     1       5.946  -5.678   0.262  0.00  0.00    +0.022 A 
ATOM     18  C   UNL     1       6.769  -5.354  -0.801  0.00  0.00    +0.023 A 
ATOM     19  C   UNL     1       6.312  -4.530  -1.815  0.00  0.00    +0.060 A 
ATOM     20  C   UNL     1       5.026  -4.024  -1.771  0.00  0.00    +0.075 A 
ATOM     21 CL   UNL     1       4.454  -2.990  -3.043  0.00  0.00    -0.081 Cl
ATOM     22 CL   UNL     1       7.354  -4.131  -3.144  0.00  0.00    -0.082 Cl
ATOM     23 CL   UNL     1       3.632  -5.577   1.662  0.00  0.00    -0.083 Cl
ENDBRANCH  13  15
ENDBRANCH   1  13
TORSDOF 4
