REMARK  Name = ZINC04384517
REMARK  6 active torsions:
REMARK  status: ('A' for Active; 'I' for Inactive)
REMARK    1  A    between atoms: C_1  and  C_2
REMARK    2  A    between atoms: C_4  and  C_25
REMARK    3  A    between atoms: N_5  and  C_11
REMARK    4  A    between atoms: C_8  and  C_9
REMARK    5  A    between atoms: C_11  and  C_12
REMARK    6  A    between atoms: N_14  and  C_15
REMARK                            x       y       z     vdW  Elec       q    Type
REMARK                         _______ _______ _______ _____ _____    ______ ____
ROOT
ATOM      1  C   UNL     1      -2.167  -1.669  -0.251  0.00  0.00    +0.233 C 
ATOM      2  O   UNL     1      -1.157  -2.294  -0.499  0.00  0.00    -0.274 OA
ATOM      3  N   UNL     1      -2.149  -0.322  -0.275  0.00  0.00    -0.308 N 
ATOM      4  H   UNL     1      -2.957   0.177  -0.077  0.00  0.00    +0.149 HD
ENDROOT
BRANCH   3   5
ATOM      5  C   UNL     1      -0.910   0.389  -0.599  0.00  0.00    +0.035 C 
ATOM      6  C   UNL     1      -1.161   1.897  -0.556  0.00  0.00    +0.029 C 
ATOM      7  C   UNL     1       0.134   2.639  -0.894  0.00  0.00    -0.008 C 
ATOM      8  C   UNL     1       0.600   2.239  -2.296  0.00  0.00    +0.007 C 
ATOM      9  C   UNL     1       0.851   0.731  -2.338  0.00  0.00    -0.008 C 
ATOM     10  C   UNL     1      -0.444  -0.012  -2.000  0.00  0.00    +0.029 C 
ATOM     11  C   UNL     1       1.930   0.364  -1.318  0.00  0.00    +0.007 C 
ATOM     12  C   UNL     1       1.464   0.764   0.084  0.00  0.00    -0.008 C 
ATOM     13  C   UNL     1       1.213   2.273   0.126  0.00  0.00    +0.007 C 
ATOM     14  C   UNL     1       0.170   0.022   0.422  0.00  0.00    +0.029 C 
ENDBRANCH   3   5
BRANCH   1  15
ATOM     15  C   UNL     1      -3.442  -2.400   0.082  0.00  0.00    +0.220 C 
BRANCH  15  20
ATOM     16  C   UNL     1      -2.488  -8.052  -0.007  0.00  0.00    +0.045 C 
ATOM     17  C   UNL     1      -2.743  -6.567  -0.000  0.00  0.00    -0.026 A 
ATOM     18  C   UNL     1      -2.641  -5.836   1.184  0.00  0.00    +0.026 A 
ATOM     19  C   UNL     1      -2.866  -4.497   1.180  0.00  0.00    +0.020 A 
ATOM     20  N   UNL     1      -3.202  -3.845   0.041  0.00  0.00    -0.303 N 
ATOM     21  C   UNL     1      -3.313  -4.502  -1.129  0.00  0.00    +0.270 A 
ATOM     22  O   UNL     1      -3.612  -3.897  -2.144  0.00  0.00    -0.266 OA
ATOM     23  C   UNL     1      -3.082  -5.902  -1.176  0.00  0.00    +0.119 A 
ATOM     24  C   UNL     1      -2.746  -3.724   2.468  0.00  0.00    +0.063 C 
BRANCH  23  25
ATOM     25  C   UNL     1      -3.195  -6.618  -2.411  0.00  0.00    +0.105 C 
ATOM     26  N   UNL     1      -3.285  -7.186  -3.391  0.00  0.00    -0.191 NA
ENDBRANCH  23  25
ENDBRANCH  15  20
ENDBRANCH   1  15
TORSDOF 4
