REMARK  Name = ZINC20270878
REMARK  0 active torsions:
REMARK  status: ('A' for Active; 'I' for Inactive)
REMARK                            x       y       z     vdW  Elec       q    Type
REMARK                         _______ _______ _______ _____ _____    ______ ____
ROOT
ATOM      1  C   UNL     1       5.448   2.195  -0.288  0.00  0.00    +0.027 A 
ATOM      2  C   UNL     1       4.054   2.054  -0.199  0.00  0.00    +0.005 A 
ATOM      3  C   UNL     1       3.427   0.835  -0.514  0.00  0.00    +0.059 A 
ATOM      4  C   UNL     1       2.072   0.724  -0.415  0.00  0.00    +0.167 A 
ATOM      5  C   UNL     1       1.293   1.819  -0.001  0.00  0.00    +0.168 A 
ATOM      6  C   UNL     1       1.876   3.014   0.309  0.00  0.00    +0.078 A 
ATOM      7  C   UNL     1       3.271   3.161   0.218  0.00  0.00    +0.079 A 
ATOM      8  N   UNL     1       3.852   4.326   0.520  0.00  0.00    -0.210 NA
ATOM      9  C   UNL     1       5.158   4.488   0.446  0.00  0.00    +0.261 A 
ATOM     10  C   UNL     1       5.997   3.425   0.040  0.00  0.00    +0.083 A 
ATOM     11  C   UNL     1       7.373   3.946   0.070  0.00  0.00    +0.168 A 
ATOM     12  N   UNL     1       7.306   5.188   0.459  0.00  0.00    -0.060 NA
ATOM     13  O   UNL     1       5.960   5.546   0.696  0.00  0.00    -0.333 OA
ATOM     14  N   UNL     1       8.525   3.245  -0.254  0.00  0.00    -0.340 N 
ATOM     15  O   UNL     1      -0.017   1.435   0.010  0.00  0.00    -0.453 OA
ATOM     16  C   UNL     1       0.002  -0.004   0.002  0.00  0.00    +0.466 C 
ATOM     17  O   UNL     1       1.239  -0.331  -0.658  0.00  0.00    -0.453 OA
ATOM     18  H   UNL     1       9.506   3.741  -0.193  0.00  0.00    +0.144 HD
ATOM     19  H   UNL     1       8.459   2.194  -0.571  0.00  0.00    +0.144 HD
ENDROOT
TORSDOF 0
