REMARK  Name = ZINC02291752
REMARK  7 active torsions:
REMARK  status: ('A' for Active; 'I' for Inactive)
REMARK    1  A    between atoms: C_4  and  C_7
REMARK    2  A    between atoms: C_7  and  N_8
REMARK    3  A    between atoms: C_9  and  C_11
REMARK    4  A    between atoms: N_22  and  C_25
REMARK    5  A    between atoms: C_23  and  N_24
REMARK    6  A    between atoms: C_25  and  C_26
REMARK    7  A    between atoms: C_26  and  C_27
REMARK                            x       y       z     vdW  Elec       q    Type
REMARK                         _______ _______ _______ _____ _____    ______ ____
ROOT
ATOM      1  C   UNL     1       1.002  -1.169  -3.332  0.00  0.00    +0.103 A 
ATOM      2  C   UNL     1       2.310  -1.174  -2.657  0.00  0.00    +0.122 A 
ATOM      3  C   UNL     1       2.043  -0.719  -1.290  0.00  0.00    +0.162 A 
ATOM      4  N   UNL     1       3.039  -0.620  -0.435  0.00  0.00    -0.226 NA
ATOM      5  C   UNL     1       4.282  -0.936  -0.820  0.00  0.00    +0.092 A 
ATOM      6  C   UNL     1       5.353  -0.834   0.088  0.00  0.00    +0.030 A 
ATOM      7  C   UNL     1       6.612  -1.156  -0.312  0.00  0.00    +0.002 A 
ATOM      8  C   UNL     1       6.864  -1.588  -1.613  0.00  0.00    +0.002 A 
ATOM      9  C   UNL     1       5.855  -1.699  -2.519  0.00  0.00    +0.030 A 
ATOM     10  C   UNL     1       4.538  -1.375  -2.143  0.00  0.00    +0.090 A 
ATOM     11  N   UNL     1       3.538  -1.481  -3.026  0.00  0.00    -0.241 NA
ATOM     12  N   UNL     1       0.688  -0.476  -1.203  0.00  0.00    -0.312 N 
ATOM     13  C   UNL     1       0.074  -0.742  -2.388  0.00  0.00    +0.112 A 
ENDROOT
BRANCH   1  15
ATOM     14  N   UNL     1       0.782  -0.612  -5.690  0.00  0.00    -0.307 N 
ATOM     15  C   UNL     1       0.731  -1.543  -4.718  0.00  0.00    +0.250 C 
ATOM     16  O   UNL     1       0.459  -2.698  -4.995  0.00  0.00    -0.270 OA
ATOM     17  H   UNL     1       0.999   0.308  -5.470  0.00  0.00    +0.149 HD
BRANCH  14  18
ATOM     18  C   UNL     1       0.510  -0.987  -7.080  0.00  0.00    +0.139 C 
BRANCH  18  22
ATOM     19  C   UNL     1       0.853   2.459  -9.580  0.00  0.00    +0.000 A 
ATOM     20  C   UNL     1       1.960   1.667  -9.340  0.00  0.00    +0.000 A 
ATOM     21  C   UNL     1       1.849   0.552  -8.530  0.00  0.00    +0.005 A 
ATOM     22  C   UNL     1       0.631   0.229  -7.962  0.00  0.00    -0.030 A 
ATOM     23  C   UNL     1      -0.477   1.018  -8.207  0.00  0.00    +0.005 A 
ATOM     24  C   UNL     1      -0.365   2.136  -9.012  0.00  0.00    +0.000 A 
ENDBRANCH  18  22
ENDBRANCH  14  18
ENDBRANCH   1  15
BRANCH  13  25
ATOM     25  N   UNL     1      -1.270  -0.604  -2.620  0.00  0.00    -0.344 N 
ATOM     26  H   UNL     1      -1.856  -0.297  -1.911  0.00  0.00    +0.144 HD
ATOM     27  H   UNL     1      -1.635  -0.813  -3.494  0.00  0.00    +0.144 HD
ENDBRANCH  13  25
BRANCH  12  28
ATOM     28  C   UNL     1       0.002  -0.004   0.002  0.00  0.00    +0.129 C 
BRANCH  28  29
ATOM     29  C   UNL     1      -0.019   1.526   0.010  0.00  0.00    +0.052 C 
BRANCH  29  30
ATOM     30  C   UNL     1      -0.724   2.012   1.250  0.00  0.00    -0.072 C 
ATOM     31  C   UNL     1      -0.001   2.312   2.281  0.00  0.00    -0.028 C 
ATOM     32  C   UNL     1      -0.560   2.799   3.587  0.00  0.00    +0.027 C 
ATOM     33  C   UNL     1      -1.998   3.286   3.396  0.00  0.00    +0.004 C 
ATOM     34  C   UNL     1      -2.779   2.207   2.635  0.00  0.00    +0.005 C 
ATOM     35  C   UNL     1      -2.220   2.123   1.211  0.00  0.00    +0.030 C 
ENDBRANCH  29  30
ENDBRANCH  28  29
ENDBRANCH  12  28
TORSDOF 7
