REMARK  Name = ZINC10063143
REMARK  7 active torsions:
REMARK  status: ('A' for Active; 'I' for Inactive)
REMARK    1  A    between atoms: C_4  and  N_7
REMARK    2  A    between atoms: N_12  and  C_27
REMARK    3  A    between atoms: C_14  and  C_17
REMARK    4  A    between atoms: N_19  and  C_20
REMARK    5  A    between atoms: C_20  and  C_21
REMARK    6  A    between atoms: C_21  and  N_62
REMARK    7  A    between atoms: C_27  and  C_28
REMARK                            x       y       z     vdW  Elec       q    Type
REMARK                         _______ _______ _______ _____ _____    ______ ____
ROOT
ATOM      1  N   UNL     1      -2.711   1.884   7.516  0.00  0.00    -0.196 N 
ATOM      2  C   UNL     1      -2.078   0.982   6.734  0.00  0.00    +0.283 A 
ATOM      3  O   UNL     1      -1.949  -0.212   6.949  0.00  0.00    -0.265 OA
ATOM      4  C   UNL     1      -1.582   1.724   5.579  0.00  0.00    +0.085 A 
ATOM      5  C   UNL     1      -0.876   1.424   4.442  0.00  0.00    +0.101 A 
ATOM      6  N   UNL     1      -0.573   2.384   3.547  0.00  0.00    -0.349 N 
ATOM      7  C   UNL     1      -0.926   3.684   3.697  0.00  0.00    +0.101 A 
ATOM      8  C   UNL     1      -1.635   4.117   4.779  0.00  0.00    +0.081 A 
ATOM      9  C   UNL     1      -2.006   3.124   5.806  0.00  0.00    +0.112 A 
ATOM     10  N   UNL     1      -2.652   3.155   6.937  0.00  0.00    -0.162 NA
ENDROOT
BRANCH   1  14
ATOM     11  C   UNL     1      -4.573   1.003  11.137  0.00  0.00    +0.000 A 
ATOM     12  C   UNL     1      -3.930   2.216  10.969  0.00  0.00    +0.002 A 
ATOM     13  C   UNL     1      -3.312   2.511   9.770  0.00  0.00    +0.028 A 
ATOM     14  C   UNL     1      -3.336   1.588   8.732  0.00  0.00    +0.069 A 
ATOM     15  C   UNL     1      -3.987   0.373   8.903  0.00  0.00    +0.028 A 
ATOM     16  C   UNL     1      -4.598   0.082  10.107  0.00  0.00    +0.002 A 
ENDBRANCH   1  14
BRANCH   8  17
ATOM     17  C   UNL     1      -2.014   5.532   4.920  0.00  0.00    +0.248 C 
ATOM     18  O   UNL     1      -2.642   5.899   5.895  0.00  0.00    -0.270 OA
ATOM     19  N   UNL     1      -1.665   6.421   3.969  0.00  0.00    -0.313 N 
ATOM     20  H   UNL     1      -1.164   6.128   3.192  0.00  0.00    +0.149 HD
BRANCH  19  21
ATOM     21  C   UNL     1      -2.041   7.830   4.110  0.00  0.00    +0.086 C 
BRANCH  21  22
ATOM     22  C   UNL     1      -1.527   8.618   2.904  0.00  0.00    -0.060 C 
BRANCH  22  28
ATOM     23  C   UNL     1      -3.363  10.196   2.966  0.00  0.00    -0.050 C 
ATOM     24  C   UNL     1      -3.716  11.671   3.177  0.00  0.00    +0.141 C 
ATOM     25  O   UNL     1      -3.028  12.464   2.206  0.00  0.00    -0.383 OA
ATOM     26  C   UNL     1      -1.605  12.328   2.255  0.00  0.00    +0.141 C 
ATOM     27  C   UNL     1      -1.231  10.860   2.035  0.00  0.00    -0.050 C 
ATOM     28  N   UNL     1      -1.897  10.040   3.069  0.00  0.00    +0.384 N 
ATOM     29  H   UNL     1      -1.591  10.359   3.996  0.00  0.00    -0.082 HD
ENDBRANCH  22  28
ENDBRANCH  21  22
ENDBRANCH  19  21
ENDBRANCH   8  17
BRANCH   6  30
ATOM     30  C   UNL     1       0.184   2.003   2.352  0.00  0.00    +0.152 C 
BRANCH  30  31
ATOM     31  C   UNL     1      -0.788   1.610   1.237  0.00  0.00    +0.138 C 
ATOM     32  C   UNL     1      -0.013   1.086   0.008  0.00  0.00    +0.035 C 
ATOM     33  C   UNL     1      -0.811   1.623  -1.201  0.00  0.00    +0.031 C 
ATOM     34  C   UNL     1      -1.978   2.408  -0.561  0.00  0.00    +0.160 C 
ATOM     35  O   UNL     1      -1.501   2.772   0.753  0.00  0.00    -0.375 OA
ENDBRANCH  30  31
ENDBRANCH   6  30
TORSDOF 7
