REMARK  Name = ZINC39683325
REMARK  13 active torsions:
REMARK  status: ('A' for Active; 'I' for Inactive)
REMARK    1  A    between atoms: C_1  and  C_2
REMARK    2  A    between atoms: C_2  and  C_3
REMARK    3  A    between atoms: C_2  and  C_4
REMARK    4  A    between atoms: C_4  and  O_5
REMARK    5  A    between atoms: O_5  and  C_6
REMARK    6  A    between atoms: C_6  and  C_7
REMARK    7  A    between atoms: C_7  and  C_8
REMARK    8  A    between atoms: C_8  and  N_9
REMARK    9  A    between atoms: C_10  and  C_12
REMARK   10  A    between atoms: C_23  and  C_25
REMARK   11  A    between atoms: C_31  and  O_33
REMARK   12  A    between atoms: O_33  and  C_34
REMARK   13  A    between atoms: C_34  and  C_35
REMARK                            x       y       z     vdW  Elec       q    Type
REMARK                         _______ _______ _______ _____ _____    ______ ____
ROOT
ATOM      1  C   UNL     1      -4.798  -8.439  -0.545  0.00  0.00    +0.100 C 
ATOM      2  C   UNL     1      -4.261  -8.805  -1.947  0.00  0.00    +0.121 C 
ATOM      3  N   UNL     1      -4.984 -10.046  -2.312  0.00  0.00    -0.300 N 
ATOM      4  C   UNL     1      -6.364  -9.829  -1.814  0.00  0.00    +0.115 C 
ATOM      5  C   UNL     1      -6.178  -9.112  -0.462  0.00  0.00    -0.004 C 
ATOM      6  C   UNL     1      -7.267  -8.062  -0.268  0.00  0.00    -0.010 C 
ATOM      7  C   UNL     1      -8.623  -8.759  -0.130  0.00  0.00    -0.082 C 
ATOM      8  N   UNL     1      -8.590  -9.676   1.016  0.00  0.00    +0.379 N 
ATOM      9  C   UNL     1      -7.604 -10.737   0.780  0.00  0.00    -0.082 C 
ATOM     10  C   UNL     1      -6.204 -10.124   0.680  0.00  0.00    -0.010 C 
ATOM     11  C   UNL     1      -4.498 -11.127  -2.953  0.00  0.00    +0.219 C 
ATOM     12  O   UNL     1      -5.221 -12.073  -3.182  0.00  0.00    -0.275 OA
ATOM     13  H   UNL     1      -8.337  -9.164   1.848  0.00  0.00    -0.086 HD
ATOM     14  H   UNL     1      -9.502 -10.088   1.143  0.00  0.00    -0.086 HD
ENDROOT
BRANCH  11  15
ATOM     15  C   UNL     1      -3.054 -11.161  -3.384  0.00  0.00    +0.078 C 
ATOM     16  C   UNL     1      -2.783 -10.005  -4.349  0.00  0.00    +0.032 C 
ATOM     17  C   UNL     1      -1.307 -10.022  -4.758  0.00  0.00    +0.112 C 
ATOM     18  N   UNL     1      -0.981 -11.349  -5.299  0.00  0.00    -0.267 N 
ATOM     19  C   UNL     1      -1.286 -12.536  -4.489  0.00  0.00    +0.112 C 
ATOM     20  C   UNL     1      -2.762 -12.491  -4.083  0.00  0.00    +0.032 C 
ATOM     21  C   UNL     1      -0.415 -11.475  -6.516  0.00  0.00    +0.403 C 
ATOM     22  O   UNL     1      -0.168 -10.485  -7.176  0.00  0.00    -0.226 OA
BRANCH  21  23
ATOM     23  O   UNL     1      -0.122 -12.697  -6.999  0.00  0.00    -0.445 OA
BRANCH  23  24
ATOM     24  C   UNL     1       0.477 -12.755  -8.295  0.00  0.00    +0.269 C 
BRANCH  24  25
ATOM     25  C   UNL     1       0.731 -14.194  -8.667  0.00  0.00    -0.010 A 
ATOM     26  C   UNL     1       1.931 -14.792  -8.333  0.00  0.00    +0.007 A 
ATOM     27  C   UNL     1       2.164 -16.111  -8.674  0.00  0.00    +0.000 A 
ATOM     28  C   UNL     1       1.196 -16.832  -9.348  0.00  0.00    +0.000 A 
ATOM     29  C   UNL     1      -0.004 -16.234  -9.681  0.00  0.00    +0.000 A 
ATOM     30  C   UNL     1      -0.239 -14.916  -9.336  0.00  0.00    +0.007 A 
ENDBRANCH  24  25
ENDBRANCH  23  24
ENDBRANCH  21  23
ENDBRANCH  11  15
BRANCH   1  32
ATOM     31  N   UNL     1      -4.818  -6.365   0.803  0.00  0.00    -0.315 N 
ATOM     32  C   UNL     1      -4.934  -6.944  -0.409  0.00  0.00    +0.218 C 
ATOM     33  O   UNL     1      -5.148  -6.263  -1.389  0.00  0.00    -0.275 OA
ATOM     34  H   UNL     1      -4.646  -6.910   1.587  0.00  0.00    +0.149 HD
BRANCH  31  35
ATOM     35  C   UNL     1      -4.950  -4.912   0.935  0.00  0.00    +0.106 C 
BRANCH  35  36
ATOM     36  C   UNL     1      -4.777  -4.516   2.403  0.00  0.00    +0.047 C 
BRANCH  36  37
ATOM     37  C   UNL     1      -4.916  -2.998   2.541  0.00  0.00    +0.161 C 
BRANCH  37  38
ATOM     38  O   UNL     1      -4.755  -2.628   3.912  0.00  0.00    -0.379 OA
BRANCH  38  39
ATOM     39  C   UNL     1      -4.866  -1.224   4.152  0.00  0.00    +0.162 C 
BRANCH  39  41
ATOM     40  C   UNL     1      -4.673   0.566   5.884  0.00  0.00    +0.009 C 
ATOM     41  C   UNL     1      -4.678  -0.945   5.644  0.00  0.00    +0.009 C 
ATOM     42  C   UNL     1      -5.825  -1.582   6.431  0.00  0.00    +0.009 C 
ENDBRANCH  39  41
ENDBRANCH  38  39
ENDBRANCH  37  38
ENDBRANCH  36  37
ENDBRANCH  35  36
ENDBRANCH  31  35
ENDBRANCH   1  32
TORSDOF 11
