REMARK  Name = ZINC50439523
REMARK  8 active torsions:
REMARK  status: ('A' for Active; 'I' for Inactive)
REMARK    1  A    between atoms: C_1  and  C_2
REMARK    2  A    between atoms: C_4  and  N_21
REMARK    3  A    between atoms: C_5  and  N_9
REMARK    4  A    between atoms: C_7  and  C_8
REMARK    5  A    between atoms: N_9  and  S_10
REMARK    6  A    between atoms: S_10  and  C_13
REMARK    7  A    between atoms: C_14  and  C_20
REMARK    8  A    between atoms: C_18  and  C_19
REMARK                            x       y       z     vdW  Elec       q    Type
REMARK                         _______ _______ _______ _____ _____    ______ ____
ROOT
ATOM      1  N   UNL     1       0.060  -4.175  -0.008  0.00  0.00    -0.214 N 
ATOM      2  H   UNL     1       0.578  -4.645  -0.680  0.00  0.00    +0.174 HD
ENDROOT
BRANCH   1   7
ATOM      3  C   UNL     1      -0.574   1.458  -0.333  0.00  0.00    +0.044 C 
ATOM      4  C   UNL     1      -0.406  -0.037  -0.250  0.00  0.00    -0.046 A 
ATOM      5  C   UNL     1      -0.375  -0.792  -1.408  0.00  0.00    +0.028 A 
ATOM      6  C   UNL     1      -0.221  -2.168  -1.334  0.00  0.00    +0.047 A 
ATOM      7  C   UNL     1      -0.097  -2.786  -0.090  0.00  0.00    +0.069 A 
ATOM      8  C   UNL     1      -0.129  -2.021   1.066  0.00  0.00    +0.030 A 
ATOM      9  C   UNL     1      -0.279  -0.649   0.983  0.00  0.00    -0.046 A 
ATOM     10  C   UNL     1      -0.307   0.181   2.240  0.00  0.00    +0.044 C 
BRANCH   6  11
ATOM     11  N   UNL     1      -0.189  -2.935  -2.505  0.00  0.00    -0.356 N 
ATOM     12  H   UNL     1      -0.276  -2.503  -3.370  0.00  0.00    +0.142 HD
ATOM     13  H   UNL     1      -0.081  -3.897  -2.452  0.00  0.00    +0.142 HD
ENDBRANCH   6  11
ENDBRANCH   1   7
BRANCH   1  14
ATOM     14  S   UNL     1      -0.640  -5.015   1.236  0.00  0.00    +0.076 S 
ATOM     15  O   UNL     1      -0.379  -6.391   0.994  0.00  0.00    -0.150 OA
ATOM     16  O   UNL     1      -0.247  -4.365   2.437  0.00  0.00    -0.150 OA
BRANCH  14  17
ATOM     17  C   UNL     1      -2.383  -4.801   1.094  0.00  0.00    +0.151 A 
ATOM     18  C   UNL     1      -3.112  -3.811   1.660  0.00  0.00    +0.060 A 
ATOM     19  N   UNL     1      -4.402  -4.000   1.313  0.00  0.00    -0.280 N 
ATOM     20  H   UNL     1      -5.151  -3.442   1.575  0.00  0.00    +0.189 HD
ATOM     21  N   UNL     1      -4.468  -5.144   0.508  0.00  0.00    -0.177 NA
ATOM     22  C   UNL     1      -3.257  -5.620   0.372  0.00  0.00    +0.087 A 
ATOM     23  C   UNL     1      -2.871  -6.842  -0.421  0.00  0.00    +0.069 C 
ATOM     24  C   UNL     1      -2.578  -2.696   2.522  0.00  0.00    +0.067 C 
ENDBRANCH  14  17
ENDBRANCH   1  14
TORSDOF 4
