REMARK  Name = ZINC03027335
REMARK  12 active torsions:
REMARK  status: ('A' for Active; 'I' for Inactive)
REMARK    1  A    between atoms: C_1  and  C_2
REMARK    2  A    between atoms: C_2  and  O_3
REMARK    3  A    between atoms: O_3  and  C_4
REMARK    4  A    between atoms: C_7  and  N_10
REMARK    5  A    between atoms: N_13  and  C_14
REMARK    6  A    between atoms: N_13  and  C_19
REMARK    7  A    between atoms: C_14  and  C_15
REMARK    8  A    between atoms: C_15  and  C_16
REMARK    9  A    between atoms: C_16  and  C_17
REMARK   10  A    between atoms: C_16  and  C_18
REMARK   11  A    between atoms: C_19  and  C_21
REMARK   12  A    between atoms: C_19  and  C_22
REMARK                            x       y       z     vdW  Elec       q    Type
REMARK                         _______ _______ _______ _____ _____    ______ ____
ROOT
ATOM      1  N   UNL     1       3.501   2.369  -0.857  0.00  0.00    -0.269 N 
ATOM      2  C   UNL     1       3.869   3.372  -0.035  0.00  0.00    +0.307 C 
ATOM      3  O   UNL     1       5.044   3.546   0.223  0.00  0.00    -0.252 OA
ATOM      4  N   UNL     1       2.934   4.182   0.501  0.00  0.00    -0.278 N 
ATOM      5  H   UNL     1       2.578   2.294  -1.147  0.00  0.00    +0.156 HD
ENDROOT
BRANCH   1   9
ATOM      6  C   UNL     1       6.327  -0.411  -2.149  0.00  0.00    +0.121 A 
ATOM      7  C   UNL     1       5.289  -0.035  -2.990  0.00  0.00    +0.047 A 
ATOM      8  C   UNL     1       4.353   0.885  -2.562  0.00  0.00    +0.027 A 
ATOM      9  C   UNL     1       4.450   1.435  -1.291  0.00  0.00    +0.035 A 
ATOM     10  C   UNL     1       5.492   1.062  -0.452  0.00  0.00    +0.027 A 
ATOM     11  C   UNL     1       6.425   0.137  -0.879  0.00  0.00    +0.047 A 
BRANCH   6  12
ATOM     12  O   UNL     1       7.248  -1.318  -2.571  0.00  0.00    -0.492 OA
BRANCH  12  14
ATOM     13  C   UNL     1       9.223  -2.685  -2.300  0.00  0.00    +0.048 C 
ATOM     14  C   UNL     1       8.290  -1.659  -1.653  0.00  0.00    +0.225 C 
ENDBRANCH  12  14
ENDBRANCH   6  12
ENDBRANCH   1   9
BRANCH   4  15
ATOM     15  C   UNL     1       1.512   3.902   0.286  0.00  0.00    +0.111 C 
ATOM     16  C   UNL     1       0.792   3.855   1.635  0.00  0.00    +0.034 C 
BRANCH  15  17
ATOM     17  C   UNL     1       0.910   4.989  -0.567  0.00  0.00    +0.010 A 
ATOM     18  C   UNL     1       0.096   4.876  -1.645  0.00  0.00    +0.013 A 
ATOM     19  C   UNL     1      -0.340   6.024  -2.279  0.00  0.00    +0.008 A 
ATOM     20  C   UNL     1       0.060   7.229  -1.805  0.00  0.00    +0.045 A 
ATOM     21  S   UNL     1       1.084   6.760  -0.420  0.00  0.00    -0.100 S 
ENDBRANCH  15  17
ENDBRANCH   4  15
BRANCH   4  22
ATOM     22  C   UNL     1       3.340   5.341   1.299  0.00  0.00    +0.110 C 
BRANCH  22  23
ATOM     23  C   UNL     1       3.620   4.899   2.736  0.00  0.00    +0.022 C 
BRANCH  23  24
ATOM     24  C   UNL     1       4.044   6.110   3.570  0.00  0.00    -0.016 C 
ATOM     25  C   UNL     1       2.877   7.094   3.669  0.00  0.00    +0.007 C 
ATOM     26  C   UNL     1       4.444   5.649   4.973  0.00  0.00    +0.007 C 
ENDBRANCH  23  24
ENDBRANCH  22  23
ENDBRANCH   4  22
TORSDOF 8
