REMARK  Name = ZINC06184942
REMARK  7 active torsions:
REMARK  status: ('A' for Active; 'I' for Inactive)
REMARK    1  A    between atoms: C_1  and  C_2
REMARK    2  A    between atoms: C_2  and  N_12
REMARK    3  A    between atoms: N_12  and  C_13
REMARK    4  A    between atoms: C_13  and  C_14
REMARK    5  A    between atoms: C_14  and  C_15
REMARK    6  A    between atoms: C_15  and  C_16
REMARK    7  A    between atoms: C_15  and  C_22
REMARK                            x       y       z     vdW  Elec       q    Type
REMARK                         _______ _______ _______ _____ _____    ______ ____
ROOT
ATOM      1  N   UNL     1      -0.493   1.397  -1.163  0.00  0.00    -0.347 N 
ATOM      2  H   UNL     1      -0.584   0.581  -0.646  0.00  0.00    +0.146 HD
ENDROOT
BRANCH   1   4
ATOM      3  C   UNL     1      -0.366   3.861  -1.341  0.00  0.00    +0.061 C 
ATOM      4  C   UNL     1      -0.430   2.588  -0.536  0.00  0.00    +0.018 C 
ATOM      5  C   UNL     1      -0.423   2.643   0.846  0.00  0.00    +0.115 C 
ATOM      6  C   UNL     1      -0.288   1.424   1.663  0.00  0.00    +0.258 C 
ATOM      7  O   UNL     1      -0.177   0.331   1.141  0.00  0.00    -0.270 OA
ATOM      8  N   UNL     1      -0.290   1.554   3.006  0.00  0.00    -0.236 N 
ATOM      9  C   UNL     1      -0.411   2.752   3.594  0.00  0.00    +0.313 C 
ATOM     10  O   UNL     1      -0.405   2.801   4.809  0.00  0.00    -0.252 OA
ATOM     11  N   UNL     1      -0.538   3.900   2.914  0.00  0.00    -0.236 N 
ATOM     12  C   UNL     1      -0.546   3.924   1.565  0.00  0.00    +0.258 C 
ATOM     13  O   UNL     1      -0.656   4.973   0.959  0.00  0.00    -0.270 OA
ATOM     14  H   UNL     1      -0.202   0.762   3.559  0.00  0.00    +0.159 HD
ATOM     15  H   UNL     1      -0.622   4.734   3.403  0.00  0.00    +0.159 HD
ENDBRANCH   1   4
BRANCH   1  16
ATOM     16  C   UNL     1      -0.426   1.333  -2.625  0.00  0.00    +0.102 C 
BRANCH  16  17
ATOM     17  C   UNL     1      -0.519  -0.125  -3.077  0.00  0.00    +0.031 C 
BRANCH  17  18
ATOM     18  C   UNL     1      -0.449  -0.191  -4.604  0.00  0.00    +0.050 C 
BRANCH  18  19
ATOM     19  C   UNL     1       0.904   0.284  -5.066  0.00  0.00    -0.040 A 
ATOM     20  C   UNL     1       0.999   1.299  -5.999  0.00  0.00    +0.004 A 
ATOM     21  C   UNL     1       2.241   1.735  -6.423  0.00  0.00    +0.000 A 
ATOM     22  C   UNL     1       3.388   1.155  -5.912  0.00  0.00    +0.000 A 
ATOM     23  C   UNL     1       3.293   0.141  -4.978  0.00  0.00    +0.000 A 
ATOM     24  C   UNL     1       2.051  -0.292  -4.552  0.00  0.00    +0.004 A 
ENDBRANCH  18  19
BRANCH  18  25
ATOM     25  C   UNL     1      -0.664  -1.612  -5.056  0.00  0.00    -0.040 A 
ATOM     26  C   UNL     1       0.130  -2.625  -4.552  0.00  0.00    +0.004 A 
ATOM     27  C   UNL     1      -0.067  -3.929  -4.966  0.00  0.00    +0.000 A 
ATOM     28  C   UNL     1      -1.058  -4.220  -5.885  0.00  0.00    +0.000 A 
ATOM     29  C   UNL     1      -1.853  -3.208  -6.388  0.00  0.00    +0.000 A 
ATOM     30  C   UNL     1      -1.659  -1.904  -5.970  0.00  0.00    +0.004 A 
ENDBRANCH  18  25
ENDBRANCH  17  18
ENDBRANCH  16  17
ENDBRANCH   1  16
TORSDOF 6
