REMARK  Name = ZINC23192428
REMARK  10 active torsions:
REMARK  status: ('A' for Active; 'I' for Inactive)
REMARK    1  A    between atoms: C_1  and  C_2
REMARK    2  A    between atoms: C_6  and  C_18
REMARK    3  A    between atoms: N_8  and  C_9
REMARK    4  A    between atoms: C_14  and  N_15
REMARK    5  A    between atoms: N_20  and  C_21
REMARK    6  A    between atoms: C_21  and  C_22
REMARK    7  A    between atoms: C_22  and  C_24
REMARK    8  A    between atoms: C_22  and  N_31
REMARK    9  A    between atoms: N_31  and  C_32
REMARK   10  A    between atoms: N_31  and  C_33
REMARK                            x       y       z     vdW  Elec       q    Type
REMARK                         _______ _______ _______ _____ _____    ______ ____
ROOT
ATOM      1  C   UNL     1      -2.575  -0.935   3.556  0.00  0.00    +0.066 C 
ATOM      2  C   UNL     1      -2.297  -0.183   2.280  0.00  0.00    +0.044 A 
ATOM      3  C   UNL     1      -1.035   0.222   2.005  0.00  0.00    +0.076 A 
ATOM      4  C   UNL     1      -0.814   0.923   0.790  0.00  0.00    +0.213 A 
ATOM      5  O   UNL     1       0.299   1.315   0.475  0.00  0.00    -0.285 OA
ATOM      6  C   UNL     1      -1.984   1.163  -0.069  0.00  0.00    +0.192 A 
ATOM      7  N   UNL     1      -3.158   0.714   0.319  0.00  0.00    -0.158 NA
ATOM      8  N   UNL     1      -3.314   0.080   1.423  0.00  0.00    -0.234 N 
ENDROOT
BRANCH   8   9
ATOM      9  C   UNL     1      -4.598  -0.363   1.759  0.00  0.00    +0.096 A 
ATOM     10  C   UNL     1      -4.986  -1.663   1.460  0.00  0.00    +0.030 A 
ATOM     11  C   UNL     1      -6.253  -2.098   1.797  0.00  0.00    +0.002 A 
ATOM     12  C   UNL     1      -7.137  -1.238   2.423  0.00  0.00    +0.002 A 
ATOM     13  C   UNL     1      -6.755   0.057   2.717  0.00  0.00    +0.035 A 
ATOM     14  C   UNL     1      -5.489   0.498   2.387  0.00  0.00    +0.151 A 
BRANCH  14  15
ATOM     15  N   UNL     1      -5.080   1.885   2.703  0.00  0.00    +0.059 N 
ATOM     16  O   UNL     1      -5.895   2.673   3.149  0.00  0.00    -0.126 OA
ATOM     17  O   UNL     1      -3.930   2.239   2.517  0.00  0.00    -0.126 OA
ENDBRANCH  14  15
ENDBRANCH   8   9
BRANCH   6  18
ATOM     18  C   UNL     1      -1.841   1.889  -1.347  0.00  0.00    +0.268 C 
ATOM     19  O   UNL     1      -0.764   2.354  -1.666  0.00  0.00    -0.268 OA
ATOM     20  N   UNL     1      -2.905   2.032  -2.163  0.00  0.00    -0.311 N 
ATOM     21  H   UNL     1      -3.897   1.687  -1.838  0.00  0.00    +0.149 HD
BRANCH  20  22
ATOM     22  C   UNL     1      -2.739   2.648  -3.482  0.00  0.00    +0.094 C 
BRANCH  22  23
ATOM     23  C   UNL     1      -4.037   2.506  -4.278  0.00  0.00    -0.020 C 
BRANCH  23  24
ATOM     24  C   UNL     1      -3.890   3.199  -5.608  0.00  0.00    -0.041 A 
ATOM     25  C   UNL     1      -3.679   2.457  -6.755  0.00  0.00    +0.003 A 
ATOM     26  C   UNL     1      -3.548   3.093  -7.976  0.00  0.00    +0.000 A 
ATOM     27  C   UNL     1      -3.618   4.472  -8.048  0.00  0.00    +0.001 A 
ATOM     28  C   UNL     1      -3.823   5.215  -6.901  0.00  0.00    +0.020 A 
ATOM     29  C   UNL     1      -3.959   4.579  -5.680  0.00  0.00    +0.043 A 
ATOM     30 CL   UNL     1      -4.216   5.512  -4.239  0.00  0.00    -0.083 Cl
ENDBRANCH  23  24
BRANCH  23  31
ATOM     31  N   UNL     1      -4.324   1.082  -4.498  0.00  0.00    +0.382 N 
ATOM     32  C   UNL     1      -3.092   0.335  -4.786  0.00  0.00    -0.096 C 
ATOM     33  C   UNL     1      -5.033   0.504  -3.349  0.00  0.00    -0.096 C 
ATOM     34  H   UNL     1      -4.981   1.001  -5.376  0.00  0.00    -0.082 HD
ENDBRANCH  23  31
ENDBRANCH  22  23
ENDBRANCH  20  22
ENDBRANCH   6  18
TORSDOF 7
