REMARK  Name = ZINC05858326
REMARK  4 active torsions:
REMARK  status: ('A' for Active; 'I' for Inactive)
REMARK    1  A    between atoms: C_3  and  N_11
REMARK    2  A    between atoms: C_6  and  N_7
REMARK    3  A    between atoms: C_12  and  C_14
REMARK    4  A    between atoms: C_14  and  N_15
REMARK                            x       y       z     vdW  Elec       q    Type
REMARK                         _______ _______ _______ _____ _____    ______ ____
ROOT
ATOM      1  N   UNL     1      -0.017   1.396   0.010  0.00  0.00    -0.283 N 
ATOM      2  C   UNL     1       1.176   2.023   0.002  0.00  0.00    +0.237 C 
ATOM      3  O   UNL     1       2.199   1.380  -0.099  0.00  0.00    -0.274 OA
ATOM      4  H   UNL     1      -0.837   1.913   0.006  0.00  0.00    +0.155 HD
ENDROOT
BRANCH   1   7
ATOM      5  C   UNL     1       0.935  -2.119   0.527  0.00  0.00    +0.034 A 
ATOM      6  C   UNL     1       0.992  -0.738   0.521  0.00  0.00    +0.027 A 
ATOM      7  C   UNL     1      -0.072  -0.003   0.017  0.00  0.00    +0.052 A 
ATOM      8  C   UNL     1      -1.194  -0.659  -0.475  0.00  0.00    +0.064 A 
ATOM      9  C   UNL     1      -1.242  -2.040  -0.472  0.00  0.00    +0.054 A 
ATOM     10  C   UNL     1      -0.180  -2.769   0.031  0.00  0.00    +0.128 A 
ATOM     11 CL   UNL     1      -2.530   0.256  -1.101  0.00  0.00    -0.082 Cl
BRANCH  10  12
ATOM     12  N   UNL     1      -0.237  -4.248   0.039  0.00  0.00    +0.056 N 
ATOM     13  O   UNL     1       0.698  -4.891   0.482  0.00  0.00    -0.126 OA
ATOM     14  O   UNL     1      -1.219  -4.822  -0.397  0.00  0.00    -0.126 OA
ENDBRANCH  10  12
ENDBRANCH   1   7
BRANCH   2  15
ATOM     15  C   UNL     1       1.238   3.524   0.120  0.00  0.00    +0.219 C 
BRANCH  15  16
ATOM     16  N   UNL     1       2.637   3.959   0.087  0.00  0.00    -0.318 N 
ATOM     17  C   UNL     1       3.327   4.175   1.244  0.00  0.00    +0.096 A 
ATOM     18  C   UNL     1       4.601   4.566   1.201  0.00  0.00    +0.066 A 
ATOM     19  S   UNL     1       4.904   4.667  -0.556  0.00  0.00    -0.059 S 
ATOM     20  C   UNL     1       3.283   4.165  -1.113  0.00  0.00    +0.166 A 
ATOM     21  N   UNL     1       2.829   4.028  -2.334  0.00  0.00    -0.277 NA
ATOM     22  H   UNL     1       3.409   4.211  -3.090  0.00  0.00    +0.189 HD
ENDBRANCH  15  16
ENDBRANCH   2  15
TORSDOF 4
