REMARK  Name = ZINC24080465
REMARK  9 active torsions:
REMARK  status: ('A' for Active; 'I' for Inactive)
REMARK    1  A    between atoms: C_1  and  C_2
REMARK    2  A    between atoms: C_5  and  O_28
REMARK    3  A    between atoms: C_6  and  C_8
REMARK    4  A    between atoms: C_8  and  O_10
REMARK    5  A    between atoms: O_10  and  C_11
REMARK    6  A    between atoms: C_11  and  C_13
REMARK    7  A    between atoms: C_11  and  C_14
REMARK    8  A    between atoms: N_16  and  C_17
REMARK    9  A    between atoms: C_18  and  C_25
REMARK                            x       y       z     vdW  Elec       q    Type
REMARK                         _______ _______ _______ _____ _____    ______ ____
ROOT
ATOM      1  C   UNL     1      -0.649  -2.224   5.923  0.00  0.00    +0.258 C 
ATOM      2  O   UNL     1      -1.126  -1.129   5.708  0.00  0.00    -0.271 OA
ATOM      3  N   UNL     1      -0.759  -2.778   7.146  0.00  0.00    -0.276 N 
ATOM      4  H   UNL     1      -0.378  -3.653   7.319  0.00  0.00    +0.155 HD
ENDROOT
BRANCH   3   5
ATOM      5  C   UNL     1      -1.417  -2.097   8.159  0.00  0.00    +0.084 A 
ATOM      6  C   UNL     1      -1.619  -2.503   9.465  0.00  0.00    +0.068 A 
ATOM      7  C   UNL     1      -2.350  -1.593  10.345  0.00  0.00    -0.023 A 
ATOM      8  C   UNL     1      -2.740  -0.451   9.751  0.00  0.00    -0.004 A 
ATOM      9  S   UNL     1      -2.143  -0.587   8.085  0.00  0.00    -0.077 S 
ATOM     10  C   UNL     1      -3.490   0.447  10.697  0.00  0.00    +0.043 C 
ATOM     11  C   UNL     1      -3.896  -0.474  11.869  0.00  0.00    +0.010 C 
ATOM     12  C   UNL     1      -2.811  -1.568  11.801  0.00  0.00    +0.037 C 
BRANCH   6  13
ATOM     13  C   UNL     1      -1.122  -3.795   9.948  0.00  0.00    +0.244 C 
ATOM     14  O   UNL     1      -0.007  -3.876  10.431  0.00  0.00    -0.270 OA
ATOM     15  N   UNL     1      -1.898  -4.893   9.857  0.00  0.00    -0.325 N 
ATOM     16  H   UNL     1      -2.786  -4.829   9.472  0.00  0.00    +0.145 HD
ATOM     17  H   UNL     1      -1.569  -5.748  10.176  0.00  0.00    +0.145 HD
ENDBRANCH   6  13
ENDBRANCH   3   5
BRANCH   1  18
ATOM     18  C   UNL     1       0.066  -2.964   4.822  0.00  0.00    +0.259 C 
ATOM     19  C   UNL     1       1.514  -3.226   5.240  0.00  0.00    +0.062 C 
BRANCH  18  20
ATOM     20  O   UNL     1       0.049  -2.176   3.630  0.00  0.00    -0.449 OA
BRANCH  20  21
ATOM     21  C   UNL     1       0.052  -2.841   2.457  0.00  0.00    +0.343 C 
ATOM     22  O   UNL     1       0.068  -4.056   2.448  0.00  0.00    -0.245 OA
BRANCH  21  28
ATOM     23  C   UNL     1      -0.018   1.503   0.010  0.00  0.00    +0.044 C 
ATOM     24  C   UNL     1       0.002  -0.004   0.002  0.00  0.00    -0.049 A 
ATOM     25  C   UNL     1       0.006  -0.687  -1.204  0.00  0.00    +0.007 A 
ATOM     26  C   UNL     1       0.024  -2.067  -1.225  0.00  0.00    +0.046 A 
ATOM     27  C   UNL     1       0.039  -2.781  -0.035  0.00  0.00    +0.131 A 
ATOM     28  C   UNL     1       0.036  -2.094   1.187  0.00  0.00    +0.101 A 
ATOM     29  C   UNL     1       0.023  -0.696   1.193  0.00  0.00    +0.022 A 
BRANCH  27  30
ATOM     30  O   UNL     1       0.057  -4.137  -0.054  0.00  0.00    -0.506 OA
ATOM     31  H   UNL     1       0.945  -4.519  -0.064  0.00  0.00    +0.292 HD
ENDBRANCH  27  30
ENDBRANCH  21  28
ENDBRANCH  20  21
ENDBRANCH  18  20
ENDBRANCH   1  18
TORSDOF 7
