REMARK  Name = ZINC62397037
REMARK  9 active torsions:
REMARK  status: ('A' for Active; 'I' for Inactive)
REMARK    1  A    between atoms: C_1  and  C_2
REMARK    2  A    between atoms: C_2  and  O_3
REMARK    3  A    between atoms: O_3  and  C_4
REMARK    4  A    between atoms: C_9  and  C_10
REMARK    5  A    between atoms: C_11  and  C_21
REMARK    6  A    between atoms: C_16  and  C_18
REMARK    7  A    between atoms: C_18  and  C_19
REMARK    8  A    between atoms: C_18  and  C_20
REMARK    9  A    between atoms: C_21  and  O_22
REMARK                            x       y       z     vdW  Elec       q    Type
REMARK                         _______ _______ _______ _____ _____    ______ ____
ROOT
ATOM      1  C   UNL     1       1.824  -1.429  -3.611  0.00  0.00    +0.101 A 
ATOM      2  C   UNL     1       2.708  -1.793  -4.573  0.00  0.00    +0.097 A 
ATOM      3  N   UNL     1       3.214  -0.631  -5.139  0.00  0.00    -0.208 N 
ATOM      4  C   UNL     1       2.591   0.391  -4.472  0.00  0.00    +0.196 A 
ATOM      5  N   UNL     1       1.772  -0.082  -3.579  0.00  0.00    -0.220 NA
ATOM      6  S   UNL     1       3.285   1.831  -5.249  0.00  0.00    -0.033 S 
ATOM      7  C   UNL     1       4.353   0.985  -6.404  0.00  0.00    +0.105 A 
ATOM      8  N   UNL     1       4.117  -0.262  -6.131  0.00  0.00    -0.162 NA
ENDROOT
BRANCH   1  14
ATOM      9  C   UNL     1      -0.327  -2.153  -2.568  0.00  0.00    +0.130 A 
ATOM     10  C   UNL     1      -1.048  -3.023  -1.766  0.00  0.00    +0.046 A 
ATOM     11  C   UNL     1      -0.410  -4.080  -1.143  0.00  0.00    +0.004 A 
ATOM     12  C   UNL     1       0.948  -4.275  -1.315  0.00  0.00    +0.001 A 
ATOM     13  C   UNL     1       1.679  -3.416  -2.112  0.00  0.00    +0.014 A 
ATOM     14  C   UNL     1       1.045  -2.352  -2.749  0.00  0.00    +0.044 A 
BRANCH   9  15
ATOM     15  O   UNL     1      -0.953  -1.114  -3.181  0.00  0.00    -0.492 OA
BRANCH  15  17
ATOM     16  C   UNL     1      -2.880   0.242  -3.716  0.00  0.00    +0.048 C 
ATOM     17  C   UNL     1      -2.356  -0.974  -2.950  0.00  0.00    +0.226 C 
ENDBRANCH  15  17
ENDBRANCH   9  15
ENDBRANCH   1  14
BRANCH   7  18
ATOM     18  C   UNL     1       5.287   1.569  -7.432  0.00  0.00    +0.040 C 
ATOM     19  C   UNL     1       6.630   1.895  -6.774  0.00  0.00    +0.014 C 
ATOM     20  C   UNL     1       5.503   0.557  -8.559  0.00  0.00    +0.014 C 
ENDBRANCH   7  18
BRANCH   2  21
ATOM     21  C   UNL     1       3.076  -3.203  -4.956  0.00  0.00    +0.213 C 
BRANCH  21  22
ATOM     22  O   UNL     1       4.267  -3.589  -4.266  0.00  0.00    -0.389 OA
ATOM     23  H   UNL     1       4.563  -4.487  -4.465  0.00  0.00    +0.210 HD
ENDBRANCH  21  22
ENDBRANCH   2  21
TORSDOF 6
