REMARK  Name = ZINC67606694
REMARK  9 active torsions:
REMARK  status: ('A' for Active; 'I' for Inactive)
REMARK    1  A    between atoms: C_1  and  C_2
REMARK    2  A    between atoms: C_3  and  C_8
REMARK    3  A    between atoms: N_6  and  C_7
REMARK    4  A    between atoms: C_8  and  C_10
REMARK    5  A    between atoms: C_8  and  N_11
REMARK    6  A    between atoms: N_14  and  C_15
REMARK    7  A    between atoms: C_15  and  C_16
REMARK    8  A    between atoms: C_20  and  N_22
REMARK    9  A    between atoms: C_23  and  C_25
REMARK                            x       y       z     vdW  Elec       q    Type
REMARK                         _______ _______ _______ _____ _____    ______ ____
ROOT
ATOM      1  C   UNL     1      -2.184  -1.869  -6.363  0.00  0.00    +0.141 C 
ENDROOT
BRANCH   1   5
ATOM      2  N   UNL     1      -0.288  -2.068  -3.219  0.00  0.00    -0.293 N 
ATOM      3  C   UNL     1      -0.913  -1.572  -4.305  0.00  0.00    +0.300 C 
ATOM      4  O   UNL     1      -0.942  -0.372  -4.495  0.00  0.00    -0.253 OA
ATOM      5  N   UNL     1      -1.505  -2.408  -5.182  0.00  0.00    -0.295 N 
ATOM      6  H   UNL     1      -0.264  -3.026  -3.068  0.00  0.00    +0.151 HD
ATOM      7  H   UNL     1      -1.481  -3.366  -5.031  0.00  0.00    +0.151 HD
BRANCH   2   8
ATOM      8  C   UNL     1       0.356  -1.160  -2.266  0.00  0.00    +0.105 C 
ATOM      9  C   UNL     1       1.770  -0.833  -2.749  0.00  0.00    +0.033 C 
BRANCH   8  12
ATOM     10  C   UNL     1       0.519   0.307   0.492  0.00  0.00    +0.065 C 
ATOM     11  C   UNL     1       0.497  -1.185   0.280  0.00  0.00    +0.041 A 
ATOM     12  C   UNL     1       0.427  -1.820  -0.913  0.00  0.00    +0.013 A 
ATOM     13  C   UNL     1       0.431  -3.197  -0.668  0.00  0.00    +0.140 A 
ATOM     14  N   UNL     1       0.502  -3.382   0.625  0.00  0.00    -0.179 NA
ATOM     15  N   UNL     1       0.550  -2.126   1.245  0.00  0.00    -0.271 N 
ATOM     16  C   UNL     1       0.638  -1.879   2.686  0.00  0.00    +0.172 C 
ENDBRANCH   8  12
ENDBRANCH   2   8
ENDBRANCH   1   5
BRANCH   1  17
ATOM     17  C   UNL     1      -2.757  -3.003  -7.174  0.00  0.00    -0.029 A 
ATOM     18  C   UNL     1      -1.995  -3.599  -8.162  0.00  0.00    +0.005 A 
ATOM     19  C   UNL     1      -2.517  -4.640  -8.908  0.00  0.00    +0.002 A 
ATOM     20  C   UNL     1      -3.802  -5.087  -8.667  0.00  0.00    +0.023 A 
ATOM     21  C   UNL     1      -4.569  -4.491  -7.675  0.00  0.00    +0.034 A 
ATOM     22  C   UNL     1      -4.040  -3.449  -6.925  0.00  0.00    +0.028 A 
BRANCH  21  23
ATOM     23  N   UNL     1      -5.871  -4.942  -7.429  0.00  0.00    -0.283 N 
ATOM     24  C   UNL     1      -6.174  -6.245  -7.590  0.00  0.00    +0.246 C 
ATOM     25  O   UNL     1      -5.300  -7.043  -7.853  0.00  0.00    -0.273 OA
ATOM     26  H   UNL     1      -6.555  -4.316  -7.144  0.00  0.00    +0.155 HD
BRANCH  24  27
ATOM     27  C   UNL     1      -7.599  -6.711  -7.441  0.00  0.00    +0.204 C 
ATOM     28  C   UNL     1      -8.068  -6.506  -5.984  0.00  0.00    +0.043 C 
ATOM     29  C   UNL     1      -8.913  -7.783  -5.727  0.00  0.00    +0.031 C 
ATOM     30  C   UNL     1      -8.133  -8.826  -6.567  0.00  0.00    +0.161 C 
ATOM     31  O   UNL     1      -7.686  -8.111  -7.732  0.00  0.00    -0.367 OA
ENDBRANCH  24  27
ENDBRANCH  21  23
ENDBRANCH   1  17
TORSDOF 6
