REMARK  Name = ZINC41012922
REMARK  6 active torsions:
REMARK  status: ('A' for Active; 'I' for Inactive)
REMARK    1  A    between atoms: C_1  and  C_2
REMARK    2  A    between atoms: C_2  and  O_3
REMARK    3  A    between atoms: O_3  and  C_4
REMARK    4  A    between atoms: N_6  and  C_7
REMARK    5  A    between atoms: C_8  and  C_20
REMARK    6  A    between atoms: C_15  and  C_19
REMARK                            x       y       z     vdW  Elec       q    Type
REMARK                         _______ _______ _______ _____ _____    ______ ____
ROOT
ATOM      1  C   UNL     1       1.502  -3.660  -2.586  0.00  0.00    +0.093 A 
ATOM      2  C   UNL     1       2.134  -4.237  -3.681  0.00  0.00    +0.083 A 
ATOM      3  C   UNL     1       2.297  -5.612  -3.947  0.00  0.00    -0.023 A 
ATOM      4  C   UNL     1       1.847  -6.638  -3.194  0.00  0.00    -0.022 A 
ATOM      5  C   UNL     1       1.152  -6.449  -1.966  0.00  0.00    +0.061 A 
ATOM      6  S   UNL     1       0.611  -7.766  -1.016  0.00  0.00    -0.044 S 
ATOM      7  S   UNL     1       0.886  -4.761  -1.475  0.00  0.00    -0.065 S 
ATOM      8  C   UNL     1       2.017  -8.091  -3.577  0.00  0.00    +0.040 C 
ATOM      9  C   UNL     1       3.112  -8.267  -4.622  0.00  0.00    -0.009 C 
ATOM     10  C   UNL     1       2.830  -7.275  -5.758  0.00  0.00    +0.008 C 
ATOM     11  C   UNL     1       3.080  -5.871  -5.226  0.00  0.00    +0.037 C 
ATOM     12  C   UNL     1       3.089  -9.698  -5.162  0.00  0.00    +0.008 C 
ENDROOT
BRANCH   1  15
ATOM     13  C   UNL     1       0.776  -1.797  -1.335  0.00  0.00    +0.405 C 
ATOM     14  O   UNL     1       0.312  -2.548  -0.500  0.00  0.00    -0.226 OA
ATOM     15  N   UNL     1       1.395  -2.298  -2.422  0.00  0.00    -0.244 N 
ATOM     16  H   UNL     1       1.765  -1.698  -3.088  0.00  0.00    +0.159 HD
BRANCH  13  17
ATOM     17  O   UNL     1       0.671  -0.465  -1.174  0.00  0.00    -0.450 OA
BRANCH  17  19
ATOM     18  C   UNL     1      -0.019   1.526   0.010  0.00  0.00    +0.048 C 
ATOM     19  C   UNL     1       0.002  -0.004   0.002  0.00  0.00    +0.230 C 
ENDBRANCH  17  19
ENDBRANCH  13  17
ENDBRANCH   1  15
BRANCH   2  20
ATOM     20  C   UNL     1       2.679  -3.334  -4.649  0.00  0.00    +0.102 C 
ATOM     21  N   UNL     1       3.112  -2.617  -5.417  0.00  0.00    -0.191 NA
ENDBRANCH   2  20
TORSDOF 4
