REMARK  Name = ZINC05415001
REMARK  5 active torsions:
REMARK  status: ('A' for Active; 'I' for Inactive)
REMARK    1  A    between atoms: C_1  and  C_2
REMARK    2  A    between atoms: C_5  and  N_8
REMARK    3  A    between atoms: C_9  and  C_11
REMARK    4  A    between atoms: C_11  and  C_12
REMARK    5  A    between atoms: N_18  and  N_19
REMARK                            x       y       z     vdW  Elec       q    Type
REMARK                         _______ _______ _______ _____ _____    ______ ____
ROOT
ATOM      1  C   UNL     1       0.424  -6.867   2.557  0.00  0.00    +0.149 C 
ATOM      2  C   UNL     1       0.590  -8.378   2.586  0.00  0.00    +0.233 C 
ATOM      3  O   UNL     1       1.545  -8.931   2.083  0.00  0.00    -0.274 OA
ATOM      4  N   UNL     1      -0.372  -9.051   3.194  0.00  0.00    -0.263 N 
ATOM      5  C   UNL     1      -1.460  -8.429   3.768  0.00  0.00    +0.183 C 
ATOM      6  N   UNL     1      -2.474  -8.984   4.397  0.00  0.00    -0.127 NA
ATOM      7  S   UNL     1      -1.170  -6.692   3.459  0.00  0.00    -0.075 S 
ATOM      8  H   UNL     1      -0.309 -10.018   3.238  0.00  0.00    +0.157 HD
ENDROOT
BRANCH   6   9
ATOM      9  N   UNL     1      -2.530 -10.376   4.543  0.00  0.00    -0.156 NA
ATOM     10  C   UNL     1      -3.528 -10.921   5.161  0.00  0.00    +0.041 C 
ATOM     11  C   UNL     1      -4.646 -10.075   5.727  0.00  0.00    +0.053 C 
ATOM     12  C   UNL     1      -5.982 -10.636   5.229  0.00  0.00    +0.006 C 
ATOM     13  C   UNL     1      -6.073 -12.121   5.585  0.00  0.00    +0.001 C 
ATOM     14  C   UNL     1      -4.979 -12.898   4.851  0.00  0.00    +0.006 C 
ATOM     15  C   UNL     1      -3.608 -12.422   5.330  0.00  0.00    +0.053 C 
ENDBRANCH   6   9
BRANCH   1  16
ATOM     16  C   UNL     1       0.309  -6.349   1.121  0.00  0.00    +0.120 C 
BRANCH  16  18
ATOM     17  N   UNL     1       0.059  -4.170  -0.021  0.00  0.00    -0.285 N 
ATOM     18  C   UNL     1       0.175  -4.848   1.138  0.00  0.00    +0.219 C 
ATOM     19  O   UNL     1       0.173  -4.251   2.193  0.00  0.00    -0.275 OA
ATOM     20  H   UNL     1      -0.017  -4.651  -0.860  0.00  0.00    +0.155 HD
BRANCH  17  25
ATOM     21  C   UNL     1       0.008   1.503   0.007  0.00  0.00    +0.044 C 
ATOM     22  C   UNL     1       0.022  -0.004  -0.001  0.00  0.00    -0.050 A 
ATOM     23  C   UNL     1       0.777  -0.692   0.931  0.00  0.00    +0.005 A 
ATOM     24  C   UNL     1       0.791  -2.073   0.927  0.00  0.00    +0.023 A 
ATOM     25  C   UNL     1       0.046  -2.771  -0.014  0.00  0.00    +0.033 A 
ATOM     26  C   UNL     1      -0.712  -2.077  -0.948  0.00  0.00    +0.023 A 
ATOM     27  C   UNL     1      -0.726  -0.696  -0.936  0.00  0.00    +0.005 A 
ENDBRANCH  17  25
ENDBRANCH  16  18
ENDBRANCH   1  16
TORSDOF 4
