REMARK  Name = ZINC44737509
REMARK  7 active torsions:
REMARK  status: ('A' for Active; 'I' for Inactive)
REMARK    1  A    between atoms: C_1  and  C_2
REMARK    2  A    between atoms: C_10  and  C_12
REMARK    3  A    between atoms: C_12  and  C_13
REMARK    4  A    between atoms: C_12  and  N_14
REMARK    5  A    between atoms: C_15  and  C_17
REMARK    6  A    between atoms: C_27  and  C_29
REMARK    7  A    between atoms: C_32  and  C_34
REMARK                            x       y       z     vdW  Elec       q    Type
REMARK                         _______ _______ _______ _____ _____    ______ ____
ROOT
ATOM      1  C   UNL     1      -1.623  -8.782   1.003  0.00  0.00    +0.100 C 
ATOM      2  C   UNL     1      -0.547  -9.331   0.039  0.00  0.00    +0.121 C 
ATOM      3  N   UNL     1      -0.032 -10.548   0.708  0.00  0.00    -0.294 N 
ATOM      4  C   UNL     1      -1.235 -11.181   1.301  0.00  0.00    +0.115 C 
ATOM      5  C   UNL     1      -2.072 -10.001   1.826  0.00  0.00    -0.004 C 
ATOM      6  C   UNL     1      -1.786  -9.772   3.307  0.00  0.00    -0.010 C 
ATOM      7  C   UNL     1      -2.292 -10.973   4.111  0.00  0.00    -0.082 C 
ATOM      8  N   UNL     1      -3.733 -11.140   3.890  0.00  0.00    +0.379 N 
ATOM      9  C   UNL     1      -3.991 -11.451   2.479  0.00  0.00    -0.082 C 
ATOM     10  C   UNL     1      -3.557 -10.270   1.606  0.00  0.00    -0.010 C 
ATOM     11  C   UNL     1       1.243 -10.982   0.766  0.00  0.00    +0.282 C 
ATOM     12  O   UNL     1       1.509 -12.011   1.359  0.00  0.00    -0.267 OA
ATOM     13  H   UNL     1      -4.076 -11.893   4.467  0.00  0.00    -0.086 HD
ATOM     14  H   UNL     1      -4.211 -10.287   4.138  0.00  0.00    -0.086 HD
ENDROOT
BRANCH  11  15
ATOM     15  C   UNL     1       2.308 -10.216   0.114  0.00  0.00    +0.190 A 
ATOM     16  C   UNL     1       3.645 -10.548   0.090  0.00  0.00    +0.055 A 
ATOM     17  C   UNL     1       4.296  -9.546  -0.636  0.00  0.00    +0.051 A 
ATOM     18  C   UNL     1       3.343  -8.648  -1.026  0.00  0.00    +0.139 A 
ATOM     19  O   UNL     1       2.149  -9.065  -0.573  0.00  0.00    -0.450 OA
BRANCH  18  20
ATOM     20  C   UNL     1       3.585  -7.426  -1.818  0.00  0.00    +0.052 A 
ATOM     21  C   UNL     1       4.594  -6.536  -1.444  0.00  0.00    +0.014 A 
ATOM     22  C   UNL     1       4.814  -5.396  -2.189  0.00  0.00    +0.001 A 
ATOM     23  C   UNL     1       4.039  -5.132  -3.305  0.00  0.00    +0.003 A 
ATOM     24  C   UNL     1       3.038  -6.008  -3.683  0.00  0.00    +0.039 A 
ATOM     25  C   UNL     1       2.809  -7.158  -2.950  0.00  0.00    +0.134 A 
ATOM     26  F   UNL     1       1.834  -8.016  -3.323  0.00  0.00    -0.205 F 
ENDBRANCH  18  20
ENDBRANCH  11  15
BRANCH   1  28
ATOM     27  N   UNL     1      -1.814  -6.747   2.396  0.00  0.00    -0.305 N 
ATOM     28  C   UNL     1      -1.032  -7.728   1.904  0.00  0.00    +0.219 C 
ATOM     29  O   UNL     1       0.146  -7.764   2.187  0.00  0.00    -0.275 OA
ATOM     30  H   UNL     1      -2.757  -6.718   2.170  0.00  0.00    +0.149 HD
BRANCH  27  31
ATOM     31  C   UNL     1      -1.240  -5.723   3.272  0.00  0.00    +0.136 C 
ATOM     32  C   UNL     1      -0.627  -4.608   2.421  0.00  0.00    +0.036 C 
BRANCH  31  42
ATOM     33  C   UNL     1      -5.583  -2.589   8.440  0.00  0.00    +0.044 C 
ATOM     34  C   UNL     1      -5.117  -3.277   7.183  0.00  0.00    -0.048 A 
ATOM     35  C   UNL     1      -6.041  -3.646   6.215  0.00  0.00    +0.005 A 
ATOM     36  C   UNL     1      -5.639  -4.270   5.069  0.00  0.00    +0.030 A 
ATOM     37  C   UNL     1      -4.284  -4.543   4.864  0.00  0.00    +0.089 A 
ATOM     38  C   UNL     1      -3.347  -4.170   5.843  0.00  0.00    +0.067 A 
ATOM     39  C   UNL     1      -3.774  -3.532   6.999  0.00  0.00    +0.031 A 
ATOM     40  N   UNL     1      -2.115  -4.566   5.362  0.00  0.00    -0.340 N 
ATOM     41  H   UNL     1      -1.261  -4.451   5.806  0.00  0.00    +0.167 HD
ATOM     42  C   UNL     1      -2.322  -5.148   4.149  0.00  0.00    +0.128 A 
ATOM     43  N   UNL     1      -3.590  -5.135   3.857  0.00  0.00    -0.231 NA
ENDBRANCH  31  42
ENDBRANCH  27  31
ENDBRANCH   1  28
TORSDOF 5
