REMARK  Name = ZINC42804661
REMARK  6 active torsions:
REMARK  status: ('A' for Active; 'I' for Inactive)
REMARK    1  A    between atoms: C_1  and  C_2
REMARK    2  A    between atoms: C_8  and  C_10
REMARK    3  A    between atoms: C_10  and  N_11
REMARK    4  A    between atoms: N_11  and  C_12
REMARK    5  A    between atoms: C_13  and  N_22
REMARK    6  A    between atoms: N_14  and  C_21
REMARK                            x       y       z     vdW  Elec       q    Type
REMARK                         _______ _______ _______ _____ _____    ______ ____
ROOT
ATOM      1  C   UNL     1       4.194   0.011   2.697  0.00  0.00    +0.131 A 
ATOM      2  C   UNL     1       4.833  -0.348   3.853  0.00  0.00    +0.127 A 
ATOM      3  N   UNL     1       6.142   0.032   4.046  0.00  0.00    -0.284 N 
ATOM      4  C   UNL     1       6.788   0.750   3.109  0.00  0.00    +0.331 A 
ATOM      5  O   UNL     1       7.944   1.076   3.296  0.00  0.00    -0.246 OA
ATOM      6  N   UNL     1       6.174   1.111   1.967  0.00  0.00    -0.273 N 
ATOM      7  H   UNL     1       6.659   1.628   1.305  0.00  0.00    +0.173 HD
ATOM      8  C   UNL     1       4.896   0.756   1.733  0.00  0.00    +0.277 A 
ATOM      9  O   UNL     1       4.349   1.084   0.693  0.00  0.00    -0.266 OA
ATOM     10  C   UNL     1       6.836  -0.347   5.279  0.00  0.00    +0.155 C 
ENDROOT
BRANCH   2  11
ATOM     11  N   UNL     1       4.174  -1.082   4.812  0.00  0.00    -0.343 N 
ATOM     12  H   UNL     1       3.252  -1.347   4.671  0.00  0.00    +0.144 HD
ATOM     13  H   UNL     1       4.632  -1.334   5.630  0.00  0.00    +0.144 HD
ENDBRANCH   2  11
BRANCH   1  14
ATOM     14  N   UNL     1       2.849  -0.367   2.474  0.00  0.00    -0.337 N 
ATOM     15  H   UNL     1       2.372  -0.881   3.144  0.00  0.00    +0.146 HD
BRANCH  14  16
ATOM     16  C   UNL     1       2.178   0.019   1.231  0.00  0.00    +0.105 C 
BRANCH  16  23
ATOM     17  C   UNL     1      -0.019   1.526   0.010  0.00  0.00    +0.008 C 
ATOM     18  C   UNL     1       0.002  -0.004   0.002  0.00  0.00    -0.010 C 
ATOM     19  C   UNL     1      -1.433  -0.534   0.013  0.00  0.00    +0.003 C 
ATOM     20  C   UNL     1      -1.413  -2.063   0.004  0.00  0.00    +0.000 C 
ATOM     21  C   UNL     1      -0.673  -2.570   1.244  0.00  0.00    +0.000 C 
ATOM     22  C   UNL     1       0.763  -2.041   1.233  0.00  0.00    +0.005 C 
ATOM     23  C   UNL     1       0.742  -0.511   1.242  0.00  0.00    +0.009 C 
ENDBRANCH  16  23
ENDBRANCH  14  16
ENDBRANCH   1  14
TORSDOF 4
