REMARK  Name = ZINC39275896
REMARK  5 active torsions:
REMARK  status: ('A' for Active; 'I' for Inactive)
REMARK    1  A    between atoms: C_1  and  C_2
REMARK    2  A    between atoms: C_7  and  O_29
REMARK    3  A    between atoms: C_13  and  C_15
REMARK    4  A    between atoms: C_15  and  C_16
REMARK    5  A    between atoms: N_18  and  C_19
REMARK                            x       y       z     vdW  Elec       q    Type
REMARK                         _______ _______ _______ _____ _____    ______ ____
ROOT
ATOM      1  C   UNL     1       0.015   1.607   0.024  0.00  0.00    +0.013 C 
ATOM      2  C   UNL     1       0.094   0.080  -0.020  0.00  0.00    +0.034 C 
ATOM      3  C   UNL     1      -1.300  -0.493  -0.049  0.00  0.00    -0.001 A 
ATOM      4  C   UNL     1      -2.261   0.147  -0.817  0.00  0.00    +0.011 A 
ATOM      5  C   UNL     1      -3.548  -0.345  -0.879  0.00  0.00    +0.046 A 
ATOM      6  C   UNL     1      -3.888  -1.489  -0.170  0.00  0.00    +0.120 A 
ATOM      7  C   UNL     1      -2.933  -2.130   0.600  0.00  0.00    +0.092 A 
ATOM      8  C   UNL     1      -1.637  -1.630   0.664  0.00  0.00    +0.139 A 
ATOM      9  O   UNL     1      -0.733  -2.279   1.449  0.00  0.00    -0.425 OA
ATOM     10  C   UNL     1       0.559  -1.911   1.346  0.00  0.00    +0.316 C 
ATOM     11  O   UNL     1       1.452  -2.725   1.355  0.00  0.00    -0.250 OA
ATOM     12  C   UNL     1       0.838  -0.427   1.219  0.00  0.00    +0.114 C 
ENDROOT
BRANCH   6  13
ATOM     13  O   UNL     1      -5.154  -1.978  -0.232  0.00  0.00    -0.507 OA
ATOM     14  H   UNL     1      -5.295  -2.617  -0.944  0.00  0.00    +0.292 HD
ENDBRANCH   6  13
BRANCH  12  15
ATOM     15  C   UNL     1       0.333   0.306   2.464  0.00  0.00    +0.111 C 
BRANCH  15  16
ATOM     16  C   UNL     1       1.153  -0.109   3.658  0.00  0.00    +0.218 C 
ATOM     17  O   UNL     1       2.053  -0.912   3.527  0.00  0.00    -0.275 OA
ATOM     18  N   UNL     1       0.886   0.412   4.872  0.00  0.00    -0.285 N 
ATOM     19  H   UNL     1       0.215   1.106   4.965  0.00  0.00    +0.155 HD
BRANCH  18  20
ATOM     20  C   UNL     1       1.571  -0.045   5.989  0.00  0.00    +0.033 C 
ATOM     21  C   UNL     1       0.877  -0.562   7.061  0.00  0.00    +0.029 C 
ATOM     22  C   UNL     1       1.672  -1.044   8.107  0.00  0.00    -0.016 C 
ATOM     23  C   UNL     1       1.485  -1.120   9.440  0.00  0.00    +0.025 C 
ATOM     24  C   UNL     1       2.708  -1.426  10.066  0.00  0.00    +0.106 C 
ATOM     25  N   UNL     1       3.662  -1.648   9.203  0.00  0.00    -0.279 NA
ATOM     26  C   UNL     1       3.072  -1.587   7.873  0.00  0.00    +0.158 C 
ATOM     27  C   UNL     1       3.764  -0.666   6.914  0.00  0.00    +0.006 C 
ATOM     28  C   UNL     1       3.035   0.015   6.028  0.00  0.00    +0.021 C 
ENDBRANCH  18  20
ENDBRANCH  15  16
ENDBRANCH  12  15
TORSDOF 4
