REMARK  Name = ZINC43261749
REMARK  9 active torsions:
REMARK  status: ('A' for Active; 'I' for Inactive)
REMARK    1  A    between atoms: C_1  and  C_2
REMARK    2  A    between atoms: C_2  and  C_3
REMARK    3  A    between atoms: C_3  and  C_5
REMARK    4  A    between atoms: C_3  and  N_23
REMARK    5  A    between atoms: C_5  and  C_7
REMARK    6  A    between atoms: C_5  and  N_13
REMARK    7  A    between atoms: N_13  and  C_14
REMARK    8  A    between atoms: N_13  and  C_20
REMARK    9  A    between atoms: C_14  and  C_15
REMARK                            x       y       z     vdW  Elec       q    Type
REMARK                         _______ _______ _______ _____ _____    ______ ____
ROOT
ATOM      1  C   UNL     1       0.506  -2.113   1.490  0.00  0.00    -0.013 C 
ENDROOT
BRANCH   1   2
ATOM      2  C   UNL     1       1.086  -2.688   2.756  0.00  0.00    -0.021 A 
ATOM      3  C   UNL     1       2.305  -3.245   2.960  0.00  0.00    +0.011 A 
ATOM      4  C   UNL     1       2.626  -3.712   4.221  0.00  0.00    +0.023 A 
ATOM      5  C   UNL     1       1.712  -3.597   5.216  0.00  0.00    +0.055 A 
ATOM      6  S   UNL     1       0.351  -2.803   4.378  0.00  0.00    -0.088 S 
ATOM      7 BR   UNL     1       1.849  -4.132   7.025  0.00  0.00    -0.043 Br
ENDBRANCH   1   2
BRANCH   1   8
ATOM      8  N   UNL     1      -0.778  -2.764   1.200  0.00  0.00    +0.390 N 
ATOM      9  H   UNL     1      -1.216  -2.309   0.413  0.00  0.00    -0.080 HD
BRANCH   8  10
ATOM     10  C   UNL     1      -1.655  -2.663   2.374  0.00  0.00    -0.067 C 
ATOM     11  C   UNL     1      -3.117  -2.281   2.133  0.00  0.00    -0.017 C 
ATOM     12  C   UNL     1      -2.156  -1.271   2.764  0.00  0.00    -0.017 C 
ENDBRANCH   8  10
BRANCH   8  13
ATOM     13  C   UNL     1      -0.548  -4.180   0.881  0.00  0.00    -0.041 C 
BRANCH  13  14
ATOM     14  C   UNL     1      -1.843  -4.813   0.441  0.00  0.00    -0.057 A 
ATOM     15  C   UNL     1      -2.689  -5.396   1.365  0.00  0.00    +0.009 A 
ATOM     16  C   UNL     1      -3.846  -5.957   0.936  0.00  0.00    +0.045 A 
ATOM     17  S   UNL     1      -3.766  -5.667  -0.824  0.00  0.00    -0.105 S 
ATOM     18  C   UNL     1      -2.198  -4.813  -0.867  0.00  0.00    +0.047 A 
ENDBRANCH  13  14
ENDBRANCH   8  13
ENDBRANCH   1   8
BRANCH   1  19
ATOM     19  C   UNL     1       0.286  -0.609   1.666  0.00  0.00    +0.042 C 
BRANCH  19  20
ATOM     20  N   UNL     1       1.585   0.061   1.821  0.00  0.00    -0.328 NA
ATOM     21  H   UNL     1       2.051  -0.244   2.662  0.00  0.00    +0.118 HD
ATOM     22  H   UNL     1       2.167  -0.088   1.010  0.00  0.00    +0.118 HD
ENDBRANCH  19  20
BRANCH  19  24
ATOM     23  C   UNL     1      -0.708   1.441   0.640  0.00  0.00    +0.005 C 
ATOM     24  C   UNL     1      -0.432  -0.051   0.436  0.00  0.00    +0.014 C 
ENDBRANCH  19  24
ENDBRANCH   1  19
TORSDOF 8
