REMARK  Name = ZINC01738943
REMARK  5 active torsions:
REMARK  status: ('A' for Active; 'I' for Inactive)
REMARK    1  A    between atoms: C_1  and  C_2
REMARK    2  A    between atoms: C_5  and  S_8
REMARK    3  A    between atoms: S_8  and  N_11
REMARK    4  A    between atoms: N_14  and  C_15
REMARK    5  A    between atoms: C_20  and  C_21
REMARK                            x       y       z     vdW  Elec       q    Type
REMARK                         _______ _______ _______ _____ _____    ______ ____
ROOT
ATOM      1  N   UNL     1      -0.011   0.965  -0.009  0.00  0.00    -0.169 N 
ATOM      2  C   UNL     1       1.147   1.655  -0.004  0.00  0.00    +0.323 C 
ATOM      3  O   UNL     1       1.130   2.871   0.011  0.00  0.00    -0.251 OA
ATOM      4  N   UNL     1       2.323   0.998  -0.015  0.00  0.00    -0.268 N 
ATOM      5  H   UNL     1       0.002  -0.004  -0.021  0.00  0.00    +0.178 HD
ATOM      6  H   UNL     1       2.338   0.030   0.056  0.00  0.00    +0.156 HD
ENDROOT
BRANCH   4   7
ATOM      7  C   UNL     1       3.522   1.711  -0.128  0.00  0.00    +0.039 A 
ATOM      8  C   UNL     1       3.533   2.963  -0.728  0.00  0.00    +0.045 A 
ATOM      9  C   UNL     1       4.718   3.665  -0.838  0.00  0.00    +0.061 A 
ATOM     10  C   UNL     1       5.895   3.119  -0.351  0.00  0.00    +0.060 A 
ATOM     11  C   UNL     1       5.886   1.872   0.247  0.00  0.00    +0.026 A 
ATOM     12  C   UNL     1       4.702   1.169   0.364  0.00  0.00    -0.028 A 
ATOM     13  C   UNL     1       4.693  -0.187   1.021  0.00  0.00    +0.046 C 
ATOM     14 CL   UNL     1       7.383   4.003  -0.491  0.00  0.00    -0.082 Cl
ATOM     15 CL   UNL     1       4.733   5.231  -1.587  0.00  0.00    -0.082 Cl
ENDBRANCH   4   7
BRANCH   1  16
ATOM     16  S   UNL     1      -1.457   1.774  -0.002  0.00  0.00    +0.076 S 
ATOM     17  O   UNL     1      -2.475   0.784  -0.044  0.00  0.00    -0.150 OA
ATOM     18  O   UNL     1      -1.376   2.741   1.035  0.00  0.00    -0.150 OA
BRANCH  16  23
ATOM     19  C   UNL     1      -1.814   4.834  -5.190  0.00  0.00    +0.044 C 
ATOM     20  C   UNL     1      -1.725   4.070  -3.894  0.00  0.00    -0.050 A 
ATOM     21  C   UNL     1      -2.212   2.778  -3.819  0.00  0.00    +0.005 A 
ATOM     22  C   UNL     1      -2.130   2.077  -2.630  0.00  0.00    +0.029 A 
ATOM     23  C   UNL     1      -1.561   2.667  -1.517  0.00  0.00    +0.109 A 
ATOM     24  C   UNL     1      -1.078   3.961  -1.591  0.00  0.00    +0.029 A 
ATOM     25  C   UNL     1      -1.156   4.660  -2.781  0.00  0.00    +0.005 A 
ENDBRANCH  16  23
ENDBRANCH   1  16
TORSDOF 3
