REMARK  Name = ZINC52834494
REMARK  6 active torsions:
REMARK  status: ('A' for Active; 'I' for Inactive)
REMARK    1  A    between atoms: C_1  and  C_2
REMARK    2  A    between atoms: C_4  and  C_8
REMARK    3  A    between atoms: C_5  and  C_7
REMARK    4  A    between atoms: C_8  and  C_10
REMARK    5  A    between atoms: C_8  and  N_11
REMARK    6  A    between atoms: N_13  and  O_14
REMARK                            x       y       z     vdW  Elec       q    Type
REMARK                         _______ _______ _______ _____ _____    ______ ____
ROOT
ATOM      1  C   UNL     1      -1.437  -3.390  -0.009  0.00  0.00    +0.113 C 
ATOM      2  C   UNL     1      -1.609  -3.892   1.426  0.00  0.00    +0.035 C 
ENDROOT
BRANCH   1   6
ATOM      3  C   UNL     1      -0.018   1.503   0.010  0.00  0.00    +0.086 C 
ATOM      4  C   UNL     1       0.002  -0.004   0.002  0.00  0.00    +0.103 A 
ATOM      5  C   UNL     1      -1.078  -0.805   0.003  0.00  0.00    +0.050 A 
ATOM      6  C   UNL     1      -0.601  -2.136  -0.007  0.00  0.00    +0.015 A 
ATOM      7  C   UNL     1       0.742  -2.069  -0.013  0.00  0.00    +0.107 A 
ATOM      8  O   UNL     1       1.102  -0.775  -0.013  0.00  0.00    -0.465 OA
ATOM      9  C   UNL     1       1.684  -3.245  -0.023  0.00  0.00    +0.086 C 
ENDBRANCH   1   6
BRANCH   1  10
ATOM     10  N   UNL     1      -2.752  -3.099  -0.586  0.00  0.00    -0.347 N 
ATOM     11  C   UNL     1      -3.490  -4.110  -1.167  0.00  0.00    +0.232 C 
ATOM     12  N   UNL     1      -4.657  -3.852  -1.679  0.00  0.00    -0.051 NA
ATOM     13  N   UNL     1      -2.988  -5.395  -1.206  0.00  0.00    -0.367 N 
ATOM     14  H   UNL     1      -3.105  -2.196  -0.558  0.00  0.00    +0.163 HD
ATOM     15  H   UNL     1      -2.118  -5.588  -0.825  0.00  0.00    +0.159 HD
ATOM     16  H   UNL     1      -3.507  -6.106  -1.615  0.00  0.00    +0.159 HD
BRANCH  12  17
ATOM     17  O   UNL     1      -5.414  -4.889  -2.276  0.00  0.00    -0.406 OA
ATOM     18  H   UNL     1      -6.267  -4.601  -2.628  0.00  0.00    +0.328 HD
ENDBRANCH  12  17
ENDBRANCH   1  10
TORSDOF 3
