REMARK  Name = ZINC18192171
REMARK  5 active torsions:
REMARK  status: ('A' for Active; 'I' for Inactive)
REMARK    1  A    between atoms: C_1  and  C_2
REMARK    2  A    between atoms: C_2  and  C_3
REMARK    3  A    between atoms: C_2  and  C_4
REMARK    4  A    between atoms: C_2  and  C_5
REMARK    5  A    between atoms: C_17  and  C_20
REMARK                            x       y       z     vdW  Elec       q    Type
REMARK                         _______ _______ _______ _____ _____    ______ ____
ROOT
ATOM      1  C   UNL     1      -0.726   1.578   1.271  0.00  0.00    -0.000 C 
ATOM      2  C   UNL     1      -0.013   1.086   0.008  0.00  0.00    +0.009 C 
ATOM      3  C   UNL     1      -0.749   1.591  -1.234  0.00  0.00    +0.037 C 
ATOM      4  C   UNL     1      -2.223   1.218  -1.118  0.00  0.00    -0.023 A 
ATOM      5  C   UNL     1      -2.762   0.891   0.077  0.00  0.00    -0.004 A 
ATOM      6  S   UNL     1      -4.466   0.540  -0.270  0.00  0.00    -0.078 S 
ATOM      7  C   UNL     1      -4.458   0.823  -1.958  0.00  0.00    +0.080 A 
ATOM      8  C   UNL     1      -3.135   1.185  -2.250  0.00  0.00    +0.068 A 
ATOM      9  C   UNL     1      -2.807   1.502  -3.659  0.00  0.00    +0.248 C 
ATOM     10  O   UNL     1      -1.716   1.943  -3.972  0.00  0.00    -0.270 OA
ATOM     11  N   UNL     1      -3.768   1.283  -4.581  0.00  0.00    -0.288 N 
ATOM     12  C   UNL     1      -4.997   0.547  -4.304  0.00  0.00    +0.207 C 
ATOM     13  N   UNL     1      -5.440   0.752  -2.913  0.00  0.00    -0.315 N 
ATOM     14  C   UNL     1      -2.065   0.841   1.401  0.00  0.00    +0.046 C 
ATOM     15  H   UNL     1      -3.634   1.633  -5.476  0.00  0.00    +0.151 HD
ATOM     16  H   UNL     1      -6.380   0.833  -2.684  0.00  0.00    +0.149 HD
ENDROOT
BRANCH  12  17
ATOM     17  C   UNL     1      -4.755  -0.922  -4.534  0.00  0.00    +0.064 A 
ATOM     18  C   UNL     1      -4.948  -1.806  -3.531  0.00  0.00    +0.095 A 
ATOM     19  C   UNL     1      -4.719  -3.183  -3.773  0.00  0.00    +0.254 A 
ATOM     20  O   UNL     1      -4.891  -3.999  -2.886  0.00  0.00    -0.268 OA
ATOM     21  N   UNL     1      -4.304  -3.580  -4.993  0.00  0.00    -0.275 N 
ATOM     22  H   UNL     1      -4.136  -4.550  -5.170  0.00  0.00    +0.173 HD
ATOM     23  C   UNL     1      -4.115  -2.677  -5.972  0.00  0.00    +0.327 A 
ATOM     24  O   UNL     1      -3.741  -3.050  -7.067  0.00  0.00    -0.247 OA
ATOM     25  N   UNL     1      -4.334  -1.367  -5.757  0.00  0.00    -0.308 N 
ATOM     26  H   UNL     1      -4.189  -0.712  -6.499  0.00  0.00    +0.170 HD
ENDBRANCH  12  17
BRANCH   1  28
ATOM     27  C   UNL     1       1.483   2.004   2.358  0.00  0.00    +0.011 C 
ATOM     28  C   UNL     1       0.140   1.284   2.497  0.00  0.00    -0.035 C 
ATOM     29  C   UNL     1      -0.575   1.777   3.757  0.00  0.00    +0.011 C 
ATOM     30  C   UNL     1       0.379  -0.224   2.603  0.00  0.00    +0.011 C 
ENDBRANCH   1  28
TORSDOF 2
