REMARK  Name = ZINC20755812
REMARK  6 active torsions:
REMARK  status: ('A' for Active; 'I' for Inactive)
REMARK    1  A    between atoms: C_1  and  O_2
REMARK    2  A    between atoms: O_2  and  C_3
REMARK    3  A    between atoms: C_13  and  C_18
REMARK    4  A    between atoms: N_24  and  C_27
REMARK    5  A    between atoms: C_27  and  C_28
REMARK    6  A    between atoms: C_28  and  C_29
REMARK                            x       y       z     vdW  Elec       q    Type
REMARK                         _______ _______ _______ _____ _____    ______ ____
ROOT
ATOM      1  C   UNL     1       2.916  -2.509   4.683  0.00  0.00    +0.121 A 
ATOM      2  C   UNL     1       2.194  -1.573   5.415  0.00  0.00    +0.047 A 
ATOM      3  C   UNL     1       1.317  -0.687   4.815  0.00  0.00    +0.030 A 
ATOM      4  C   UNL     1       1.181  -0.766   3.431  0.00  0.00    +0.047 A 
ATOM      5  C   UNL     1       1.917  -1.719   2.682  0.00  0.00    +0.006 A 
ATOM      6  C   UNL     1       2.799  -2.608   3.305  0.00  0.00    +0.056 A 
ATOM      7  C   UNL     1       1.535  -1.520   1.301  0.00  0.00    -0.022 A 
ATOM      8  C   UNL     1       0.631  -0.510   1.278  0.00  0.00    +0.011 A 
ATOM      9  N   UNL     1       0.417  -0.054   2.547  0.00  0.00    -0.359 N 
ATOM     10  H   UNL     1      -0.240   0.749   2.911  0.00  0.00    +0.166 HD
ATOM     11  C   UNL     1       0.002  -0.004   0.002  0.00  0.00    +0.018 C 
ATOM     12  N   UNL     1       0.801  -0.482  -1.138  0.00  0.00    +0.388 N 
ATOM     13  C   UNL     1       1.018  -1.934  -1.070  0.00  0.00    -0.076 C 
ATOM     14  C   UNL     1       1.999  -2.251   0.066  0.00  0.00    +0.018 C 
ATOM     15  H   UNL     1       0.275  -0.251  -2.076  0.00  0.00    -0.084 HD
ATOM     16  H   UNL     1       1.781   0.018  -1.134  0.00  0.00    -0.084 HD
ENDROOT
BRANCH  11  17
ATOM     17  C   UNL     1      -0.018   1.503   0.010  0.00  0.00    +0.073 A 
ATOM     18  C   UNL     1       1.184   2.232   0.003  0.00  0.00    +0.258 A 
ATOM     19  O   UNL     1       2.255   1.650  -0.011  0.00  0.00    -0.267 OA
ATOM     20  N   UNL     1       1.144   3.579   0.010  0.00  0.00    -0.302 N 
ATOM     21  C   UNL     1      -0.035   4.227   0.024  0.00  0.00    +0.163 A 
ATOM     22  S   UNL     1      -0.057   5.939   0.034  0.00  0.00    -0.013 S 
ATOM     23  N   UNL     1      -1.198   3.550   0.032  0.00  0.00    -0.288 N 
ATOM     24  C   UNL     1      -1.203   2.178   0.019  0.00  0.00    +0.260 A 
ATOM     25  O   UNL     1      -2.371   1.502   0.021  0.00  0.00    -0.267 OA
ATOM     26  H   UNL     1       2.084   4.150   0.004  0.00  0.00    +0.171 HD
BRANCH  23  27
ATOM     27  C   UNL     1      -2.467   4.282   0.048  0.00  0.00    +0.132 C 
BRANCH  27  28
ATOM     28  C   UNL     1      -2.922   4.544  -1.389  0.00  0.00    +0.057 C 
BRANCH  28  29
ATOM     29  C   UNL     1      -4.227   5.297  -1.373  0.00  0.00    -0.046 A 
ATOM     30  C   UNL     1      -5.424   4.606  -1.371  0.00  0.00    +0.004 A 
ATOM     31  C   UNL     1      -6.622   5.296  -1.352  0.00  0.00    +0.000 A 
ATOM     32  C   UNL     1      -6.622   6.679  -1.343  0.00  0.00    +0.000 A 
ATOM     33  C   UNL     1      -5.425   7.370  -1.350  0.00  0.00    +0.000 A 
ATOM     34  C   UNL     1      -4.228   6.680  -1.365  0.00  0.00    +0.004 A 
ENDBRANCH  28  29
ENDBRANCH  27  28
ENDBRANCH  23  27
ENDBRANCH  11  17
BRANCH   1  36
ATOM     35  C   UNL     1       3.846  -3.210   6.757  0.00  0.00    +0.277 C 
ATOM     36  O   UNL     1       3.761  -3.350   5.337  0.00  0.00    -0.495 OA
ENDBRANCH   1  36
TORSDOF 5
