REMARK  Name = ZINC46958726
REMARK  7 active torsions:
REMARK  status: ('A' for Active; 'I' for Inactive)
REMARK    1  A    between atoms: C_4  and  N_7
REMARK    2  A    between atoms: C_10  and  C_13
REMARK    3  A    between atoms: C_13  and  N_14
REMARK    4  A    between atoms: N_17  and  N_18
REMARK    5  A    between atoms: N_18  and  C_19
REMARK    6  A    between atoms: C_19  and  N_21
REMARK    7  A    between atoms: N_21  and  C_22
REMARK                            x       y       z     vdW  Elec       q    Type
REMARK                         _______ _______ _______ _____ _____    ______ ____
ROOT
ATOM      1  N   UNL     1       7.064  -3.844   0.849  0.00  0.00    -0.298 N 
ATOM      2  C   UNL     1       7.580  -4.857   1.573  0.00  0.00    +0.316 C 
ATOM      3  O   UNL     1       6.846  -5.566   2.234  0.00  0.00    -0.251 OA
ATOM      4  N   UNL     1       8.908  -5.085   1.563  0.00  0.00    -0.219 N 
ATOM      5  H   UNL     1       7.650  -3.278   0.321  0.00  0.00    +0.150 HD
ATOM      6  H   UNL     1       9.279  -5.814   2.084  0.00  0.00    +0.174 HD
ENDROOT
BRANCH   4   7
ATOM      7  N   UNL     1       9.753  -4.268   0.801  0.00  0.00    -0.245 N 
ATOM      8  H   UNL     1       9.383  -3.539   0.280  0.00  0.00    +0.172 HD
BRANCH   7   9
ATOM      9  C   UNL     1      11.082  -4.496   0.791  0.00  0.00    +0.147 C 
ATOM     10  S   UNL     1      12.115  -3.497  -0.140  0.00  0.00    -0.017 S 
BRANCH   9  11
ATOM     11  N   UNL     1      11.597  -5.509   1.515  0.00  0.00    -0.323 N 
ATOM     12  H   UNL     1      11.012  -6.075   2.043  0.00  0.00    +0.148 HD
BRANCH  11  13
ATOM     13  C   UNL     1      13.041  -5.756   1.505  0.00  0.00    +0.072 C 
ATOM     14  C   UNL     1      13.408  -6.693   0.335  0.00  0.00    +0.022 C 
ATOM     15  C   UNL     1      14.532  -7.593   0.908  0.00  0.00    +0.002 C 
ATOM     16  C   UNL     1      14.069  -7.831   2.366  0.00  0.00    +0.002 C 
ATOM     17  C   UNL     1      13.461  -6.480   2.796  0.00  0.00    +0.022 C 
ENDBRANCH  11  13
ENDBRANCH   9  11
ENDBRANCH   7   9
ENDBRANCH   4   7
BRANCH   1  18
ATOM     18  C   UNL     1       5.621  -3.596   0.859  0.00  0.00    +0.111 C 
BRANCH  18  22
ATOM     19  N   UNL     1       3.620  -0.649  -0.036  0.00  0.00    -0.330 N 
ATOM     20  C   UNL     1       4.954  -0.021  -0.040  0.00  0.00    +0.105 C 
ATOM     21  C   UNL     1       5.899  -1.095   0.556  0.00  0.00    +0.025 C 
ATOM     22  C   UNL     1       5.302  -2.398  -0.037  0.00  0.00    +0.025 C 
ATOM     23  C   UNL     1       3.786  -2.110  -0.046  0.00  0.00    +0.110 C 
BRANCH  19  27
ATOM     24  C   UNL     1      -0.017   1.379   0.010  0.00  0.00    +0.000 A 
ATOM     25  C   UNL     1       1.169   2.089   0.002  0.00  0.00    +0.002 A 
ATOM     26  C   UNL     1       2.377   1.420  -0.013  0.00  0.00    +0.023 A 
ATOM     27  C   UNL     1       2.400   0.031  -0.021  0.00  0.00    +0.030 A 
ATOM     28  C   UNL     1       1.206  -0.680  -0.013  0.00  0.00    +0.023 A 
ATOM     29  C   UNL     1       0.002  -0.004   0.002  0.00  0.00    +0.002 A 
ENDBRANCH  19  27
ENDBRANCH  18  22
ENDBRANCH   1  18
TORSDOF 7
