REMARK  Name = ZINC62362844
REMARK  8 active torsions:
REMARK  status: ('A' for Active; 'I' for Inactive)
REMARK    1  A    between atoms: C_1  and  C_2
REMARK    2  A    between atoms: C_5  and  C_8
REMARK    3  A    between atoms: C_8  and  C_10
REMARK    4  A    between atoms: C_8  and  N_21
REMARK    5  A    between atoms: C_10  and  N_11
REMARK    6  A    between atoms: N_11  and  S_12
REMARK    7  A    between atoms: S_12  and  N_15
REMARK    8  A    between atoms: N_15  and  C_16
REMARK                            x       y       z     vdW  Elec       q    Type
REMARK                         _______ _______ _______ _____ _____    ______ ____
ROOT
ATOM      1  C   UNL     1       0.085  -4.415  -0.112  0.00  0.00    -0.022 C 
ENDROOT
BRANCH   1   2
ATOM      2  N   UNL     1       0.929  -4.969   0.955  0.00  0.00    +0.385 N 
ATOM      3  C   UNL     1       2.291  -4.417   0.815  0.00  0.00    -0.078 C 
ATOM      4  C   UNL     1       2.964  -4.469   2.164  0.00  0.00    -0.019 C 
ATOM      5  C   UNL     1       3.835  -5.731   2.311  0.00  0.00    -0.002 C 
ATOM      6  C   UNL     1       3.146  -6.974   1.713  0.00  0.00    -0.002 C 
ATOM      7  C   UNL     1       1.674  -7.025   2.032  0.00  0.00    -0.019 C 
ATOM      8  C   UNL     1       0.886  -6.362   0.883  0.00  0.00    -0.078 C 
ATOM      9  H   UNL     1       0.555  -4.679   1.847  0.00  0.00    -0.081 HD
ENDBRANCH   1   2
BRANCH   1  14
ATOM     10  C   UNL     1       0.227   1.357   0.114  0.00  0.00    +0.044 C 
ATOM     11  C   UNL     1       0.190  -0.148   0.056  0.00  0.00    -0.050 A 
ATOM     12  C   UNL     1       0.211  -0.793  -1.167  0.00  0.00    +0.003 A 
ATOM     13  C   UNL     1       0.177  -2.174  -1.221  0.00  0.00    +0.002 A 
ATOM     14  C   UNL     1       0.123  -2.910  -0.053  0.00  0.00    -0.060 A 
ATOM     15  C   UNL     1       0.103  -2.265   1.170  0.00  0.00    +0.002 A 
ATOM     16  C   UNL     1       0.141  -0.885   1.224  0.00  0.00    +0.003 A 
ENDBRANCH   1  14
BRANCH   1  17
ATOM     17  C   UNL     1      -1.355  -4.897   0.076  0.00  0.00    +0.096 C 
BRANCH  17  18
ATOM     18  N   UNL     1      -2.185  -4.398  -1.023  0.00  0.00    -0.181 NA
ATOM     19  H   UNL     1      -1.867  -3.668  -1.578  0.00  0.00    +0.149 HD
BRANCH  18  20
ATOM     20  S   UNL     1      -3.665  -5.078  -1.319  0.00  0.00    +0.095 S 
ATOM     21  O   UNL     1      -4.227  -4.369  -2.414  0.00  0.00    -0.141 OA
ATOM     22  O   UNL     1      -3.468  -6.485  -1.344  0.00  0.00    -0.141 OA
BRANCH  20  23
ATOM     23  N   UNL     1      -4.622  -4.758  -0.006  0.00  0.00    -0.177 NA
ATOM     24  H   UNL     1      -4.939  -5.485   0.552  0.00  0.00    +0.149 HD
BRANCH  23  25
ATOM     25  C   UNL     1      -4.990  -3.376   0.312  0.00  0.00    +0.078 C 
ATOM     26  C   UNL     1      -6.396  -3.063  -0.241  0.00  0.00    +0.020 C 
ATOM     27  C   UNL     1      -7.340  -3.305   0.963  0.00  0.00    +0.002 C 
ATOM     28  C   UNL     1      -6.515  -2.768   2.159  0.00  0.00    +0.002 C 
ATOM     29  C   UNL     1      -5.066  -3.188   1.837  0.00  0.00    +0.020 C 
ENDBRANCH  23  25
ENDBRANCH  20  23
ENDBRANCH  18  20
ENDBRANCH  17  18
ENDBRANCH   1  17
TORSDOF 7
