REMARK  Name = ZINC06448187
REMARK  6 active torsions:
REMARK  status: ('A' for Active; 'I' for Inactive)
REMARK    1  A    between atoms: C_6  and  C_7
REMARK    2  A    between atoms: C_7  and  N_8
REMARK    3  A    between atoms: C_11  and  C_12
REMARK    4  A    between atoms: N_13  and  C_14
REMARK    5  A    between atoms: C_20  and  N_47
REMARK    6  A    between atoms: C_25  and  O_26
REMARK                            x       y       z     vdW  Elec       q    Type
REMARK                         _______ _______ _______ _____ _____    ______ ____
ROOT
ATOM      1  N   UNL     1       0.390  -0.034  -0.013  0.00  0.00    -0.223 N 
ATOM      2  C   UNL     1       0.184  -0.688   1.150  0.00  0.00    +0.241 C 
ATOM      3  O   UNL     1      -0.057  -0.083   2.178  0.00  0.00    -0.274 OA
ATOM      4  C   UNL     1       0.261  -2.159   1.134  0.00  0.00    +0.204 C 
ATOM      5  C   UNL     1       0.559  -2.799  -0.163  0.00  0.00    +0.257 C 
ATOM      6  O   UNL     1       0.640  -4.012  -0.257  0.00  0.00    -0.272 OA
ATOM      7  N   UNL     1       0.740  -2.012  -1.236  0.00  0.00    -0.130 NA
ATOM      8  C   UNL     1       0.654  -0.707  -1.162  0.00  0.00    +0.281 C 
ENDROOT
BRANCH   4   9
ATOM      9  C   UNL     1       0.063  -2.906   2.281  0.00  0.00    +0.100 C 
ATOM     10  N   UNL     1      -0.021  -4.249   2.204  0.00  0.00    -0.293 NA
BRANCH  10  11
ATOM     11  C   UNL     1      -0.110  -5.048   3.428  0.00  0.00    +0.090 C 
ATOM     12  C   UNL     1       1.298  -5.314   3.967  0.00  0.00    +0.025 C 
ATOM     13  C   UNL     1       1.205  -6.149   5.245  0.00  0.00    +0.002 C 
ATOM     14  C   UNL     1       0.518  -7.481   4.936  0.00  0.00    -0.001 C 
ATOM     15  C   UNL     1      -0.890  -7.215   4.398  0.00  0.00    -0.014 C 
ATOM     16  C   UNL     1      -0.797  -6.380   3.119  0.00  0.00    -0.050 C 
BRANCH  16  19
ATOM     17  H   UNL     1      -2.624  -6.989   2.391  0.00  0.00    -0.090 HD
ATOM     18  H   UNL     1      -2.684  -5.567   3.251  0.00  0.00    -0.090 HD
ATOM     19  N   UNL     1      -2.143  -6.112   2.581  0.00  0.00    +0.381 N 
ATOM     20  H   UNL     1      -2.057  -5.580   1.707  0.00  0.00    -0.090 HD
ENDBRANCH  16  19
ENDBRANCH  10  11
ENDBRANCH   4   9
BRANCH   8  21
ATOM     21  O   UNL     1       0.844   0.008  -2.288  0.00  0.00    -0.483 OA
ATOM     22  H   UNL     1       1.031  -0.489  -3.097  0.00  0.00    +0.295 HD
ENDBRANCH   8  21
BRANCH   1  23
ATOM     23  C   UNL     1       0.321   1.429  -0.036  0.00  0.00    +0.153 C 
BRANCH  23  29
ATOM     24  C   UNL     1       2.071   2.276   1.541  0.00  0.00    +0.008 A 
ATOM     25  C   UNL     1       3.326   2.794   1.797  0.00  0.00    +0.038 A 
ATOM     26  C   UNL     1       4.196   3.050   0.750  0.00  0.00    +0.123 A 
ATOM     27  C   UNL     1       3.809   2.780  -0.551  0.00  0.00    +0.038 A 
ATOM     28  C   UNL     1       2.555   2.256  -0.805  0.00  0.00    +0.008 A 
ATOM     29  C   UNL     1       1.688   2.001   0.241  0.00  0.00    -0.029 A 
ATOM     30  F   UNL     1       5.420   3.563   0.999  0.00  0.00    -0.205 F 
ENDBRANCH  23  29
ENDBRANCH   1  23
TORSDOF 6
