REMARK  Name = ZINC04944290
REMARK  3 active torsions:
REMARK  status: ('A' for Active; 'I' for Inactive)
REMARK    1  A    between atoms: C_1  and  S_2
REMARK    2  A    between atoms: S_2  and  C_3
REMARK    3  A    between atoms: C_15  and  C_17
REMARK                            x       y       z     vdW  Elec       q    Type
REMARK                         _______ _______ _______ _____ _____    ______ ____
ROOT
ATOM      1  C   UNL     1       0.863  -0.328  -1.503  0.00  0.00    +0.171 A 
ATOM      2  N   UNL     1       1.031  -1.645  -1.807  0.00  0.00    -0.302 N 
ATOM      3  H   UNL     1       0.689  -2.328  -1.208  0.00  0.00    +0.171 HD
ATOM      4  C   UNL     1       1.672  -2.002  -2.941  0.00  0.00    +0.258 A 
ATOM      5  O   UNL     1       1.829  -3.179  -3.225  0.00  0.00    -0.267 OA
ATOM      6  C   UNL     1       2.152  -0.995  -3.783  0.00  0.00    +0.065 A 
ATOM      7  C   UNL     1       1.956   0.330  -3.431  0.00  0.00    +0.137 A 
ATOM      8  N   UNL     1       1.310   0.624  -2.298  0.00  0.00    -0.208 NA
ATOM      9  N   UNL     1       2.424   1.341  -4.253  0.00  0.00    -0.270 N 
ATOM     10  C   UNL     1       3.365   1.090  -5.181  0.00  0.00    +0.219 C 
ATOM     11  O   UNL     1       3.749   1.987  -5.901  0.00  0.00    -0.275 OA
ATOM     12  C   UNL     1       3.949  -0.288  -5.336  0.00  0.00    +0.109 C 
ATOM     13  C   UNL     1       2.873  -1.340  -5.058  0.00  0.00    +0.067 C 
ATOM     14  H   UNL     1       2.069   2.239  -4.159  0.00  0.00    +0.156 HD
ENDROOT
BRANCH  13  15
ATOM     15  C   UNL     1       1.891  -1.368  -6.200  0.00  0.00    -0.032 A 
ATOM     16  C   UNL     1       1.090  -0.293  -6.439  0.00  0.00    +0.005 A 
ATOM     17  C   UNL     1       0.176  -0.300  -7.491  0.00  0.00    +0.001 A 
ATOM     18  C   UNL     1       0.056  -1.381  -8.308  0.00  0.00    +0.008 A 
ATOM     19  C   UNL     1       0.865  -2.510  -8.092  0.00  0.00    -0.018 A 
ATOM     20  C   UNL     1       1.800  -2.500  -7.026  0.00  0.00    -0.014 A 
ATOM     21  C   UNL     1       2.614  -3.626  -6.814  0.00  0.00    +0.009 A 
ATOM     22  C   UNL     1       2.498  -4.705  -7.635  0.00  0.00    +0.001 A 
ATOM     23  C   UNL     1       1.583  -4.712  -8.687  0.00  0.00    +0.001 A 
ATOM     24  C   UNL     1       0.770  -3.645  -8.915  0.00  0.00    +0.008 A 
ENDBRANCH  13  15
BRANCH   1  26
ATOM     25  C   UNL     1       0.028   1.927  -0.034  0.00  0.00    +0.093 C 
ATOM     26  S   UNL     1       0.023   0.113  -0.019  0.00  0.00    -0.091 S 
ENDBRANCH   1  26
TORSDOF 2
