REMARK  Name = ZINC13631843
REMARK  9 active torsions:
REMARK  status: ('A' for Active; 'I' for Inactive)
REMARK    1  A    between atoms: C_1  and  C_2
REMARK    2  A    between atoms: C_5  and  C_25
REMARK    3  A    between atoms: C_6  and  C_8
REMARK    4  A    between atoms: C_8  and  C_10
REMARK    5  A    between atoms: C_8  and  N_11
REMARK    6  A    between atoms: N_11  and  S_12
REMARK    7  A    between atoms: S_12  and  C_15
REMARK    8  A    between atoms: C_18  and  C_24
REMARK    9  A    between atoms: C_19  and  N_21
REMARK                            x       y       z     vdW  Elec       q    Type
REMARK                         _______ _______ _______ _____ _____    ______ ____
ROOT
ATOM      1  S   UNL     1      -1.553   1.808   0.043  0.00  0.00    +0.059 S 
ATOM      2  O   UNL     1      -2.749   1.044   0.126  0.00  0.00    -0.153 OA
ATOM      3  O   UNL     1      -1.187   2.760   1.032  0.00  0.00    -0.153 OA
ENDROOT
BRANCH   1   4
ATOM      4  C   UNL     1      -1.613   2.672  -1.491  0.00  0.00    +0.107 A 
ATOM      5  C   UNL     1      -0.891   3.840  -1.655  0.00  0.00    +0.029 A 
ATOM      6  C   UNL     1      -0.934   4.515  -2.860  0.00  0.00    +0.007 A 
ATOM      7  C   UNL     1      -1.708   4.029  -3.898  0.00  0.00    -0.020 A 
ATOM      8  C   UNL     1      -2.435   2.866  -3.731  0.00  0.00    +0.131 A 
ATOM      9  C   UNL     1      -2.388   2.187  -2.528  0.00  0.00    +0.061 A 
ATOM     10  C   UNL     1      -1.760   4.769  -5.210  0.00  0.00    +0.046 C 
BRANCH   8  11
ATOM     11  N   UNL     1      -3.264   2.346  -4.842  0.00  0.00    +0.057 N 
ATOM     12  O   UNL     1      -3.811   1.262  -4.738  0.00  0.00    -0.126 OA
ATOM     13  O   UNL     1      -3.400   3.001  -5.859  0.00  0.00    -0.126 OA
ENDBRANCH   8  11
ENDBRANCH   1   4
BRANCH   1  14
ATOM     14  N   UNL     1      -0.305   0.723  -0.055  0.00  0.00    -0.183 NA
ATOM     15  H   UNL     1      -0.487  -0.229  -0.030  0.00  0.00    +0.149 HD
BRANCH  14  16
ATOM     16  C   UNL     1       1.073   1.203  -0.184  0.00  0.00    +0.104 C 
ATOM     17  C   UNL     1       1.724   1.263   1.199  0.00  0.00    +0.031 C 
BRANCH  16  23
ATOM     18  C   UNL     1       1.620  -3.300  -2.297  0.00  0.00    +0.044 C 
ATOM     19  C   UNL     1       2.114  -1.894  -2.077  0.00  0.00    -0.050 A 
ATOM     20  C   UNL     1       3.281  -1.468  -2.682  0.00  0.00    +0.003 A 
ATOM     21  C   UNL     1       3.733  -0.177  -2.480  0.00  0.00    +0.004 A 
ATOM     22  C   UNL     1       3.019   0.687  -1.672  0.00  0.00    -0.046 A 
ATOM     23  C   UNL     1       1.852   0.261  -1.066  0.00  0.00    -0.026 A 
ATOM     24  C   UNL     1       1.402  -1.031  -1.264  0.00  0.00    +0.008 A 
ATOM     25  C   UNL     1       3.512   2.094  -1.451  0.00  0.00    +0.044 C 
ENDBRANCH  16  23
ENDBRANCH  14  16
ENDBRANCH   1  14
TORSDOF 5
