REMARK  Name = ZINC00075882
REMARK  6 active torsions:
REMARK  status: ('A' for Active; 'I' for Inactive)
REMARK    1  A    between atoms: C_1  and  C_2
REMARK    2  A    between atoms: C_3  and  C_17
REMARK    3  A    between atoms: C_4  and  C_12
REMARK    4  A    between atoms: C_6  and  C_10
REMARK    5  A    between atoms: C_7  and  N_9
REMARK    6  A    between atoms: C_17  and  C_19
REMARK                            x       y       z     vdW  Elec       q    Type
REMARK                         _______ _______ _______ _____ _____    ______ ____
ROOT
ATOM      1  C   UNL     1      -0.081   1.500  -0.032  0.00  0.00    +0.086 C 
ATOM      2  C   UNL     1      -0.030  -0.006  -0.024  0.00  0.00    +0.112 C 
ATOM      3  C   UNL     1      -1.182  -0.698   0.012  0.00  0.00    +0.048 C 
ATOM      4  C   UNL     1      -1.185  -2.202   0.022  0.00  0.00    +0.137 C 
ATOM      5  C   UNL     1       0.183  -2.716   0.382  0.00  0.00    +0.101 C 
ATOM      6  C   UNL     1       1.267  -1.905   0.326  0.00  0.00    +0.198 C 
ATOM      7  O   UNL     1       1.163  -0.618  -0.058  0.00  0.00    -0.445 OA
ENDROOT
BRANCH   4   8
ATOM      8  C   UNL     1      -2.185  -2.694   1.036  0.00  0.00    +0.118 A 
ATOM      9  C   UNL     1      -3.197  -3.547   0.793  0.00  0.00    +0.045 A 
ATOM     10  C   UNL     1      -3.879  -3.732   2.018  0.00  0.00    +0.041 A 
ATOM     11  C   UNL     1      -3.243  -2.982   2.936  0.00  0.00    +0.195 A 
ATOM     12  O   UNL     1      -2.214  -2.360   2.336  0.00  0.00    -0.467 OA
ENDBRANCH   4   8
BRANCH   6  13
ATOM     13  N   UNL     1       2.499  -2.408   0.662  0.00  0.00    -0.328 N 
ATOM     14  H   UNL     1       2.586  -3.334   0.937  0.00  0.00    +0.145 HD
ATOM     15  H   UNL     1       3.282  -1.837   0.625  0.00  0.00    +0.145 HD
ENDBRANCH   6  13
BRANCH   3  16
ATOM     16  C   UNL     1      -2.405  -0.004   0.042  0.00  0.00    +0.160 C 
ATOM     17  O   UNL     1      -2.697   0.671   1.008  0.00  0.00    -0.293 OA
ATOM     18  C   UNL     1      -3.353  -0.098  -1.126  0.00  0.00    +0.091 C 
ENDBRANCH   3  16
BRANCH   5  19
ATOM     19  C   UNL     1       0.341  -4.079   0.791  0.00  0.00    +0.101 C 
ATOM     20  N   UNL     1       0.466  -5.161   1.116  0.00  0.00    -0.191 NA
ENDBRANCH   5  19
TORSDOF 4
