REMARK  Name = ZINC50039070
REMARK  4 active torsions:
REMARK  status: ('A' for Active; 'I' for Inactive)
REMARK    1  A    between atoms: C_1  and  C_2
REMARK    2  A    between atoms: C_2  and  C_3
REMARK    3  A    between atoms: N_15  and  C_16
REMARK    4  A    between atoms: C_18  and  C_24
REMARK                            x       y       z     vdW  Elec       q    Type
REMARK                         _______ _______ _______ _____ _____    ______ ____
ROOT
ATOM      1  C   UNL     1       0.716  -0.406   1.148  0.00  0.00    +0.108 C 
ATOM      2  C   UNL     1       0.214  -1.846   1.230  0.00  0.00    -0.017 A 
ATOM      3  C   UNL     1       0.972  -2.943   0.822  0.00  0.00    +0.013 A 
ATOM      4  C   UNL     1       0.461  -4.192   0.920  0.00  0.00    +0.046 A 
ATOM      5  S   UNL     1      -1.155  -3.876   1.611  0.00  0.00    -0.101 S 
ATOM      6  C   UNL     1      -1.028  -2.110   1.720  0.00  0.00    -0.004 A 
ATOM      7  C   UNL     1      -2.039  -1.136   2.231  0.00  0.00    +0.062 C 
ATOM      8  C   UNL     1      -1.647   0.273   1.760  0.00  0.00    +0.115 C 
ATOM      9  N   UNL     1      -0.195   0.434   1.938  0.00  0.00    -0.278 N 
ATOM     10  C   UNL     1       0.292   1.336   2.813  0.00  0.00    +0.307 C 
ATOM     11  O   UNL     1      -0.465   2.091   3.392  0.00  0.00    -0.252 OA
ATOM     12  N   UNL     1       1.618   1.400   3.046  0.00  0.00    -0.265 N 
ATOM     13  H   UNL     1       2.221   0.799   2.582  0.00  0.00    +0.157 HD
ENDROOT
BRANCH  12  14
ATOM     14  C   UNL     1       2.124   2.336   3.959  0.00  0.00    +0.100 A 
ATOM     15  C   UNL     1       3.278   3.017   3.684  0.00  0.00    +0.042 A 
ATOM     16  C   UNL     1       3.763   3.947   4.615  0.00  0.00    +0.073 A 
ATOM     17  C   UNL     1       3.090   4.164   5.768  0.00  0.00    +0.098 A 
ATOM     18  N   UNL     1       1.943   3.488   6.043  0.00  0.00    -0.327 N 
ATOM     19  H   UNL     1       1.475   3.657   6.876  0.00  0.00    +0.168 HD
ATOM     20  C   UNL     1       1.446   2.591   5.171  0.00  0.00    +0.270 A 
ATOM     21  O   UNL     1       0.411   1.996   5.429  0.00  0.00    -0.266 OA
BRANCH  16  22
ATOM     22  C   UNL     1       5.033   4.706   4.330  0.00  0.00    +0.419 C 
ATOM     23  F   UNL     1       5.311   5.568   5.396  0.00  0.00    -0.166 F 
ATOM     24  F   UNL     1       6.090   3.803   4.173  0.00  0.00    -0.166 F 
ATOM     25  F   UNL     1       4.878   5.451   3.155  0.00  0.00    -0.166 F 
ENDBRANCH  16  22
ENDBRANCH  12  14
BRANCH   1  27
ATOM     26  C   UNL     1       1.319   1.464  -0.395  0.00  0.00    +0.006 C 
ATOM     27  C   UNL     1       0.718   0.060  -0.309  0.00  0.00    +0.024 C 
ENDBRANCH   1  27
TORSDOF 3
