REMARK  Name = ZINC39379313
REMARK  3 active torsions:
REMARK  status: ('A' for Active; 'I' for Inactive)
REMARK    1  A    between atoms: C_7  and  C_11
REMARK    2  A    between atoms: N_13  and  N_14
REMARK    3  A    between atoms: C_15  and  C_16
REMARK                            x       y       z     vdW  Elec       q    Type
REMARK                         _______ _______ _______ _____ _____    ______ ____
ROOT
ATOM      1  C   UNL     1       0.960  -2.821   1.216  0.00  0.00    +0.241 C 
ATOM      2  O   UNL     1       0.370  -2.159   2.043  0.00  0.00    -0.273 OA
ATOM      3  N   UNL     1       1.123  -4.146   1.404  0.00  0.00    -0.206 N 
ATOM      4  H   UNL     1       1.595  -4.675   0.742  0.00  0.00    +0.177 HD
ENDROOT
BRANCH   1  11
ATOM      5  C   UNL     1      -0.017   1.378   0.010  0.00  0.00    +0.000 A 
ATOM      6  C   UNL     1       1.174   2.082   0.002  0.00  0.00    +0.002 A 
ATOM      7  C   UNL     1       2.377   1.411  -0.013  0.00  0.00    +0.023 A 
ATOM      8  C   UNL     1       2.405   0.014  -0.021  0.00  0.00    +0.031 A 
ATOM      9  C   UNL     1       1.206  -0.682  -0.013  0.00  0.00    -0.013 A 
ATOM     10  C   UNL     1       0.002  -0.004   0.002  0.00  0.00    +0.006 A 
ATOM     11  C   UNL     1       1.510  -2.163  -0.023  0.00  0.00    +0.125 C 
ATOM     12  C   UNL     1       3.046  -2.241  -0.038  0.00  0.00    +0.119 C 
ATOM     13  N   UNL     1       3.501  -0.849  -0.036  0.00  0.00    -0.343 N 
ATOM     14  H   UNL     1       4.430  -0.568  -0.044  0.00  0.00    +0.146 HD
ENDBRANCH   1  11
BRANCH   3  15
ATOM     15  N   UNL     1       0.612  -4.758   2.555  0.00  0.00    -0.187 NA
ATOM     16  C   UNL     1       0.769  -6.037   2.737  0.00  0.00    +0.145 C 
BRANCH  16  17
ATOM     17  C   UNL     1       0.234  -6.677   3.942  0.00  0.00    +0.033 A 
ATOM     18  C   UNL     1       0.297  -8.005   4.326  0.00  0.00    +0.018 A 
ATOM     19  C   UNL     1      -0.288  -8.371   5.516  0.00  0.00    +0.028 A 
ATOM     20  C   UNL     1      -0.904  -7.424   6.273  0.00  0.00    +0.079 A 
ATOM     21  S   UNL     1      -0.663  -5.945   5.302  0.00  0.00    -0.076 S 
ATOM     22 CL   UNL     1      -1.712  -7.605   7.798  0.00  0.00    -0.076 Cl
ENDBRANCH  16  17
ENDBRANCH   3  15
TORSDOF 3
