REMARK  Name = ZINC06608449
REMARK  7 active torsions:
REMARK  status: ('A' for Active; 'I' for Inactive)
REMARK    1  A    between atoms: C_1  and  C_2
REMARK    2  A    between atoms: C_5  and  C_25
REMARK    3  A    between atoms: C_6  and  N_8
REMARK    4  A    between atoms: C_11  and  C_14
REMARK    5  A    between atoms: C_15  and  N_24
REMARK    6  A    between atoms: N_16  and  C_23
REMARK    7  A    between atoms: N_19  and  C_22
REMARK                            x       y       z     vdW  Elec       q    Type
REMARK                         _______ _______ _______ _____ _____    ______ ____
ROOT
ATOM      1  N   UNL     1      -0.316   3.642   8.050  0.00  0.00    -0.294 N 
ATOM      2  C   UNL     1       0.107   3.082   6.854  0.00  0.00    +0.163 A 
ATOM      3  N   UNL     1      -0.618   2.685   5.827  0.00  0.00    -0.224 NA
ATOM      4  C   UNL     1      -0.051   2.161   4.749  0.00  0.00    +0.089 A 
ATOM      5  C   UNL     1       1.311   2.054   4.728  0.00  0.00    +0.077 A 
ATOM      6  S   UNL     1       1.724   2.733   6.328  0.00  0.00    -0.060 S 
ATOM      7  H   UNL     1      -1.248   3.879   8.172  0.00  0.00    +0.154 HD
ENDROOT
BRANCH   4   8
ATOM      8  C   UNL     1      -0.870   1.710   3.597  0.00  0.00    +0.103 A 
ATOM      9  C   UNL     1      -2.256   1.686   3.681  0.00  0.00    +0.114 A 
ATOM     10  N   UNL     1      -2.983   1.262   2.596  0.00  0.00    -0.284 N 
ATOM     11  C   UNL     1      -2.364   0.880   1.465  0.00  0.00    +0.333 A 
ATOM     12  O   UNL     1      -3.030   0.513   0.517  0.00  0.00    -0.246 OA
ATOM     13  N   UNL     1      -1.024   0.890   1.363  0.00  0.00    -0.263 N 
ATOM     14  C   UNL     1      -0.255   1.295   2.393  0.00  0.00    +0.267 A 
ATOM     15  O   UNL     1       0.959   1.305   2.288  0.00  0.00    -0.267 OA
ATOM     16  C   UNL     1      -0.390   0.460   0.114  0.00  0.00    +0.157 C 
ATOM     17  C   UNL     1      -4.446   1.232   2.670  0.00  0.00    +0.155 C 
BRANCH   9  18
ATOM     18  N   UNL     1      -2.889   2.081   4.830  0.00  0.00    -0.344 N 
ATOM     19  H   UNL     1      -3.807   2.391   4.796  0.00  0.00    +0.144 HD
ATOM     20  H   UNL     1      -2.419   2.049   5.678  0.00  0.00    +0.144 HD
ENDBRANCH   9  18
ENDBRANCH   4   8
BRANCH   1  26
ATOM     21  C   UNL     1       3.740   2.277  10.470  0.00  0.00    +0.044 C 
ATOM     22  C   UNL     1       2.578   3.217  10.277  0.00  0.00    -0.049 A 
ATOM     23  C   UNL     1       2.419   4.302  11.121  0.00  0.00    +0.004 A 
ATOM     24  C   UNL     1       1.355   5.167  10.948  0.00  0.00    +0.005 A 
ATOM     25  C   UNL     1       0.449   4.954   9.927  0.00  0.00    -0.029 A 
ATOM     26  C   UNL     1       0.602   3.863   9.081  0.00  0.00    +0.036 A 
ATOM     27  C   UNL     1       1.673   2.995   9.258  0.00  0.00    +0.027 A 
ATOM     28  C   UNL     1      -0.707   5.901   9.734  0.00  0.00    +0.045 C 
ENDBRANCH   1  26
TORSDOF 3
