REMARK  Name = ZINC46883872
REMARK  9 active torsions:
REMARK  status: ('A' for Active; 'I' for Inactive)
REMARK    1  A    between atoms: C_1  and  C_2
REMARK    2  A    between atoms: C_5  and  C_28
REMARK    3  A    between atoms: N_8  and  C_10
REMARK    4  A    between atoms: C_10  and  C_11
REMARK    5  A    between atoms: C_11  and  N_12
REMARK    6  A    between atoms: C_13  and  C_15
REMARK    7  A    between atoms: C_15  and  N_16
REMARK    8  A    between atoms: N_19  and  C_20
REMARK    9  A    between atoms: C_20  and  C_21
REMARK                            x       y       z     vdW  Elec       q    Type
REMARK                         _______ _______ _______ _____ _____    ______ ____
ROOT
ATOM      1  N   UNL     1       3.766  -2.508   3.387  0.00  0.00    -0.316 N 
ATOM      2  C   UNL     1       5.085  -2.243   3.470  0.00  0.00    +0.230 C 
ATOM      3  O   UNL     1       5.632  -1.607   2.594  0.00  0.00    -0.274 OA
ATOM      4  H   UNL     1       3.329  -3.017   4.088  0.00  0.00    +0.149 HD
ENDROOT
BRANCH   1   5
ATOM      5  C   UNL     1       2.993  -2.028   2.239  0.00  0.00    +0.086 C 
BRANCH   5   6
ATOM      6  C   UNL     1       1.534  -2.461   2.390  0.00  0.00    -0.060 C 
BRANCH   6  12
ATOM      7  C   UNL     1      -0.019   1.526   0.010  0.00  0.00    +0.005 C 
ATOM      8  C   UNL     1       0.002  -0.004   0.002  0.00  0.00    -0.031 C 
ATOM      9  C   UNL     1      -1.434  -0.535   0.015  0.00  0.00    +0.003 C 
ATOM     10  C   UNL     1      -1.402  -2.064   0.086  0.00  0.00    -0.031 C 
ATOM     11  C   UNL     1      -0.613  -2.496   1.324  0.00  0.00    -0.076 C 
ATOM     12  N   UNL     1       0.758  -1.980   1.239  0.00  0.00    +0.381 N 
ATOM     13  C   UNL     1       0.740  -0.512   1.242  0.00  0.00    -0.076 C 
ATOM     14  C   UNL     1      -0.728  -2.620  -1.170  0.00  0.00    +0.005 C 
ATOM     15  H   UNL     1       1.188  -2.307   0.386  0.00  0.00    -0.082 HD
ENDBRANCH   6  12
ENDBRANCH   5   6
ENDBRANCH   1   5
BRANCH   2  16
ATOM     16  C   UNL     1       5.880  -2.737   4.651  0.00  0.00    +0.201 C 
BRANCH  16  17
ATOM     17  N   UNL     1       7.278  -2.322   4.507  0.00  0.00    -0.291 N 
ATOM     18  C   UNL     1       8.180  -2.654   5.451  0.00  0.00    +0.300 C 
ATOM     19  O   UNL     1       7.834  -3.298   6.423  0.00  0.00    -0.253 OA
ATOM     20  N   UNL     1       9.466  -2.273   5.318  0.00  0.00    -0.295 N 
ATOM     21  H   UNL     1       7.554  -1.809   3.731  0.00  0.00    +0.151 HD
ATOM     22  H   UNL     1       9.742  -1.759   4.543  0.00  0.00    +0.151 HD
BRANCH  20  23
ATOM     23  C   UNL     1      10.447  -2.633   6.345  0.00  0.00    +0.141 C 
BRANCH  23  24
ATOM     24  C   UNL     1      11.799  -2.091   5.960  0.00  0.00    -0.030 A 
ATOM     25  C   UNL     1      12.657  -2.855   5.193  0.00  0.00    +0.008 A 
ATOM     26  C   UNL     1      13.898  -2.358   4.839  0.00  0.00    +0.038 A 
ATOM     27  C   UNL     1      14.280  -1.094   5.254  0.00  0.00    +0.123 A 
ATOM     28  C   UNL     1      13.420  -0.329   6.023  0.00  0.00    +0.038 A 
ATOM     29  C   UNL     1      12.178  -0.826   6.371  0.00  0.00    +0.008 A 
ATOM     30  F   UNL     1      15.493  -0.608   4.909  0.00  0.00    -0.205 F 
ENDBRANCH  23  24
ENDBRANCH  20  23
ENDBRANCH  16  17
ENDBRANCH   2  16
TORSDOF 7
