REMARK  Name = ZINC30845139
REMARK  6 active torsions:
REMARK  status: ('A' for Active; 'I' for Inactive)
REMARK    1  A    between atoms: C_1  and  C_2
REMARK    2  A    between atoms: C_5  and  N_12
REMARK    3  A    between atoms: N_9  and  C_11
REMARK    4  A    between atoms: C_13  and  C_15
REMARK    5  A    between atoms: C_15  and  S_16
REMARK    6  A    between atoms: S_16  and  C_17
REMARK                            x       y       z     vdW  Elec       q    Type
REMARK                         _______ _______ _______ _____ _____    ______ ____
ROOT
ATOM      1  C   UNL     1      -1.250   2.186   0.047  0.00  0.00    +0.068 C 
ATOM      2  C   UNL     1      -0.024   1.310   0.033  0.00  0.00    +0.069 A 
ATOM      3  C   UNL     1       1.361   1.767   0.016  0.00  0.00    +0.043 A 
ATOM      4  C   UNL     1       1.972   3.027   0.011  0.00  0.00    +0.038 A 
ATOM      5  C   UNL     1       3.356   3.079  -0.007  0.00  0.00    +0.052 A 
ATOM      6  C   UNL     1       4.085   1.890  -0.021  0.00  0.00    +0.136 A 
ATOM      7  N   UNL     1       3.487   0.719  -0.016  0.00  0.00    -0.234 NA
ATOM      8  C   UNL     1       2.165   0.610   0.001  0.00  0.00    +0.158 A 
ATOM      9  N   UNL     1       1.308  -0.459   0.010  0.00  0.00    -0.249 N 
ATOM     10  N   UNL     1      -0.010   0.007   0.029  0.00  0.00    -0.174 NA
ATOM     11  C   UNL     1       1.710  -1.868  -0.001  0.00  0.00    +0.174 C 
ENDROOT
BRANCH   5  12
ATOM     12  N   UNL     1       4.018   4.314  -0.011  0.00  0.00    -0.284 N 
ATOM     13  C   UNL     1       3.485   5.362  -0.670  0.00  0.00    +0.227 C 
ATOM     14  O   UNL     1       2.393   5.261  -1.187  0.00  0.00    -0.275 OA
ATOM     15  H   UNL     1       4.973   4.429   0.523  0.00  0.00    +0.155 HD
BRANCH  13  16
ATOM     16  C   UNL     1       4.246   6.660  -0.764  0.00  0.00    +0.173 C 
BRANCH  16  17
ATOM     17  S   UNL     1       3.271   7.865  -1.706  0.00  0.00    -0.042 S 
BRANCH  17  18
ATOM     18  C   UNL     1       4.312   9.351  -1.727  0.00  0.00    +0.444 C 
ATOM     19  F   UNL     1       5.531   9.057  -2.349  0.00  0.00    -0.160 F 
ATOM     20  F   UNL     1       3.661  10.367  -2.434  0.00  0.00    -0.160 F 
ATOM     21  F   UNL     1       4.549   9.773  -0.414  0.00  0.00    -0.160 F 
ENDBRANCH  17  18
ENDBRANCH  16  17
ENDBRANCH  13  16
ENDBRANCH   5  12
TORSDOF 4
