REMARK  Name = ZINC04245303
REMARK  3 active torsions:
REMARK  status: ('A' for Active; 'I' for Inactive)
REMARK    1  A    between atoms: C_8  and  C_12
REMARK    2  A    between atoms: C_15  and  C_17
REMARK    3  A    between atoms: C_21  and  N_23
REMARK                            x       y       z     vdW  Elec       q    Type
REMARK                         _______ _______ _______ _____ _____    ______ ____
ROOT
ATOM      1  C   UNL     1       1.032   1.966   0.003  0.00  0.00    +0.086 A 
ATOM      2  C   UNL     1      -0.013   1.076   0.008  0.00  0.00    +0.075 A 
ATOM      3  S   UNL     1      -1.404   2.198   0.019  0.00  0.00    -0.075 S 
ATOM      4  C   UNL     1      -0.464   3.719   0.026  0.00  0.00    +0.109 A 
ATOM      5  N   UNL     1       0.778   3.261   0.012  0.00  0.00    -0.239 NA
ENDROOT
BRANCH   1  13
ATOM      6  C   UNL     1       7.206   2.173  -0.056  0.00  0.00    +0.001 A 
ATOM      7  C   UNL     1       7.405   0.800  -0.065  0.00  0.00    +0.004 A 
ATOM      8  C   UNL     1       6.332  -0.066  -0.059  0.00  0.00    +0.047 A 
ATOM      9  C   UNL     1       5.035   0.435  -0.044  0.00  0.00    +0.139 A 
ATOM     10  C   UNL     1       4.837   1.827  -0.035  0.00  0.00    +0.018 A 
ATOM     11  C   UNL     1       5.941   2.689  -0.041  0.00  0.00    +0.011 A 
ATOM     12  C   UNL     1       3.475   2.363  -0.019  0.00  0.00    +0.028 A 
ATOM     13  C   UNL     1       2.431   1.478  -0.014  0.00  0.00    +0.086 A 
ATOM     14  C   UNL     1       2.717   0.041  -0.018  0.00  0.00    +0.347 A 
ATOM     15  O   UNL     1       1.797  -0.756  -0.009  0.00  0.00    -0.244 OA
ATOM     16  O   UNL     1       3.982  -0.408  -0.039  0.00  0.00    -0.422 OA
ENDBRANCH   1  13
BRANCH   4  17
ATOM     17  C   UNL     1      -0.946   5.117   0.039  0.00  0.00    +0.009 A 
ATOM     18  C   UNL     1      -0.032   6.172   0.041  0.00  0.00    +0.010 A 
ATOM     19  C   UNL     1      -0.484   7.476   0.048  0.00  0.00    +0.002 A 
ATOM     20  C   UNL     1      -1.841   7.742   0.062  0.00  0.00    +0.023 A 
ATOM     21  C   UNL     1      -2.759   6.698   0.065  0.00  0.00    +0.025 A 
ATOM     22  C   UNL     1      -2.314   5.385   0.053  0.00  0.00    +0.033 A 
BRANCH  21  23
ATOM     23  N   UNL     1      -4.128   6.972   0.080  0.00  0.00    -0.358 N 
ATOM     24  H   UNL     1      -4.769   6.244   0.082  0.00  0.00    +0.142 HD
ATOM     25  H   UNL     1      -4.439   7.891   0.088  0.00  0.00    +0.142 HD
ENDBRANCH  21  23
ENDBRANCH   4  17
TORSDOF 3
