REMARK  Name = ZINC09160083
REMARK  9 active torsions:
REMARK  status: ('A' for Active; 'I' for Inactive)
REMARK    1  A    between atoms: C_1  and  C_2
REMARK    2  A    between atoms: C_2  and  O_3
REMARK    3  A    between atoms: O_3  and  C_4
REMARK    4  A    between atoms: C_4  and  C_6
REMARK    5  A    between atoms: C_6  and  C_7
REMARK    6  A    between atoms: C_14  and  N_36
REMARK    7  A    between atoms: C_15  and  C_34
REMARK    8  A    between atoms: N_23  and  C_26
REMARK    9  A    between atoms: C_26  and  C_27
REMARK                            x       y       z     vdW  Elec       q    Type
REMARK                         _______ _______ _______ _____ _____    ______ ____
ROOT
ATOM      1  C   UNL     1       1.673  -3.866  -2.356  0.00  0.00    +0.082 A 
ATOM      2  C   UNL     1       2.593  -4.655  -1.680  0.00  0.00    +0.062 A 
ATOM      3  C   UNL     1       2.235  -5.965  -1.853  0.00  0.00    +0.223 A 
ATOM      4  N   UNL     1       1.128  -5.985  -2.612  0.00  0.00    -0.246 N 
ATOM      5  H   UNL     1       0.647  -6.777  -2.899  0.00  0.00    +0.192 HD
ATOM      6  N   UNL     1       0.788  -4.657  -2.913  0.00  0.00    -0.175 NA
ATOM      7  O   UNL     1       2.937  -6.991  -1.312  0.00  0.00    -0.423 OA
ATOM      8  C   UNL     1       3.857  -6.700  -0.370  0.00  0.00    +0.201 C 
ATOM      9  C   UNL     1       4.301  -5.447  -0.115  0.00  0.00    +0.110 C 
ATOM     10  C   UNL     1       3.797  -4.252  -0.877  0.00  0.00    +0.145 C 
ATOM     11  C   UNL     1       4.864  -3.674  -1.750  0.00  0.00    -0.001 A 
ATOM     12  C   UNL     1       5.579  -4.211  -2.799  0.00  0.00    +0.007 A 
ATOM     13  C   UNL     1       6.517  -3.386  -3.411  0.00  0.00    +0.000 A 
ATOM     14  C   UNL     1       6.721  -2.089  -2.985  0.00  0.00    +0.002 A 
ATOM     15  C   UNL     1       6.007  -1.543  -1.931  0.00  0.00    +0.024 A 
ATOM     16  C   UNL     1       5.062  -2.360  -1.307  0.00  0.00    +0.041 A 
ATOM     17  N   UNL     1       4.221  -2.078  -0.245  0.00  0.00    -0.265 N 
ATOM     18  C   UNL     1       3.442  -3.133   0.077  0.00  0.00    +0.241 C 
ATOM     19  O   UNL     1       2.616  -3.176   0.964  0.00  0.00    -0.274 OA
ENDROOT
BRANCH   8  20
ATOM     20  N   UNL     1       4.373  -7.733   0.372  0.00  0.00    -0.328 N 
ATOM     21  H   UNL     1       4.074  -8.642   0.212  0.00  0.00    +0.145 HD
ATOM     22  H   UNL     1       5.036  -7.554   1.057  0.00  0.00    +0.145 HD
ENDBRANCH   8  20
BRANCH   9  23
ATOM     23  C   UNL     1       5.280  -5.253   0.912  0.00  0.00    +0.102 C 
ATOM     24  N   UNL     1       6.056  -5.099   1.726  0.00  0.00    -0.191 NA
ENDBRANCH   9  23
BRANCH   1  25
ATOM     25  C   UNL     1       1.684  -2.361  -2.430  0.00  0.00    +0.178 C 
BRANCH  25  26
ATOM     26  C   UNL     1       2.360  -1.926  -3.704  0.00  0.00    +0.313 C 
ATOM     27  O   UNL     1       2.873  -2.747  -4.427  0.00  0.00    -0.250 OA
BRANCH  26  28
ATOM     28  O   UNL     1       2.393  -0.626  -4.037  0.00  0.00    -0.465 OA
BRANCH  28  30
ATOM     29  C   UNL     1       3.011   1.225  -5.463  0.00  0.00    +0.048 C 
ATOM     30  C   UNL     1       2.947  -0.296  -5.312  0.00  0.00    +0.229 C 
ENDBRANCH  28  30
ENDBRANCH  26  28
ENDBRANCH  25  26
ENDBRANCH   1  25
BRANCH  17  31
ATOM     31  C   UNL     1       4.180  -0.788   0.448  0.00  0.00    +0.148 C 
BRANCH  31  32
ATOM     32  C   UNL     1       3.079   0.060  -0.134  0.00  0.00    -0.030 A 
ATOM     33  C   UNL     1       3.320   0.831  -1.256  0.00  0.00    +0.006 A 
ATOM     34  C   UNL     1       2.310   1.609  -1.790  0.00  0.00    +0.020 A 
ATOM     35  C   UNL     1       1.058   1.616  -1.202  0.00  0.00    +0.041 A 
ATOM     36  C   UNL     1       0.817   0.845  -0.079  0.00  0.00    +0.020 A 
ATOM     37  C   UNL     1       1.826   0.062   0.451  0.00  0.00    +0.006 A 
ATOM     38 CL   UNL     1      -0.211   2.594  -1.871  0.00  0.00    -0.084 Cl
ENDBRANCH  31  32
ENDBRANCH  17  31
TORSDOF 8
