REMARK  Name = ZINC19810671
REMARK  3 active torsions:
REMARK  status: ('A' for Active; 'I' for Inactive)
REMARK    1  A    between atoms: C_5  and  C_6
REMARK    2  A    between atoms: C_6  and  N_7
REMARK    3  A    between atoms: C_9  and  N_12
REMARK                            x       y       z     vdW  Elec       q    Type
REMARK                         _______ _______ _______ _____ _____    ______ ____
ROOT
ATOM      1  N   UNL     1      -0.682   3.169   0.024  0.00  0.00    -0.265 N 
ATOM      2  C   UNL     1       0.677   3.197   0.012  0.00  0.00    +0.131 A 
ATOM      3  C   UNL     1       1.113   1.912   0.002  0.00  0.00    +0.063 A 
ATOM      4  C   UNL     1      -0.013   1.076   0.008  0.00  0.00    +0.157 A 
ATOM      5  N   UNL     1      -1.084   1.827   0.017  0.00  0.00    -0.177 NA
ENDROOT
BRANCH   3   6
ATOM      6  N   UNL     1       2.457   1.492  -0.013  0.00  0.00    -0.356 N 
ATOM      7  H   UNL     1       2.698   0.419  -0.020  0.00  0.00    +0.142 HD
ATOM      8  H   UNL     1       3.266   2.238  -0.017  0.00  0.00    +0.142 HD
ENDBRANCH   3   6
BRANCH   1   9
ATOM      9  C   UNL     1      -1.569   4.335   0.038  0.00  0.00    +0.185 C 
BRANCH   9  14
ATOM     10  C   UNL     1      -3.756   3.668  -1.166  0.00  0.00    +0.014 A 
ATOM     11  C   UNL     1      -4.474   3.713  -2.347  0.00  0.00    +0.028 A 
ATOM     12  C   UNL     1      -3.926   4.327  -3.425  0.00  0.00    +0.078 A 
ATOM     13  S   UNL     1      -2.353   4.873  -2.780  0.00  0.00    -0.080 S 
ATOM     14  C   UNL     1      -2.532   4.247  -1.117  0.00  0.00    +0.013 A 
ATOM     15 CL   UNL     1      -4.582   4.528  -5.019  0.00  0.00    -0.076 Cl
ENDBRANCH   9  14
ENDBRANCH   1   9
TORSDOF 3
