REMARK  Name = ZINC67564540
REMARK  7 active torsions:
REMARK  status: ('A' for Active; 'I' for Inactive)
REMARK    1  A    between atoms: C_1  and  N_2
REMARK    2  A    between atoms: N_2  and  C_3
REMARK    3  A    between atoms: N_2  and  C_4
REMARK    4  A    between atoms: C_8  and  C_10
REMARK    5  A    between atoms: N_12  and  N_13
REMARK    6  A    between atoms: N_16  and  C_17
REMARK    7  A    between atoms: C_20  and  C_22
REMARK                            x       y       z     vdW  Elec       q    Type
REMARK                         _______ _______ _______ _____ _____    ______ ____
ROOT
ATOM      1  N   UNL     1      -7.279  -0.067   0.052  0.00  0.00    -0.218 N 
ATOM      2  C   UNL     1      -8.433  -0.763   0.058  0.00  0.00    +0.316 C 
ATOM      3  O   UNL     1      -9.497  -0.176   0.066  0.00  0.00    -0.251 OA
ATOM      4  N   UNL     1      -8.406  -2.111   0.057  0.00  0.00    -0.295 N 
ATOM      5  H   UNL     1      -7.298   0.903   0.053  0.00  0.00    +0.174 HD
ATOM      6  H   UNL     1      -7.557  -2.579   0.050  0.00  0.00    +0.151 HD
ENDROOT
BRANCH   1   9
ATOM      7  C   UNL     1      -4.898  -0.047   0.036  0.00  0.00    +0.260 C 
ATOM      8  O   UNL     1      -4.922   1.169   0.037  0.00  0.00    -0.269 OA
ATOM      9  N   UNL     1      -6.052  -0.743   0.043  0.00  0.00    -0.229 N 
ATOM     10  H   UNL     1      -6.033  -1.713   0.041  0.00  0.00    +0.173 HD
BRANCH   7  15
ATOM     11  C   UNL     1      -1.198  -0.719   0.010  0.00  0.00    +0.030 A 
ATOM     12  C   UNL     1      -1.179  -2.109   0.008  0.00  0.00    +0.023 A 
ATOM     13  C   UNL     1      -2.364  -2.821   0.015  0.00  0.00    +0.003 A 
ATOM     14  C   UNL     1      -3.574  -2.156   0.024  0.00  0.00    +0.013 A 
ATOM     15  C   UNL     1      -3.604  -0.761   0.026  0.00  0.00    +0.040 A 
ATOM     16  C   UNL     1      -2.408  -0.042   0.025  0.00  0.00    +0.036 A 
BRANCH  11  18
ATOM     17  C   UNL     1      -0.018   1.461   0.010  0.00  0.00    +0.129 C 
ATOM     18  N   UNL     1       0.002  -0.004   0.002  0.00  0.00    -0.336 N 
ATOM     19  C   UNL     1       1.281  -0.719  -0.014  0.00  0.00    +0.129 C 
ENDBRANCH  11  18
ENDBRANCH   7  15
ENDBRANCH   1   9
BRANCH   4  20
ATOM     20  C   UNL     1      -9.661  -2.868   0.064  0.00  0.00    +0.083 C 
ATOM     21  C   UNL     1      -9.752  -4.074   1.001  0.00  0.00    +0.033 C 
ATOM     22  C   UNL     1      -9.633  -4.286  -0.510  0.00  0.00    +0.041 C 
BRANCH  22  23
ATOM     23  C   UNL     1      -8.318  -4.797  -1.039  0.00  0.00    -0.040 A 
ATOM     24  C   UNL     1      -7.224  -4.892  -0.198  0.00  0.00    +0.004 A 
ATOM     25  C   UNL     1      -6.018  -5.360  -0.683  0.00  0.00    +0.003 A 
ATOM     26  C   UNL     1      -5.902  -5.734  -2.008  0.00  0.00    +0.038 A 
ATOM     27  C   UNL     1      -6.997  -5.640  -2.851  0.00  0.00    +0.124 A 
ATOM     28  C   UNL     1      -8.207  -5.176  -2.363  0.00  0.00    +0.042 A 
ATOM     29  F   UNL     1      -6.885  -6.004  -4.147  0.00  0.00    -0.205 F 
ENDBRANCH  22  23
ENDBRANCH   4  20
TORSDOF 5
