REMARK  Name = ZINC03373628
REMARK  4 active torsions:
REMARK  status: ('A' for Active; 'I' for Inactive)
REMARK    1  A    between atoms: N_9  and  S_10
REMARK    2  A    between atoms: S_10  and  C_13
REMARK    3  A    between atoms: C_15  and  C_20
REMARK    4  A    between atoms: C_29  and  N_33
REMARK                            x       y       z     vdW  Elec       q    Type
REMARK                         _______ _______ _______ _____ _____    ______ ____
ROOT
ATOM      1  C   UNL     1      -0.969   3.529   0.130  0.00  0.00    +0.128 A 
ATOM      2  C   UNL     1       0.067   4.438   0.177  0.00  0.00    +0.043 A 
ATOM      3  C   UNL     1       1.339   4.066  -0.265  0.00  0.00    +0.040 A 
ATOM      4  C   UNL     1       1.553   2.774  -0.752  0.00  0.00    +0.014 A 
ATOM      5  C   UNL     1       0.508   1.875  -0.794  0.00  0.00    +0.023 A 
ATOM      6  C   UNL     1      -0.752   2.252  -0.359  0.00  0.00    +0.068 A 
ATOM      7 CL   UNL     1      -2.063   1.115  -0.421  0.00  0.00    -0.082 Cl
ENDROOT
BRANCH   3   8
ATOM      8  C   UNL     1       2.453   5.034  -0.218  0.00  0.00    +0.260 C 
ATOM      9  O   UNL     1       2.329   6.128  -0.731  0.00  0.00    -0.269 OA
ATOM     10  N   UNL     1       3.607   4.704   0.395  0.00  0.00    -0.167 N 
ATOM     11  C   UNL     1       3.861   3.502   0.943  0.00  0.00    +0.261 C 
ATOM     12  O   UNL     1       3.100   2.556   0.963  0.00  0.00    -0.269 OA
ATOM     13  C   UNL     1       5.224   3.525   1.512  0.00  0.00    +0.052 A 
ATOM     14  C   UNL     1       6.009   2.602   2.180  0.00  0.00    +0.014 A 
ATOM     15  C   UNL     1       7.285   2.952   2.601  0.00  0.00    +0.003 A 
ATOM     16  C   UNL     1       7.782   4.216   2.360  0.00  0.00    +0.023 A 
ATOM     17  C   UNL     1       7.006   5.163   1.687  0.00  0.00    +0.038 A 
ATOM     18  C   UNL     1       5.724   4.822   1.260  0.00  0.00    +0.070 A 
ATOM     19  C   UNL     1       4.654   5.535   0.545  0.00  0.00    +0.262 C 
ATOM     20  O   UNL     1       4.707   6.685   0.155  0.00  0.00    -0.269 OA
BRANCH  17  21
ATOM     21  N   UNL     1       7.509   6.433   1.446  0.00  0.00    -0.357 N 
ATOM     22  H   UNL     1       6.968   7.088   0.978  0.00  0.00    +0.142 HD
ATOM     23  H   UNL     1       8.402   6.666   1.744  0.00  0.00    +0.142 HD
ENDBRANCH  17  21
ENDBRANCH   3   8
BRANCH   1  24
ATOM     24  S   UNL     1      -2.574   3.996   0.688  0.00  0.00    +0.076 S 
ATOM     25  O   UNL     1      -3.033   2.946   1.529  0.00  0.00    -0.150 OA
ATOM     26  O   UNL     1      -2.473   5.341   1.135  0.00  0.00    -0.150 OA
BRANCH  24  35
ATOM     27  C   UNL     1      -4.197   6.932  -3.535  0.00  0.00    +0.000 A 
ATOM     28  C   UNL     1      -3.286   7.223  -2.537  0.00  0.00    +0.002 A 
ATOM     29  C   UNL     1      -3.027   6.303  -1.544  0.00  0.00    +0.025 A 
ATOM     30  C   UNL     1      -3.683   5.070  -1.538  0.00  0.00    +0.054 A 
ATOM     31  C   UNL     1      -4.594   4.788  -2.544  0.00  0.00    -0.023 A 
ATOM     32  C   UNL     1      -4.850   5.714  -3.537  0.00  0.00    +0.005 A 
ATOM     33  C   UNL     1      -5.157   3.404  -2.309  0.00  0.00    +0.058 C 
ATOM     34  C   UNL     1      -4.449   2.911  -1.037  0.00  0.00    +0.136 C 
ATOM     35  N   UNL     1      -3.567   4.011  -0.637  0.00  0.00    -0.202 N 
ENDBRANCH  24  35
ENDBRANCH   1  24
TORSDOF 4
