REMARK  Name = ZINC38570381
REMARK  5 active torsions:
REMARK  status: ('A' for Active; 'I' for Inactive)
REMARK    1  A    between atoms: C_5  and  C_7
REMARK    2  A    between atoms: C_7  and  C_8
REMARK    3  A    between atoms: C_8  and  N_9
REMARK    4  A    between atoms: C_10  and  C_12
REMARK    5  A    between atoms: C_24  and  C_26
REMARK                            x       y       z     vdW  Elec       q    Type
REMARK                         _______ _______ _______ _____ _____    ______ ____
ROOT
ATOM      1  C   UNL     1       1.370  -6.406   2.630  0.00  0.00    +0.126 C 
ATOM      2  C   UNL     1       1.677  -7.104   3.801  0.00  0.00    +0.039 C 
ATOM      3  C   UNL     1       2.074  -8.423   3.637  0.00  0.00    -0.008 C 
ATOM      4  C   UNL     1       2.146  -9.512   4.465  0.00  0.00    +0.004 A 
ATOM      5  C   UNL     1       2.088  -9.638   5.872  0.00  0.00    +0.010 A 
ATOM      6  C   UNL     1       2.143 -10.903   6.380  0.00  0.00    +0.001 A 
ATOM      7  C   UNL     1       2.252 -12.045   5.587  0.00  0.00    +0.002 A 
ATOM      8  C   UNL     1       2.337 -12.010   4.228  0.00  0.00    +0.026 A 
ATOM      9  C   UNL     1       2.308 -10.726   3.616  0.00  0.00    +0.044 A 
ATOM     10  N   UNL     1       2.432 -10.395   2.353  0.00  0.00    -0.372 N 
ATOM     11  C   UNL     1       2.493  -8.953   2.275  0.00  0.00    +0.160 C 
ATOM     12  C   UNL     1       1.707  -8.255   1.222  0.00  0.00    +0.076 C 
ATOM     13  N   UNL     1       1.270  -7.035   1.451  0.00  0.00    -0.244 NA
ATOM     14  H   UNL     1       2.475 -11.009   1.604  0.00  0.00    +0.161 HD
ENDROOT
BRANCH  12  15
ATOM     15  C   UNL     1       1.419  -8.920  -0.052  0.00  0.00    +0.002 A 
ATOM     16  C   UNL     1       0.292  -8.548  -0.800  0.00  0.00    +0.013 A 
ATOM     17  C   UNL     1       0.025  -9.174  -1.996  0.00  0.00    +0.050 A 
ATOM     18  C   UNL     1       0.867 -10.175  -2.467  0.00  0.00    +0.166 A 
ATOM     19  C   UNL     1       1.991 -10.551  -1.727  0.00  0.00    +0.167 A 
ATOM     20  C   UNL     1       2.271  -9.925  -0.530  0.00  0.00    +0.059 A 
ATOM     21  O   UNL     1       2.643 -11.543  -2.402  0.00  0.00    -0.453 OA
ATOM     22  C   UNL     1       1.689 -12.052  -3.352  0.00  0.00    +0.466 C 
ATOM     23  O   UNL     1       0.820 -10.931  -3.600  0.00  0.00    -0.453 OA
ENDBRANCH  12  15
BRANCH   1  25
ATOM     24  N   UNL     1       0.843  -4.259   1.575  0.00  0.00    -0.310 N 
ATOM     25  C   UNL     1       1.145  -4.945   2.695  0.00  0.00    +0.262 C 
ATOM     26  O   UNL     1       1.234  -4.363   3.759  0.00  0.00    -0.269 OA
ATOM     27  H   UNL     1       0.773  -4.723   0.726  0.00  0.00    +0.149 HD
BRANCH  24  28
ATOM     28  C   UNL     1       0.621  -2.812   1.639  0.00  0.00    +0.109 C 
BRANCH  28  29
ATOM     29  C   UNL     1       0.296  -2.284   0.240  0.00  0.00    +0.057 C 
BRANCH  29  34
ATOM     30  C   UNL     1      -1.426   1.066   0.492  0.00  0.00    +0.000 A 
ATOM     31  C   UNL     1      -0.353   1.936   0.426  0.00  0.00    +0.003 A 
ATOM     32  C   UNL     1       0.931   1.441   0.301  0.00  0.00    +0.038 A 
ATOM     33  C   UNL     1       1.143   0.074   0.240  0.00  0.00    +0.127 A 
ATOM     34  C   UNL     1       0.068  -0.796   0.306  0.00  0.00    -0.011 A 
ATOM     35  C   UNL     1      -1.216  -0.299   0.432  0.00  0.00    +0.006 A 
ATOM     36  F   UNL     1       2.398  -0.411   0.117  0.00  0.00    -0.205 F 
ENDBRANCH  29  34
ENDBRANCH  28  29
ENDBRANCH  24  28
ENDBRANCH   1  25
TORSDOF 5
