REMARK  Name = ZINC63653417
REMARK  7 active torsions:
REMARK  status: ('A' for Active; 'I' for Inactive)
REMARK    1  A    between atoms: C_1  and  C_2
REMARK    2  A    between atoms: C_3  and  C_23
REMARK    3  A    between atoms: C_6  and  C_8
REMARK    4  A    between atoms: C_11  and  S_13
REMARK    5  A    between atoms: S_13  and  N_16
REMARK    6  A    between atoms: N_16  and  C_17
REMARK    7  A    between atoms: C_17  and  C_18
REMARK                            x       y       z     vdW  Elec       q    Type
REMARK                         _______ _______ _______ _____ _____    ______ ____
ROOT
ATOM      1  C   UNL     1      -1.209  -0.768   2.038  0.00  0.00    +0.022 A 
ATOM      2  C   UNL     1      -1.361  -0.070   3.190  0.00  0.00    +0.016 A 
ATOM      3  C   UNL     1      -2.602  -0.045   3.799  0.00  0.00    +0.037 A 
ATOM      4  C   UNL     1      -3.629  -0.720   3.227  0.00  0.00    +0.143 A 
ATOM      5  S   UNL     1      -2.852  -1.416   1.778  0.00  0.00    -0.071 S 
ENDROOT
BRANCH   1  11
ATOM      6  C   UNL     1      -0.018   1.503   0.010  0.00  0.00    +0.043 C 
ATOM      7  C   UNL     1       0.002  -0.004   0.002  0.00  0.00    -0.019 C 
ATOM      8  C   UNL     1       0.009  -0.821  -1.054  0.00  0.00    +0.062 C 
ATOM      9  N   UNL     1       0.028  -2.114  -0.661  0.00  0.00    -0.158 NA
ATOM     10  N   UNL     1       0.035  -2.277   0.562  0.00  0.00    -0.174 NA
ATOM     11  C   UNL     1       0.026  -0.946   1.193  0.00  0.00    +0.192 C 
ATOM     12  C   UNL     1      -0.003  -0.363  -2.490  0.00  0.00    +0.067 C 
ENDBRANCH   1  11
BRANCH   4  13
ATOM     13  S   UNL     1      -5.299  -0.866   3.769  0.00  0.00    +0.065 S 
ATOM     14  O   UNL     1      -5.808  -2.063   3.196  0.00  0.00    -0.153 OA
ATOM     15  O   UNL     1      -5.293  -0.635   5.171  0.00  0.00    -0.153 OA
BRANCH  13  16
ATOM     16  N   UNL     1      -6.146   0.383   3.087  0.00  0.00    -0.182 NA
ATOM     17  H   UNL     1      -6.533   1.071   3.651  0.00  0.00    +0.149 HD
BRANCH  16  18
ATOM     18  C   UNL     1      -6.312   0.448   1.633  0.00  0.00    +0.180 C 
BRANCH  18  19
ATOM     19  C   UNL     1      -7.400   1.434   1.295  0.00  0.00    +0.120 A 
ATOM     20  C   UNL     1      -7.227   2.748   1.065  0.00  0.00    +0.046 A 
ATOM     21  C   UNL     1      -8.504   3.287   0.788  0.00  0.00    +0.041 A 
ATOM     22  C   UNL     1      -9.381   2.270   0.865  0.00  0.00    +0.195 A 
ATOM     23  O   UNL     1      -8.706   1.149   1.167  0.00  0.00    -0.466 OA
ENDBRANCH  18  19
ENDBRANCH  16  18
ENDBRANCH  13  16
ENDBRANCH   4  13
TORSDOF 5
