REMARK  Name = ZINC10080002
REMARK  12 active torsions:
REMARK  status: ('A' for Active; 'I' for Inactive)
REMARK    1  A    between atoms: C_1  and  C_2
REMARK    2  A    between atoms: C_2  and  O_3
REMARK    3  A    between atoms: O_3  and  C_4
REMARK    4  A    between atoms: C_7  and  C_10
REMARK    5  A    between atoms: C_10  and  C_12
REMARK    6  A    between atoms: C_10  and  N_53
REMARK    7  A    between atoms: C_12  and  N_13
REMARK    8  A    between atoms: C_14  and  C_16
REMARK    9  A    between atoms: N_18  and  C_19
REMARK   10  A    between atoms: C_23  and  N_25
REMARK   11  A    between atoms: C_28  and  N_53
REMARK   12  A    between atoms: C_29  and  N_53
REMARK                            x       y       z     vdW  Elec       q    Type
REMARK                         _______ _______ _______ _____ _____    ______ ____
ROOT
ATOM      1  N   UNL     1       2.587   8.518  -0.517  0.00  0.00    -0.309 N 
ATOM      2  C   UNL     1       1.475   7.842  -0.870  0.00  0.00    +0.299 C 
ATOM      3  O   UNL     1       0.382   8.339  -0.695  0.00  0.00    -0.265 OA
ATOM      4  H   UNL     1       3.461   8.120  -0.658  0.00  0.00    +0.149 HD
ENDROOT
BRANCH   2   5
ATOM      5  C   UNL     1       1.589   6.483  -1.478  0.00  0.00    +0.303 C 
ATOM      6  O   UNL     1       2.682   5.986  -1.653  0.00  0.00    -0.265 OA
ATOM      7  N   UNL     1       0.477   5.807  -1.831  0.00  0.00    -0.278 N 
ATOM      8  H   UNL     1      -0.393   6.226  -1.743  0.00  0.00    +0.155 HD
BRANCH   7   9
ATOM      9  C   UNL     1       0.579   4.503  -2.323  0.00  0.00    +0.036 A 
ATOM     10  C   UNL     1      -0.256   4.080  -3.350  0.00  0.00    +0.023 A 
ATOM     11  C   UNL     1      -0.153   2.791  -3.834  0.00  0.00    +0.004 A 
ATOM     12  C   UNL     1       0.780   1.922  -3.298  0.00  0.00    +0.033 A 
ATOM     13  C   UNL     1       1.608   2.338  -2.272  0.00  0.00    +0.128 A 
ATOM     14  C   UNL     1       1.514   3.628  -1.787  0.00  0.00    +0.056 A 
BRANCH  13  15
ATOM     15  N   UNL     1       2.601   1.403  -1.698  0.00  0.00    +0.056 N 
ATOM     16  O   UNL     1       2.688   0.267  -2.128  0.00  0.00    -0.126 OA
ATOM     17  O   UNL     1       3.331   1.769  -0.794  0.00  0.00    -0.126 OA
ENDBRANCH  13  15
ENDBRANCH   7   9
ENDBRANCH   2   5
BRANCH   1  18
ATOM     18  C   UNL     1       2.476   9.851   0.078  0.00  0.00    +0.094 C 
BRANCH  18  19
ATOM     19  C   UNL     1       3.853  10.310   0.562  0.00  0.00    -0.021 C 
BRANCH  19  23
ATOM     20  C   UNL     1       3.614  14.361   1.903  0.00  0.00    +0.121 A 
ATOM     21  C   UNL     1       3.898  14.085   0.574  0.00  0.00    +0.046 A 
ATOM     22  C   UNL     1       3.975  12.774   0.143  0.00  0.00    +0.005 A 
ATOM     23  C   UNL     1       3.769  11.739   1.035  0.00  0.00    -0.059 A 
ATOM     24  C   UNL     1       3.479  12.011   2.360  0.00  0.00    +0.005 A 
ATOM     25  C   UNL     1       3.407  13.320   2.797  0.00  0.00    +0.046 A 
BRANCH  20  26
ATOM     26  O   UNL     1       3.537  15.649   2.329  0.00  0.00    -0.492 OA
BRANCH  26  28
ATOM     27  C   UNL     1       3.196  17.360   4.001  0.00  0.00    +0.048 C 
ATOM     28  C   UNL     1       3.240  15.859   3.711  0.00  0.00    +0.225 C 
ENDBRANCH  26  28
ENDBRANCH  20  26
ENDBRANCH  19  23
BRANCH  19  31
ATOM     29  C   UNL     1       3.146   8.979   2.458  0.00  0.00    -0.096 C 
ATOM     30  C   UNL     1       5.095   8.325   1.178  0.00  0.00    -0.096 C 
ATOM     31  N   UNL     1       4.310   9.469   1.688  0.00  0.00    +0.382 N 
ATOM     32  H   UNL     1       4.905  10.032   2.306  0.00  0.00    -0.082 HD
ENDBRANCH  19  31
ENDBRANCH  18  19
ENDBRANCH   1  18
TORSDOF 9
