REMARK  Name = ZINC20219018
REMARK  13 active torsions:
REMARK  status: ('A' for Active; 'I' for Inactive)
REMARK    1  A    between atoms: C_1  and  C_2
REMARK    2  A    between atoms: C_2  and  C_3
REMARK    3  A    between atoms: C_2  and  C_4
REMARK    4  A    between atoms: C_4  and  O_5
REMARK    5  A    between atoms: O_5  and  C_6
REMARK    6  A    between atoms: C_9  and  C_14
REMARK    7  A    between atoms: C_11  and  O_12
REMARK    8  A    between atoms: O_12  and  C_13
REMARK    9  A    between atoms: N_19  and  C_33
REMARK   10  A    between atoms: C_23  and  C_31
REMARK   11  A    between atoms: C_24  and  N_30
REMARK   12  A    between atoms: C_25  and  C_26
REMARK   13  A    between atoms: C_25  and  C_28
REMARK                            x       y       z     vdW  Elec       q    Type
REMARK                         _______ _______ _______ _____ _____    ______ ____
ROOT
ATOM      1  C   UNL     1      -0.786   2.061   1.212  0.00  0.00    +0.068 C 
ATOM      2  C   UNL     1       0.066   1.351   0.159  0.00  0.00    +0.044 C 
ATOM      3  C   UNL     1       0.093  -0.146   0.370  0.00  0.00    +0.093 C 
ATOM      4  N   UNL     1       1.312  -0.582   1.056  0.00  0.00    -0.301 NA
ATOM      5  C   UNL     1       2.500  -0.217   0.264  0.00  0.00    +0.111 C 
ATOM      6  C   UNL     1       2.547   1.288   0.176  0.00  0.00    -0.007 C 
ATOM      7  C   UNL     1       1.427   1.986   0.154  0.00  0.00    -0.026 C 
ATOM      8  C   UNL     1       1.483   3.470   0.179  0.00  0.00    +0.074 C 
ATOM      9  C   UNL     1       0.365   4.170   0.499  0.00  0.00    +0.054 C 
ATOM     10  C   UNL     1      -0.953   3.527   0.811  0.00  0.00    +0.188 C 
ATOM     11  C   UNL     1       1.279  -2.026   1.321  0.00  0.00    +0.105 C 
ENDROOT
BRANCH   1  15
ATOM     12  C   UNL     1      -4.628   0.194   1.433  0.00  0.00    +0.162 A 
ATOM     13  C   UNL     1      -4.056   0.465   0.201  0.00  0.00    +0.050 A 
ATOM     14  C   UNL     1      -2.816   1.074   0.133  0.00  0.00    +0.008 A 
ATOM     15  C   UNL     1      -2.140   1.403   1.292  0.00  0.00    -0.037 A 
ATOM     16  C   UNL     1      -2.705   1.136   2.525  0.00  0.00    +0.053 A 
ATOM     17  C   UNL     1      -3.950   0.531   2.601  0.00  0.00    +0.162 A 
BRANCH  17  18
ATOM     18  O   UNL     1      -4.506   0.267   3.813  0.00  0.00    -0.491 OA
ATOM     19  C   UNL     1      -3.753   0.640   4.968  0.00  0.00    +0.277 C 
ENDBRANCH  17  18
BRANCH  12  20
ATOM     20  O   UNL     1      -5.849  -0.400   1.502  0.00  0.00    -0.488 OA
BRANCH  20  21
ATOM     21  C   UNL     1      -6.487  -0.717   0.263  0.00  0.00    +0.232 C 
BRANCH  21  23
ATOM     22  C   UNL     1      -8.766  -0.367   1.225  0.00  0.00    +0.010 C 
ATOM     23  C   UNL     1      -7.840  -1.375   0.540  0.00  0.00    +0.020 C 
ATOM     24  C   UNL     1      -8.467  -1.827  -0.780  0.00  0.00    +0.010 C 
ENDBRANCH  21  23
ENDBRANCH  20  21
ENDBRANCH  12  20
ENDBRANCH   1  15
BRANCH   9  25
ATOM     25  N   UNL     1       0.445   5.534   0.538  0.00  0.00    -0.358 N 
ATOM     26  H   UNL     1      -0.444   6.130   0.793  0.00  0.00    +0.142 HD
ATOM     27  H   UNL     1       1.397   6.036   0.313  0.00  0.00    +0.142 HD
ENDBRANCH   9  25
BRANCH  10  28
ATOM     28  C   UNL     1      -1.593   4.258   1.916  0.00  0.00    +0.091 C 
ATOM     29  N   UNL     1      -2.088   4.822   2.770  0.00  0.00    -0.194 NA
ENDBRANCH  10  28
BRANCH  10  30
ATOM     30  C   UNL     1      -1.818   3.604  -0.378  0.00  0.00    +0.091 C 
ATOM     31  N   UNL     1      -2.485   3.663  -1.295  0.00  0.00    -0.194 NA
ENDBRANCH  10  30
BRANCH   8  32
ATOM     32  C   UNL     1       2.702   4.154  -0.131  0.00  0.00    +0.101 C 
ATOM     33  N   UNL     1       3.669   4.697  -0.377  0.00  0.00    -0.191 NA
ENDBRANCH   8  32
TORSDOF 9
