REMARK  Name = ZINC04975145
REMARK  4 active torsions:
REMARK  status: ('A' for Active; 'I' for Inactive)
REMARK    1  A    between atoms: C_1  and  O_2
REMARK    2  A    between atoms: O_2  and  C_3
REMARK    3  A    between atoms: C_6  and  C_12
REMARK    4  A    between atoms: C_8  and  N_9
REMARK                            x       y       z     vdW  Elec       q    Type
REMARK                         _______ _______ _______ _____ _____    ______ ____
ROOT
ATOM      1  C   UNL     1       2.422   5.341   0.013  0.00  0.00    +0.105 C 
ATOM      2  C   UNL     1       1.340   5.965   0.876  0.00  0.00    +0.029 C 
ATOM      3  C   UNL     1       1.272   7.498   0.914  0.00  0.00    +0.033 C 
ATOM      4  C   UNL     1      -0.218   7.733   1.172  0.00  0.00    -0.030 C 
ATOM      5  C   UNL     1      -0.924   6.702   0.725  0.00  0.00    -0.023 C 
ATOM      6  C   UNL     1       0.003   5.694   0.125  0.00  0.00    +0.049 C 
ATOM      7  C   UNL     1      -0.254   4.238   0.168  0.00  0.00    -0.018 A 
ATOM      8  C   UNL     1      -1.525   3.713   0.259  0.00  0.00    +0.026 A 
ATOM      9  C   UNL     1      -1.715   2.342   0.269  0.00  0.00    +0.041 A 
ATOM     10  C   UNL     1      -0.624   1.493   0.203  0.00  0.00    +0.022 A 
ATOM     11  C   UNL     1       0.652   2.010   0.120  0.00  0.00    +0.024 A 
ATOM     12  C   UNL     1       0.854   3.385   0.103  0.00  0.00    +0.031 A 
ATOM     13  N   UNL     1       2.160   3.886   0.037  0.00  0.00    -0.336 N 
ATOM     14 CL   UNL     1      -3.320   1.689   0.373  0.00  0.00    -0.084 Cl
ATOM     15  H   UNL     1       2.906   3.267   0.007  0.00  0.00    +0.147 HD
ENDROOT
BRANCH   1  19
ATOM     16  C   UNL     1       2.160   6.823  -3.986  0.00  0.00    +0.150 A 
ATOM     17  C   UNL     1       1.466   5.679  -3.622  0.00  0.00    +0.048 A 
ATOM     18  C   UNL     1       1.557   5.198  -2.330  0.00  0.00    +0.009 A 
ATOM     19  C   UNL     1       2.330   5.864  -1.397  0.00  0.00    -0.025 A 
ATOM     20  C   UNL     1       3.023   7.005  -1.757  0.00  0.00    +0.042 A 
ATOM     21  C   UNL     1       2.940   7.486  -3.049  0.00  0.00    +0.168 A 
BRANCH  21  22
ATOM     22  N   UNL     1       3.681   8.708  -3.434  0.00  0.00    +0.060 N 
ATOM     23  O   UNL     1       4.365   9.289  -2.611  0.00  0.00    -0.126 OA
ATOM     24  O   UNL     1       3.608   9.131  -4.574  0.00  0.00    -0.126 OA
ENDBRANCH  21  22
BRANCH  16  26
ATOM     25  C   UNL     1       1.256   6.561  -6.169  0.00  0.00    +0.277 C 
ATOM     26  O   UNL     1       2.077   7.295  -5.258  0.00  0.00    -0.493 OA
ENDBRANCH  16  26
ENDBRANCH   1  19
TORSDOF 3
