REMARK  Name = ZINC35285002
REMARK  6 active torsions:
REMARK  status: ('A' for Active; 'I' for Inactive)
REMARK    1  A    between atoms: C_4  and  N_7
REMARK    2  A    between atoms: N_7  and  C_8
REMARK    3  A    between atoms: N_7  and  C_13
REMARK    4  A    between atoms: C_8  and  C_9
REMARK    5  A    between atoms: C_9  and  C_10
REMARK    6  A    between atoms: C_13  and  C_14
REMARK                            x       y       z     vdW  Elec       q    Type
REMARK                         _______ _______ _______ _____ _____    ______ ____
ROOT
ATOM      1  N   UNL     1       3.620  -0.649  -0.036  0.00  0.00    -0.325 N 
ENDROOT
BRANCH   1   5
ATOM      2  C   UNL     1      -0.017   1.379   0.010  0.00  0.00    +0.000 A 
ATOM      3  C   UNL     1       1.169   2.089   0.002  0.00  0.00    +0.002 A 
ATOM      4  C   UNL     1       2.377   1.420  -0.013  0.00  0.00    +0.023 A 
ATOM      5  C   UNL     1       2.400   0.031  -0.021  0.00  0.00    +0.030 A 
ATOM      6  C   UNL     1       1.206  -0.680  -0.013  0.00  0.00    +0.023 A 
ATOM      7  C   UNL     1       0.002  -0.004   0.002  0.00  0.00    +0.002 A 
ENDBRANCH   1   5
BRANCH   1   8
ATOM      8  C   UNL     1       3.641  -2.114  -0.044  0.00  0.00    +0.113 C 
BRANCH   8   9
ATOM      9  C   UNL     1       3.635  -2.616  -1.490  0.00  0.00    +0.087 C 
BRANCH   9  10
ATOM     10  C   UNL     1       3.657  -4.123  -1.498  0.00  0.00    +0.064 C 
ATOM     11  N   UNL     1       4.811  -4.767  -1.513  0.00  0.00    -0.391 N 
ATOM     12  N   UNL     1       2.522  -4.801  -1.490  0.00  0.00    -0.348 N 
ATOM     13  H   UNL     1       5.644  -4.269  -1.518  0.00  0.00    +0.157 HD
ATOM     14  H   UNL     1       1.675  -4.329  -1.479  0.00  0.00    +0.143 HD
ATOM     15  H   UNL     1       2.537  -5.771  -1.496  0.00  0.00    +0.143 HD
ATOM     16  H   UNL     1       4.826  -5.737  -1.518  0.00  0.00    +0.157 HD
ENDBRANCH   9  10
ENDBRANCH   8   9
ENDBRANCH   1   8
BRANCH   1  17
ATOM     17  C   UNL     1       4.877   0.102  -0.045  0.00  0.00    +0.143 C 
BRANCH  17  18
ATOM     18  C   UNL     1       5.323   0.352   1.373  0.00  0.00    +0.005 A 
ATOM     19  C   UNL     1       5.085   1.578   1.966  0.00  0.00    +0.009 A 
ATOM     20  C   UNL     1       5.492   1.808   3.267  0.00  0.00    +0.016 A 
ATOM     21  C   UNL     1       6.139   0.812   3.976  0.00  0.00    +0.021 A 
ATOM     22  C   UNL     1       6.379  -0.415   3.384  0.00  0.00    +0.054 A 
ATOM     23  C   UNL     1       5.965  -0.647   2.083  0.00  0.00    +0.129 A 
ATOM     24  F   UNL     1       6.193  -1.847   1.506  0.00  0.00    -0.205 F 
ATOM     25 BR   UNL     1       6.697   1.128   5.755  0.00  0.00    -0.050 Br
ENDBRANCH  17  18
ENDBRANCH   1  17
TORSDOF 6
