REMARK  Name = ZINC43165546
REMARK  8 active torsions:
REMARK  status: ('A' for Active; 'I' for Inactive)
REMARK    1  A    between atoms: C_1  and  C_2
REMARK    2  A    between atoms: C_2  and  C_4
REMARK    3  A    between atoms: C_2  and  C_21
REMARK    4  A    between atoms: C_4  and  N_5
REMARK    5  A    between atoms: N_5  and  C_6
REMARK    6  A    between atoms: N_9  and  C_10
REMARK    7  A    between atoms: C_21  and  O_23
REMARK    8  A    between atoms: O_23  and  C_24
REMARK                            x       y       z     vdW  Elec       q    Type
REMARK                         _______ _______ _______ _____ _____    ______ ____
ROOT
ATOM      1  N   UNL     1      -0.055  -0.114  -2.441  0.00  0.00    -0.288 N 
ATOM      2  C   UNL     1       0.199   1.171  -3.096  0.00  0.00    +0.133 C 
ATOM      3  C   UNL     1      -1.000  -0.943  -2.926  0.00  0.00    +0.302 C 
ATOM      4  O   UNL     1      -1.211  -2.010  -2.382  0.00  0.00    -0.253 OA
ATOM      5  N   UNL     1      -1.711  -0.590  -4.015  0.00  0.00    -0.292 N 
ATOM      6  H   UNL     1      -1.543   0.261  -4.449  0.00  0.00    +0.151 HD
ENDROOT
BRANCH   5   7
ATOM      7  C   UNL     1      -2.738  -1.492  -4.543  0.00  0.00    +0.111 C 
ATOM      8  C   UNL     1      -3.781  -0.679  -5.315  0.00  0.00    +0.068 C 
ATOM      9  C   UNL     1      -4.668  -1.655  -6.098  0.00  0.00    +0.231 C 
ATOM     10  O   UNL     1      -3.860  -2.314  -7.075  0.00  0.00    -0.492 OA
ATOM     11  C   UNL     1      -2.684  -2.856  -6.664  0.00  0.00    +0.125 A 
ATOM     12  C   UNL     1      -2.097  -2.499  -5.463  0.00  0.00    +0.015 A 
ATOM     13  C   UNL     1      -0.895  -3.074  -5.088  0.00  0.00    +0.009 A 
ATOM     14  C   UNL     1      -0.281  -4.003  -5.906  0.00  0.00    +0.001 A 
ATOM     15  C   UNL     1      -0.867  -4.363  -7.105  0.00  0.00    +0.004 A 
ATOM     16  C   UNL     1      -2.064  -3.794  -7.483  0.00  0.00    +0.046 A 
ENDBRANCH   5   7
BRANCH   1  17
ATOM     17  C   UNL     1       0.718  -0.497  -1.257  0.00  0.00    +0.123 C 
BRANCH  17  19
ATOM     18  C   UNL     1      -0.019   1.526   0.010  0.00  0.00    +0.021 C 
ATOM     19  C   UNL     1       0.002  -0.004   0.002  0.00  0.00    +0.112 C 
BRANCH  19  20
ATOM     20  C   UNL     1       0.731  -0.503   1.223  0.00  0.00    +0.311 C 
ATOM     21  O   UNL     1       1.722  -1.184   1.099  0.00  0.00    -0.251 OA
BRANCH  20  22
ATOM     22  O   UNL     1       0.280  -0.192   2.448  0.00  0.00    -0.468 OA
ATOM     23  C   UNL     1       1.020  -0.699   3.560  0.00  0.00    +0.280 C 
ENDBRANCH  20  22
ENDBRANCH  19  20
ENDBRANCH  17  19
ENDBRANCH   1  17
TORSDOF 5
