REMARK  Name = ZINC45820129
REMARK  7 active torsions:
REMARK  status: ('A' for Active; 'I' for Inactive)
REMARK    1  A    between atoms: C_1  and  C_2
REMARK    2  A    between atoms: C_4  and  C_23
REMARK    3  A    between atoms: C_6  and  C_8
REMARK    4  A    between atoms: N_10  and  C_11
REMARK    5  A    between atoms: C_11  and  C_12
REMARK    6  A    between atoms: N_14  and  C_15
REMARK    7  A    between atoms: C_20  and  C_21
REMARK                            x       y       z     vdW  Elec       q    Type
REMARK                         _______ _______ _______ _____ _____    ______ ____
ROOT
ATOM      1  C   UNL     1       0.079  -2.927   4.893  0.00  0.00    +0.200 C 
ENDROOT
BRANCH   1   4
ATOM      2  C   UNL     1       0.079  -2.846   2.458  0.00  0.00    +0.244 C 
ATOM      3  O   UNL     1       0.102  -4.061   2.447  0.00  0.00    -0.270 OA
ATOM      4  N   UNL     1       0.065  -2.183   3.631  0.00  0.00    -0.303 N 
ATOM      5  H   UNL     1       0.046  -1.213   3.640  0.00  0.00    +0.150 HD
BRANCH   2  11
ATOM      6  C   UNL     1      -0.008   1.501   0.009  0.00  0.00    +0.044 C 
ATOM      7  C   UNL     1       0.023  -0.005   0.001  0.00  0.00    -0.049 A 
ATOM      8  C   UNL     1       0.036  -0.689  -1.201  0.00  0.00    +0.006 A 
ATOM      9  C   UNL     1       0.065  -2.072  -1.217  0.00  0.00    -0.049 A 
ATOM     10  C   UNL     1       0.079  -2.779  -0.033  0.00  0.00    +0.016 A 
ATOM     11  C   UNL     1       0.065  -2.095   1.184  0.00  0.00    +0.037 A 
ATOM     12  C   UNL     1       0.042  -0.700   1.193  0.00  0.00    +0.016 A 
ATOM     13  C   UNL     1       0.080  -2.809  -2.532  0.00  0.00    +0.044 C 
ENDBRANCH   2  11
ENDBRANCH   1   4
BRANCH   1  14
ATOM     14  C   UNL     1       0.060  -1.958   6.047  0.00  0.00    +0.234 C 
ATOM     15  O   UNL     1       0.036  -0.764   5.837  0.00  0.00    -0.274 OA
ATOM     16  N   UNL     1       0.068  -2.419   7.314  0.00  0.00    -0.284 N 
ATOM     17  H   UNL     1       0.006  -3.372   7.484  0.00  0.00    +0.155 HD
BRANCH  16  18
ATOM     18  C   UNL     1       0.167  -1.522   8.384  0.00  0.00    +0.036 A 
ATOM     19  C   UNL     1       0.755  -0.278   8.197  0.00  0.00    +0.024 A 
ATOM     20  C   UNL     1       0.851   0.604   9.255  0.00  0.00    +0.016 A 
ATOM     21  C   UNL     1       0.361   0.251  10.500  0.00  0.00    +0.014 A 
ATOM     22  C   UNL     1      -0.226  -0.988  10.688  0.00  0.00    +0.019 A 
ATOM     23  C   UNL     1      -0.329  -1.873   9.633  0.00  0.00    -0.028 A 
ATOM     24  C   UNL     1      -0.975  -3.219   9.838  0.00  0.00    +0.046 C 
ATOM     25  I   UNL     1       0.508   1.593  12.101  0.00  0.00    -0.044 I 
ENDBRANCH  16  18
ENDBRANCH   1  14
TORSDOF 4
