REMARK  Name = ZINC36551238
REMARK  6 active torsions:
REMARK  status: ('A' for Active; 'I' for Inactive)
REMARK    1  A    between atoms: C_1  and  O_2
REMARK    2  A    between atoms: O_2  and  C_3
REMARK    3  A    between atoms: C_7  and  C_10
REMARK    4  A    between atoms: C_8  and  O_9
REMARK    5  A    between atoms: C_21  and  S_26
REMARK    6  A    between atoms: S_26  and  N_29
REMARK                            x       y       z     vdW  Elec       q    Type
REMARK                         _______ _______ _______ _____ _____    ______ ____
ROOT
ATOM      1  C   UNL     1      -2.549  -4.175   0.017  0.00  0.00    +0.109 C 
ATOM      2  C   UNL     1      -2.380  -4.707  -1.395  0.00  0.00    +0.029 C 
ATOM      3  C   UNL     1      -1.008  -4.514  -2.056  0.00  0.00    +0.033 C 
ATOM      4  C   UNL     1      -0.950  -5.717  -3.000  0.00  0.00    -0.030 C 
ATOM      5  C   UNL     1      -1.719  -6.695  -2.537  0.00  0.00    -0.023 C 
ATOM      6  C   UNL     1      -2.351  -6.258  -1.254  0.00  0.00    +0.049 C 
ATOM      7  C   UNL     1      -3.697  -6.699  -0.829  0.00  0.00    -0.018 A 
ATOM      8  C   UNL     1      -4.255  -7.886  -1.252  0.00  0.00    +0.034 A 
ATOM      9  C   UNL     1      -5.512  -8.261  -0.815  0.00  0.00    +0.109 A 
ATOM     10  C   UNL     1      -6.215  -7.443   0.052  0.00  0.00    +0.030 A 
ATOM     11  C   UNL     1      -5.667  -6.250   0.477  0.00  0.00    +0.025 A 
ATOM     12  C   UNL     1      -4.407  -5.861   0.038  0.00  0.00    +0.031 A 
ATOM     13  N   UNL     1      -3.886  -4.630   0.459  0.00  0.00    -0.336 N 
ATOM     14  H   UNL     1      -4.410  -4.065   1.047  0.00  0.00    +0.147 HD
ENDROOT
BRANCH   1  19
ATOM     15  C   UNL     1      -1.201  -0.638   0.010  0.00  0.00    +0.162 A 
ATOM     16  C   UNL     1      -2.374   0.099   0.019  0.00  0.00    +0.049 A 
ATOM     17  C   UNL     1      -3.596  -0.546   0.027  0.00  0.00    +0.004 A 
ATOM     18  C   UNL     1      -3.652  -1.928   0.026  0.00  0.00    +0.009 A 
ATOM     19  C   UNL     1      -2.485  -2.669   0.017  0.00  0.00    +0.018 A 
ATOM     20  C   UNL     1      -1.257  -2.028   0.003  0.00  0.00    +0.163 A 
BRANCH  15  22
ATOM     21  C   UNL     1      -0.017   1.425   0.010  0.00  0.00    +0.277 C 
ATOM     22  O   UNL     1       0.002  -0.004   0.002  0.00  0.00    -0.491 OA
ENDBRANCH  15  22
BRANCH  20  23
ATOM     23  O   UNL     1      -0.108  -2.756  -0.012  0.00  0.00    -0.503 OA
ATOM     24  H   UNL     1       0.232  -2.972   0.867  0.00  0.00    +0.292 HD
ENDBRANCH  20  23
ENDBRANCH   1  19
BRANCH   9  25
ATOM     25  S   UNL     1      -6.220  -9.779  -1.362  0.00  0.00    +0.075 S 
ATOM     26  O   UNL     1      -7.628  -9.638  -1.239  0.00  0.00    -0.150 OA
ATOM     27  O   UNL     1      -5.590 -10.098  -2.595  0.00  0.00    -0.150 OA
BRANCH  25  28
ATOM     28  N   UNL     1      -5.765 -10.949  -0.282  0.00  0.00    -0.202 N 
ATOM     29  C   UNL     1      -4.548 -11.759  -0.385  0.00  0.00    +0.136 C 
ATOM     30  C   UNL     1      -4.577 -12.687   0.841  0.00  0.00    +0.058 C 
ATOM     31  C   UNL     1      -5.851 -12.317   1.567  0.00  0.00    -0.023 A 
ATOM     32  C   UNL     1      -6.481 -11.302   0.863  0.00  0.00    +0.054 A 
ATOM     33  C   UNL     1      -7.684 -10.786   1.349  0.00  0.00    +0.025 A 
ATOM     34  C   UNL     1      -8.232 -11.279   2.514  0.00  0.00    +0.002 A 
ATOM     35  C   UNL     1      -7.594 -12.289   3.210  0.00  0.00    +0.000 A 
ATOM     36  C   UNL     1      -6.406 -12.811   2.731  0.00  0.00    +0.005 A 
ENDBRANCH  25  28
ENDBRANCH   9  25
TORSDOF 5
