REMARK  Name = ZINC57952048
REMARK  8 active torsions:
REMARK  status: ('A' for Active; 'I' for Inactive)
REMARK    1  A    between atoms: C_1  and  C_2
REMARK    2  A    between atoms: C_8  and  N_10
REMARK    3  A    between atoms: C_11  and  C_13
REMARK    4  A    between atoms: C_13  and  S_14
REMARK    5  A    between atoms: S_14  and  C_15
REMARK    6  A    between atoms: N_19  and  C_20
REMARK    7  A    between atoms: C_20  and  C_21
REMARK    8  A    between atoms: C_20  and  C_22
REMARK                            x       y       z     vdW  Elec       q    Type
REMARK                         _______ _______ _______ _____ _____    ______ ____
ROOT
ATOM      1  C   UNL     1       4.209   0.649   2.377  0.00  0.00    +0.173 C 
ENDROOT
BRANCH   1   3
ATOM      2  N   UNL     1       2.116  -0.004   1.231  0.00  0.00    -0.312 N 
ATOM      3  C   UNL     1       2.795   0.128   2.388  0.00  0.00    +0.224 C 
ATOM      4  O   UNL     1       2.268  -0.174   3.438  0.00  0.00    -0.275 OA
ATOM      5  H   UNL     1       2.538   0.237   0.392  0.00  0.00    +0.149 HD
BRANCH   2  12
ATOM      6  C   UNL     1      -0.019   1.526   0.010  0.00  0.00    +0.009 C 
ATOM      7  C   UNL     1       0.002  -0.004   0.002  0.00  0.00    +0.006 C 
ATOM      8  C   UNL     1       0.718  -0.497  -1.257  0.00  0.00    +0.005 C 
ATOM      9  C   UNL     1       0.739  -2.027  -1.265  0.00  0.00    +0.000 C 
ATOM     10  C   UNL     1       1.479  -2.534  -0.026  0.00  0.00    +0.002 C 
ATOM     11  C   UNL     1       0.763  -2.041   1.233  0.00  0.00    +0.022 C 
ATOM     12  C   UNL     1       0.742  -0.511   1.242  0.00  0.00    +0.076 C 
ENDBRANCH   2  12
ENDBRANCH   1   3
BRANCH   1  13
ATOM     13  S   UNL     1       4.844   0.710   4.076  0.00  0.00    -0.077 S 
BRANCH  13  14
ATOM     14  C   UNL     1       6.483   1.331   3.896  0.00  0.00    +0.194 A 
ATOM     15  N   UNL     1       7.061   1.666   2.768  0.00  0.00    -0.121 NA
ATOM     16  N   UNL     1       8.356   2.111   3.061  0.00  0.00    -0.113 NA
ATOM     17  C   UNL     1       8.527   2.034   4.358  0.00  0.00    +0.215 A 
ATOM     18  N   UNL     1       7.373   1.556   4.909  0.00  0.00    -0.288 N 
ATOM     19  N   UNL     1       9.679   2.384   5.051  0.00  0.00    -0.328 N 
ATOM     20  H   UNL     1      10.451   2.720   4.571  0.00  0.00    +0.145 HD
ATOM     21  H   UNL     1       9.711   2.291   6.016  0.00  0.00    +0.145 HD
BRANCH  18  22
ATOM     22  C   UNL     1       7.132   1.320   6.335  0.00  0.00    +0.086 C 
ATOM     23  C   UNL     1       8.145   0.302   6.862  0.00  0.00    +0.031 C 
ATOM     24  C   UNL     1       7.284   2.635   7.101  0.00  0.00    +0.031 C 
ENDBRANCH  18  22
ENDBRANCH  13  14
ENDBRANCH   1  13
TORSDOF 5
