REMARK  Name = ZINC32776941
REMARK  8 active torsions:
REMARK  status: ('A' for Active; 'I' for Inactive)
REMARK    1  A    between atoms: C_1  and  C_2
REMARK    2  A    between atoms: C_3  and  C_23
REMARK    3  A    between atoms: C_7  and  N_22
REMARK    4  A    between atoms: C_9  and  S_11
REMARK    5  A    between atoms: S_11  and  C_12
REMARK    6  A    between atoms: C_12  and  C_13
REMARK    7  A    between atoms: N_15  and  C_16
REMARK    8  A    between atoms: C_16  and  C_17
REMARK                            x       y       z     vdW  Elec       q    Type
REMARK                         _______ _______ _______ _____ _____    ______ ____
ROOT
ATOM      1  C   UNL     1       3.988  -0.942  -5.891  0.00  0.00    +0.045 C 
ATOM      2  C   UNL     1       2.719  -0.140  -6.031  0.00  0.00    -0.028 A 
ATOM      3  C   UNL     1       2.244   0.170  -7.246  0.00  0.00    -0.008 A 
ATOM      4  S   UNL     1       0.766   1.101  -6.889  0.00  0.00    -0.073 S 
ATOM      5  C   UNL     1       0.827   1.048  -5.118  0.00  0.00    +0.115 A 
ATOM      6  C   UNL     1       1.998   0.307  -4.851  0.00  0.00    +0.050 A 
ATOM      7  C   UNL     1       2.297   0.108  -3.475  0.00  0.00    +0.129 A 
ATOM      8  N   UNL     1       1.492   0.616  -2.557  0.00  0.00    -0.207 NA
ATOM      9  C   UNL     1       0.401   1.302  -2.878  0.00  0.00    +0.191 A 
ATOM     10  N   UNL     1       0.072   1.518  -4.144  0.00  0.00    -0.214 NA
ATOM     11  C   UNL     1       2.821  -0.185  -8.592  0.00  0.00    +0.052 C 
ENDROOT
BRANCH   7  12
ATOM     12  N   UNL     1       3.421  -0.605  -3.100  0.00  0.00    -0.343 N 
ATOM     13  H   UNL     1       3.647  -0.755  -2.034  0.00  0.00    +0.144 HD
ATOM     14  H   UNL     1       4.090  -1.021  -3.868  0.00  0.00    +0.144 HD
ENDBRANCH   7  12
BRANCH   9  15
ATOM     15  S   UNL     1      -0.626   1.941  -1.596  0.00  0.00    -0.077 S 
BRANCH  15  16
ATOM     16  C   UNL     1       0.283   1.356  -0.144  0.00  0.00    +0.173 C 
BRANCH  16  17
ATOM     17  C   UNL     1      -0.432   1.798   1.107  0.00  0.00    +0.224 C 
ATOM     18  O   UNL     1      -1.454   2.445   1.025  0.00  0.00    -0.275 OA
ATOM     19  N   UNL     1       0.066   1.475   2.317  0.00  0.00    -0.308 N 
ATOM     20  H   UNL     1       0.994   0.889   2.391  0.00  0.00    +0.149 HD
BRANCH  19  21
ATOM     21  C   UNL     1      -0.628   1.905   3.533  0.00  0.00    +0.178 C 
BRANCH  21  22
ATOM     22  C   UNL     1       0.129   1.418   4.742  0.00  0.00    +0.122 A 
ATOM     23  C   UNL     1       1.106   2.087   5.380  0.00  0.00    +0.046 A 
ATOM     24  C   UNL     1       1.532   1.267   6.450  0.00  0.00    +0.041 A 
ATOM     25  C   UNL     1       0.790   0.146   6.402  0.00  0.00    +0.195 A 
ATOM     26  O   UNL     1      -0.063   0.246   5.369  0.00  0.00    -0.466 OA
ENDBRANCH  21  22
ENDBRANCH  19  21
ENDBRANCH  16  17
ENDBRANCH  15  16
ENDBRANCH   9  15
TORSDOF 6
