REMARK  Name = ZINC13844174
REMARK  7 active torsions:
REMARK  status: ('A' for Active; 'I' for Inactive)
REMARK    1  A    between atoms: C_4  and  C_7
REMARK    2  A    between atoms: C_12  and  S_16
REMARK    3  A    between atoms: C_14  and  O_15
REMARK    4  A    between atoms: S_16  and  C_17
REMARK    5  A    between atoms: C_17  and  C_18
REMARK    6  A    between atoms: N_20  and  C_21
REMARK    7  A    between atoms: C_22  and  C_30
REMARK                            x       y       z     vdW  Elec       q    Type
REMARK                         _______ _______ _______ _____ _____    ______ ____
ROOT
ATOM      1  C   UNL     1       0.534  -6.922  -1.722  0.00  0.00    +0.173 C 
ENDROOT
BRANCH   1   2
ATOM      2  C   UNL     1       0.442  -8.404  -1.979  0.00  0.00    +0.228 C 
ATOM      3  O   UNL     1       0.854  -9.190  -1.152  0.00  0.00    -0.275 OA
ATOM      4  N   UNL     1      -0.098  -8.857  -3.128  0.00  0.00    -0.279 N 
ATOM      5  H   UNL     1      -0.428  -8.229  -3.789  0.00  0.00    +0.155 HD
BRANCH   4   6
ATOM      6  C   UNL     1      -0.183 -10.221  -3.364  0.00  0.00    +0.084 A 
ATOM      7  C   UNL     1      -0.705 -10.873  -4.472  0.00  0.00    +0.068 A 
ATOM      8  C   UNL     1      -0.671 -12.326  -4.474  0.00  0.00    -0.023 A 
ATOM      9  C   UNL     1      -0.132 -12.890  -3.371  0.00  0.00    -0.004 A 
ATOM     10  S   UNL     1       0.331 -11.524  -2.344  0.00  0.00    -0.077 S 
ATOM     11  C   UNL     1       0.030 -14.352  -3.092  0.00  0.00    +0.043 C 
ATOM     12  C   UNL     1      -0.847 -15.134  -4.081  0.00  0.00    +0.005 C 
ATOM     13  C   UNL     1      -0.605 -14.589  -5.492  0.00  0.00    +0.005 C 
ATOM     14  C   UNL     1      -1.199 -13.185  -5.616  0.00  0.00    +0.037 C 
BRANCH   7  15
ATOM     15  C   UNL     1      -1.267 -10.125  -5.600  0.00  0.00    +0.244 C 
ATOM     16  O   UNL     1      -0.552  -9.794  -6.528  0.00  0.00    -0.270 OA
ATOM     17  N   UNL     1      -2.576  -9.802  -5.610  0.00  0.00    -0.325 N 
ATOM     18  H   UNL     1      -3.146 -10.066  -4.870  0.00  0.00    +0.145 HD
ATOM     19  H   UNL     1      -2.948  -9.307  -6.356  0.00  0.00    +0.145 HD
ENDBRANCH   7  15
ENDBRANCH   4   6
ENDBRANCH   1   2
BRANCH   1  20
ATOM     20  S   UNL     1       1.300  -6.636  -0.108  0.00  0.00    -0.078 S 
BRANCH  20  26
ATOM     21  C   UNL     1       1.248  -2.163  -0.021  0.00  0.00    +0.108 A 
ATOM     22  C   UNL     1       1.790  -2.880   1.067  0.00  0.00    +0.263 A 
ATOM     23  O   UNL     1       2.246  -2.293   2.034  0.00  0.00    -0.267 OA
ATOM     24  N   UNL     1       1.788  -4.229   1.019  0.00  0.00    -0.301 N 
ATOM     25  H   UNL     1       2.152  -4.740   1.758  0.00  0.00    +0.171 HD
ATOM     26  C   UNL     1       1.282  -4.874  -0.069  0.00  0.00    +0.173 A 
ATOM     27  N   UNL     1       0.779  -4.214  -1.092  0.00  0.00    -0.188 NA
ATOM     28  C   UNL     1       0.743  -2.881  -1.108  0.00  0.00    +0.228 A 
BRANCH  21  32
ATOM     29  C   UNL     1       1.170   2.086   0.002  0.00  0.00    +0.000 A 
ATOM     30  C   UNL     1      -0.017   1.375   0.010  0.00  0.00    +0.001 A 
ATOM     31  C   UNL     1       0.002  -0.004   0.002  0.00  0.00    +0.009 A 
ATOM     32  C   UNL     1       1.221  -0.682  -0.013  0.00  0.00    -0.008 A 
ATOM     33  C   UNL     1       2.414   0.040  -0.021  0.00  0.00    +0.009 A 
ATOM     34  C   UNL     1       2.382   1.420  -0.013  0.00  0.00    +0.001 A 
ENDBRANCH  21  32
BRANCH  28  35
ATOM     35  O   UNL     1       0.221  -2.227  -2.171  0.00  0.00    -0.492 OA
ATOM     36  H   UNL     1      -0.102  -2.811  -2.872  0.00  0.00    +0.294 HD
ENDBRANCH  28  35
ENDBRANCH  20  26
ENDBRANCH   1  20
TORSDOF 7
