REMARK  Name = ZINC36159603
REMARK  7 active torsions:
REMARK  status: ('A' for Active; 'I' for Inactive)
REMARK    1  A    between atoms: C_4  and  O_8
REMARK    2  A    between atoms: C_5  and  N_7
REMARK    3  A    between atoms: O_8  and  C_9
REMARK    4  A    between atoms: C_9  and  C_10
REMARK    5  A    between atoms: C_10  and  C_12
REMARK    6  A    between atoms: C_10  and  O_21
REMARK    7  A    between atoms: C_12  and  N_13
REMARK                            x       y       z     vdW  Elec       q    Type
REMARK                         _______ _______ _______ _____ _____    ______ ____
ROOT
ATOM      1  C   UNL     1       6.008  -0.735  -0.152  0.00  0.00    +0.135 C 
ENDROOT
BRANCH   1   2
ATOM      2  O   UNL     1       6.020  -1.545   1.025  0.00  0.00    -0.390 OA
ATOM      3  H   UNL     1       6.051  -1.040   1.850  0.00  0.00    +0.210 HD
ENDBRANCH   1   2
BRANCH   1   4
ATOM      4  C   UNL     1       4.777   0.175  -0.133  0.00  0.00    +0.258 C 
BRANCH   4   5
ATOM      5  O   UNL     1       3.594  -0.623  -0.210  0.00  0.00    -0.488 OA
BRANCH   5   9
ATOM      6  C   UNL     1      -0.019   1.378  -0.194  0.00  0.00    +0.002 A 
ATOM      7  C   UNL     1       1.166   2.087  -0.120  0.00  0.00    +0.004 A 
ATOM      8  C   UNL     1       2.376   1.418  -0.126  0.00  0.00    +0.047 A 
ATOM      9  C   UNL     1       2.404   0.036  -0.205  0.00  0.00    +0.141 A 
ATOM     10  C   UNL     1       1.210  -0.679  -0.278  0.00  0.00    +0.067 A 
ATOM     11  C   UNL     1      -0.000  -0.001  -0.273  0.00  0.00    +0.026 A 
BRANCH  10  12
ATOM     12  N   UNL     1       1.233  -2.076  -0.359  0.00  0.00    -0.355 N 
ATOM     13  H   UNL     1       2.080  -2.548  -0.363  0.00  0.00    +0.142 HD
ATOM     14  H   UNL     1       0.401  -2.572  -0.410  0.00  0.00    +0.142 HD
ENDBRANCH  10  12
ENDBRANCH   5   9
ENDBRANCH   4   5
ENDBRANCH   1   4
BRANCH   1  15
ATOM     15  C   UNL     1       7.275   0.122  -0.194  0.00  0.00    -0.044 C 
BRANCH  15  16
ATOM     16  N   UNL     1       8.456  -0.751  -0.211  0.00  0.00    +0.384 N 
ATOM     17  C   UNL     1       9.661   0.068  -0.059  0.00  0.00    -0.056 C 
ATOM     18  C   UNL     1      10.859  -0.826   0.279  0.00  0.00    +0.147 C 
ATOM     19  S   UNL     1      11.145  -1.959  -1.115  0.00  0.00    -0.034 S 
ATOM     20  O   UNL     1      12.011  -2.999  -0.683  0.00  0.00    -0.174 OA
ATOM     21  O   UNL     1      11.497  -1.192  -2.258  0.00  0.00    -0.174 OA
ATOM     22  C   UNL     1       9.483  -2.656  -1.367  0.00  0.00    +0.147 C 
ATOM     23  C   UNL     1       8.482  -1.500  -1.469  0.00  0.00    -0.056 C 
ATOM     24  H   UNL     1       8.398  -1.400   0.560  0.00  0.00    -0.082 HD
ENDBRANCH  15  16
ENDBRANCH   1  15
TORSDOF 7
