REMARK  Name = ZINC14993638
REMARK  15 active torsions:
REMARK  status: ('A' for Active; 'I' for Inactive)
REMARK    1  A    between atoms: C_1  and  C_2
REMARK    2  A    between atoms: C_2  and  C_3
REMARK    3  A    between atoms: C_2  and  C_4
REMARK    4  A    between atoms: C_4  and  C_5
REMARK    5  A    between atoms: C_5  and  C_7
REMARK    6  A    between atoms: C_5  and  N_29
REMARK    7  A    between atoms: C_16  and  C_17
REMARK    8  A    between atoms: C_16  and  N_67
REMARK    9  A    between atoms: C_18  and  O_27
REMARK   10  A    between atoms: C_20  and  O_25
REMARK   11  A    between atoms: C_22  and  O_23
REMARK   12  A    between atoms: O_23  and  C_24
REMARK   13  A    between atoms: O_25  and  C_26
REMARK   14  A    between atoms: O_27  and  C_28
REMARK   15  A    between atoms: C_30  and  C_32
REMARK                            x       y       z     vdW  Elec       q    Type
REMARK                         _______ _______ _______ _____ _____    ______ ____
ROOT
ATOM      1  C   UNL     1      -5.145   6.686  -4.319  0.00  0.00    +0.154 A 
ATOM      2  N   UNL     1      -4.428   7.751  -4.564  0.00  0.00    -0.132 NA
ATOM      3  N   UNL     1      -3.457   7.825  -3.722  0.00  0.00    -0.134 NA
ATOM      4  C   UNL     1      -3.515   6.817  -2.902  0.00  0.00    +0.132 A 
ATOM      5  N   UNL     1      -4.577   6.058  -3.267  0.00  0.00    -0.315 N 
ATOM      6  C   UNL     1      -4.998   4.807  -2.637  0.00  0.00    +0.106 C 
ATOM      7  C   UNL     1      -4.564   4.813  -1.168  0.00  0.00    -0.056 C 
ATOM      8  C   UNL     1      -2.219   5.040  -1.775  0.00  0.00    -0.071 C 
ATOM      9  C   UNL     1      -2.604   6.522  -1.738  0.00  0.00    +0.058 C 
ATOM     10  N   UNL     1      -3.214   4.216  -1.053  0.00  0.00    +0.384 N 
ATOM     11  H   UNL     1      -3.231   3.278  -1.470  0.00  0.00    -0.081 HD
ENDROOT
BRANCH   1  12
ATOM     12  C   UNL     1      -6.374   6.241  -5.069  0.00  0.00    +0.141 C 
BRANCH  12  13
ATOM     13  N   UNL     1      -7.254   7.391  -5.289  0.00  0.00    -0.306 N 
ATOM     14  C   UNL     1      -6.812   8.454  -5.989  0.00  0.00    +0.210 C 
ATOM     15  O   UNL     1      -5.685   8.459  -6.438  0.00  0.00    -0.276 OA
ATOM     16  C   UNL     1      -7.718   9.637  -6.216  0.00  0.00    +0.109 C 
ATOM     17  H   UNL     1      -8.155   7.387  -4.931  0.00  0.00    +0.149 HD
ENDBRANCH  12  13
BRANCH  12  18
ATOM     18  C   UNL     1      -5.961   5.649  -6.418  0.00  0.00    +0.033 C 
BRANCH  18  20
ATOM     19  C   UNL     1      -6.811   4.671  -8.555  0.00  0.00    +0.007 C 
ATOM     20  C   UNL     1      -7.202   5.129  -7.148  0.00  0.00    -0.015 C 
ATOM     21  C   UNL     1      -7.792   3.950  -6.373  0.00  0.00    +0.007 C 
ENDBRANCH  18  20
ENDBRANCH  12  18
ENDBRANCH   1  12
BRANCH  10  22
ATOM     22  C   UNL     1      -2.833   4.101   0.366  0.00  0.00    -0.035 C 
BRANCH  22  23
ATOM     23  C   UNL     1      -1.557   3.305   0.459  0.00  0.00    +0.020 A 
ATOM     24  C   UNL     1      -1.609   1.923   0.561  0.00  0.00    +0.128 A 
ATOM     25  C   UNL     1      -0.435   1.190   0.651  0.00  0.00    +0.091 A 
ATOM     26  C   UNL     1       0.791   1.839   0.630  0.00  0.00    +0.127 A 
ATOM     27  C   UNL     1       0.842   3.221   0.524  0.00  0.00    +0.091 A 
ATOM     28  C   UNL     1      -0.332   3.954   0.439  0.00  0.00    +0.128 A 
BRANCH  28  29
ATOM     29  O   UNL     1      -0.282   5.308   0.335  0.00  0.00    -0.495 OA
ATOM     30  C   UNL     1       1.014   5.909   0.319  0.00  0.00    +0.277 C 
ENDBRANCH  28  29
BRANCH  26  31
ATOM     31  O   UNL     1       1.941   1.121   0.713  0.00  0.00    -0.495 OA
ATOM     32  C   UNL     1       3.168   1.854   0.685  0.00  0.00    +0.277 C 
ENDBRANCH  26  31
BRANCH  24  33
ATOM     33  O   UNL     1      -2.809   1.287   0.576  0.00  0.00    -0.495 OA
ATOM     34  C   UNL     1      -2.787  -0.138   0.688  0.00  0.00    +0.277 C 
ENDBRANCH  24  33
ENDBRANCH  22  23
ENDBRANCH  10  22
TORSDOF 9
