REMARK  Name = ZINC05634257
REMARK  7 active torsions:
REMARK  status: ('A' for Active; 'I' for Inactive)
REMARK    1  A    between atoms: C_1  and  N_2
REMARK    2  A    between atoms: C_11  and  C_25
REMARK    3  A    between atoms: C_13  and  C_21
REMARK    4  A    between atoms: C_13  and  C_23
REMARK    5  A    between atoms: C_14  and  N_20
REMARK    6  A    between atoms: C_15  and  C_18
REMARK    7  A    between atoms: C_30  and  C_31
REMARK                            x       y       z     vdW  Elec       q    Type
REMARK                         _______ _______ _______ _____ _____    ______ ____
ROOT
ATOM      1  C   UNL     1       2.123   3.082   2.166  0.00  0.00    +0.105 C 
ATOM      2  N   UNL     1       2.134   3.874   0.928  0.00  0.00    -0.295 NA
ATOM      3  C   UNL     1       3.412   4.629   0.789  0.00  0.00    +0.080 C 
ATOM      4  C   UNL     1       3.099   5.755  -0.221  0.00  0.00    +0.024 C 
ATOM      5  C   UNL     1       1.554   5.949  -0.107  0.00  0.00    +0.021 C 
ATOM      6  C   UNL     1       1.113   4.951   0.993  0.00  0.00    +0.065 C 
ATOM      7  C   UNL     1       1.222   5.664   2.334  0.00  0.00    +0.047 C 
ATOM      8  C   UNL     1       0.347   5.004   3.400  0.00  0.00    +0.068 C 
ATOM      9  C   UNL     1       0.364   5.873   4.659  0.00  0.00    +0.188 C 
ATOM     10  C   UNL     1       1.758   6.233   5.073  0.00  0.00    +0.054 C 
ATOM     11  C   UNL     1       2.831   6.169   4.243  0.00  0.00    +0.074 C 
ATOM     12  C   UNL     1       2.635   5.692   2.852  0.00  0.00    -0.026 C 
ATOM     13  C   UNL     1       3.663   5.258   2.144  0.00  0.00    -0.003 C 
ENDROOT
BRANCH   8  14
ATOM     14  C   UNL     1      -1.065   4.879   2.889  0.00  0.00    -0.029 A 
ATOM     15  C   UNL     1      -1.617   5.894   2.130  0.00  0.00    +0.004 A 
ATOM     16  C   UNL     1      -2.910   5.778   1.656  0.00  0.00    +0.000 A 
ATOM     17  C   UNL     1      -3.655   4.651   1.950  0.00  0.00    +0.001 A 
ATOM     18  C   UNL     1      -3.105   3.638   2.713  0.00  0.00    +0.012 A 
ATOM     19  C   UNL     1      -1.809   3.753   3.182  0.00  0.00    +0.058 A 
BRANCH  19  20
ATOM     20  C   UNL     1      -1.209   2.649   4.015  0.00  0.00    +0.418 C 
ATOM     21  F   UNL     1      -2.199   2.088   4.829  0.00  0.00    -0.166 F 
ATOM     22  F   UNL     1      -0.683   1.663   3.173  0.00  0.00    -0.166 F 
ATOM     23  F   UNL     1      -0.188   3.171   4.815  0.00  0.00    -0.166 F 
ENDBRANCH  19  20
ENDBRANCH   8  14
BRANCH  10  24
ATOM     24  N   UNL     1       1.962   6.649   6.359  0.00  0.00    -0.358 N 
ATOM     25  H   UNL     1       2.974   6.921   6.695  0.00  0.00    +0.142 HD
ATOM     26  H   UNL     1       1.115   6.712   7.058  0.00  0.00    +0.142 HD
ENDBRANCH  10  24
BRANCH  11  27
ATOM     27  C   UNL     1       4.131   6.554   4.703  0.00  0.00    +0.101 C 
ATOM     28  N   UNL     1       5.163   6.860   5.068  0.00  0.00    -0.191 NA
ENDBRANCH  11  27
BRANCH   9  29
ATOM     29  C   UNL     1      -0.391   7.109   4.397  0.00  0.00    +0.091 C 
ATOM     30  N   UNL     1      -0.974   8.063   4.195  0.00  0.00    -0.194 NA
ENDBRANCH   9  29
BRANCH   9  31
ATOM     31  C   UNL     1      -0.287   5.140   5.756  0.00  0.00    +0.091 C 
ATOM     32  N   UNL     1      -0.790   4.574   6.603  0.00  0.00    -0.194 NA
ENDBRANCH   9  31
TORSDOF 6
