REMARK  Name = ZINC42175468
REMARK  5 active torsions:
REMARK  status: ('A' for Active; 'I' for Inactive)
REMARK    1  A    between atoms: C_1  and  O_2
REMARK    2  A    between atoms: O_2  and  C_3
REMARK    3  A    between atoms: C_8  and  C_9
REMARK    4  A    between atoms: C_10  and  C_15
REMARK    5  A    between atoms: C_13  and  N_14
REMARK                            x       y       z     vdW  Elec       q    Type
REMARK                         _______ _______ _______ _____ _____    ______ ____
ROOT
ATOM      1  C   UNL     1       0.063  -2.830  -0.055  0.00  0.00    +0.070 A 
ATOM      2  C   UNL     1      -1.263  -3.311  -0.012  0.00  0.00    +0.097 A 
ATOM      3  N   UNL     1      -1.412  -3.997   1.085  0.00  0.00    -0.080 NA
ATOM      4  O   UNL     1      -0.189  -3.987   1.796  0.00  0.00    -0.339 OA
ATOM      5  C   UNL     1       0.703  -3.276   1.085  0.00  0.00    +0.223 A 
ENDROOT
BRANCH   2   6
ATOM      6  C   UNL     1      -2.323  -3.072  -1.056  0.00  0.00    +0.045 C 
ATOM      7  C   UNL     1      -3.563  -2.401  -0.421  0.00  0.00    +0.013 C 
ATOM      8  C   UNL     1      -4.724  -3.416  -0.656  0.00  0.00    -0.010 C 
ATOM      9  C   UNL     1      -5.002  -3.343  -2.189  0.00  0.00    +0.004 C 
ATOM     10  C   UNL     1      -3.767  -4.004  -2.842  0.00  0.00    +0.004 C 
ATOM     11  C   UNL     1      -2.849  -4.428  -1.617  0.00  0.00    -0.002 C 
ATOM     12  C   UNL     1      -3.947  -4.775  -0.546  0.00  0.00    +0.007 C 
ENDBRANCH   2   6
BRANCH   1  18
ATOM     13  C   UNL     1       0.606  -0.607  -1.056  0.00  0.00    +0.128 A 
ATOM     14  C   UNL     1       1.173   0.158  -2.061  0.00  0.00    +0.046 A 
ATOM     15  C   UNL     1       1.787  -0.457  -3.137  0.00  0.00    +0.004 A 
ATOM     16  C   UNL     1       1.839  -1.837  -3.216  0.00  0.00    +0.001 A 
ATOM     17  C   UNL     1       1.278  -2.612  -2.221  0.00  0.00    +0.012 A 
ATOM     18  C   UNL     1       0.662  -2.002  -1.130  0.00  0.00    +0.031 A 
BRANCH  13  20
ATOM     19  C   UNL     1      -0.017   1.425   0.010  0.00  0.00    +0.277 C 
ATOM     20  O   UNL     1       0.002  -0.004   0.002  0.00  0.00    -0.494 OA
ENDBRANCH  13  20
ENDBRANCH   1  18
BRANCH   5  21
ATOM     21  N   UNL     1       2.016  -3.034   1.433  0.00  0.00    -0.327 N 
ATOM     22  H   UNL     1       2.582  -2.504   0.850  0.00  0.00    +0.145 HD
ATOM     23  H   UNL     1       2.373  -3.393   2.260  0.00  0.00    +0.145 HD
ENDBRANCH   5  21
TORSDOF 4
