REMARK  Name = ZINC40621388
REMARK  8 active torsions:
REMARK  status: ('A' for Active; 'I' for Inactive)
REMARK    1  A    between atoms: C_1  and  C_2
REMARK    2  A    between atoms: C_2  and  C_3
REMARK    3  A    between atoms: C_2  and  N_4
REMARK    4  A    between atoms: C_7  and  C_10
REMARK    5  A    between atoms: C_10  and  N_11
REMARK    6  A    between atoms: N_11  and  S_12
REMARK    7  A    between atoms: S_12  and  C_15
REMARK    8  A    between atoms: C_20  and  N_21
REMARK                            x       y       z     vdW  Elec       q    Type
REMARK                         _______ _______ _______ _____ _____    ______ ____
ROOT
ATOM      1  S   UNL     1      -5.653  -5.016  -0.338  0.00  0.00    +0.060 S 
ATOM      2  O   UNL     1      -6.593  -5.394  -1.334  0.00  0.00    -0.153 OA
ATOM      3  O   UNL     1      -4.688  -5.921   0.181  0.00  0.00    -0.153 OA
ENDROOT
BRANCH   1   4
ATOM      4  C   UNL     1      -6.584  -4.429   1.038  0.00  0.00    +0.127 A 
ATOM      5  C   UNL     1      -6.318  -4.906   2.307  0.00  0.00    +0.050 A 
ATOM      6  C   UNL     1      -7.048  -4.445   3.388  0.00  0.00    +0.043 A 
ATOM      7  C   UNL     1      -8.048  -3.506   3.201  0.00  0.00    +0.022 A 
ATOM      8  C   UNL     1      -8.319  -3.027   1.935  0.00  0.00    +0.026 A 
ATOM      9  C   UNL     1      -7.582  -3.483   0.848  0.00  0.00    +0.051 A 
ATOM     10 CL   UNL     1      -6.711  -5.046   4.981  0.00  0.00    -0.083 Cl
BRANCH   9  11
ATOM     11  N   UNL     1      -7.850  -2.995  -0.433  0.00  0.00    -0.356 N 
ATOM     12  H   UNL     1      -7.281  -3.247  -1.177  0.00  0.00    +0.142 HD
ATOM     13  H   UNL     1      -8.605  -2.404  -0.579  0.00  0.00    +0.142 HD
ENDBRANCH   9  11
ENDBRANCH   1   4
BRANCH   1  14
ATOM     14  N   UNL     1      -4.812  -3.726  -0.946  0.00  0.00    -0.190 NA
ATOM     15  H   UNL     1      -5.005  -3.398  -1.839  0.00  0.00    +0.148 HD
BRANCH  14  16
ATOM     16  C   UNL     1      -3.776  -3.079  -0.137  0.00  0.00    +0.107 C 
BRANCH  16  20
ATOM     17  N   UNL     1      -1.982  -0.081  -0.273  0.00  0.00    +0.381 N 
ATOM     18  C   UNL     1      -2.737   0.172  -1.527  0.00  0.00    -0.078 C 
ATOM     19  C   UNL     1      -3.739  -1.009  -1.581  0.00  0.00    -0.016 C 
ATOM     20  C   UNL     1      -2.909  -2.192  -1.032  0.00  0.00    -0.014 C 
ATOM     21  C   UNL     1      -1.778  -1.544  -0.212  0.00  0.00    -0.074 C 
ATOM     22  H   UNL     1      -2.517   0.229   0.525  0.00  0.00    -0.081 HD
BRANCH  17  24
ATOM     23  C   UNL     1      -0.916   2.122  -0.375  0.00  0.00    -0.014 C 
ATOM     24  C   UNL     1      -0.686   0.610  -0.313  0.00  0.00    -0.075 C 
ATOM     25  C   UNL     1       0.114   0.267   0.944  0.00  0.00    -0.014 C 
ENDBRANCH  17  24
ENDBRANCH  16  20
ENDBRANCH  14  16
ENDBRANCH   1  14
TORSDOF 6
