REMARK  Name = ZINC62497149
REMARK  7 active torsions:
REMARK  status: ('A' for Active; 'I' for Inactive)
REMARK    1  A    between atoms: C_1  and  C_2
REMARK    2  A    between atoms: C_9  and  C_15
REMARK    3  A    between atoms: N_13  and  C_14
REMARK    4  A    between atoms: C_15  and  C_16
REMARK    5  A    between atoms: C_19  and  O_23
REMARK    6  A    between atoms: C_20  and  N_22
REMARK    7  A    between atoms: O_23  and  C_24
REMARK                            x       y       z     vdW  Elec       q    Type
REMARK                         _______ _______ _______ _____ _____    ______ ____
ROOT
ATOM      1  C   UNL     1      -0.018   1.503   0.010  0.00  0.00    +0.044 C 
ATOM      2  C   UNL     1       0.002  -0.004   0.002  0.00  0.00    -0.047 A 
ATOM      3  C   UNL     1       0.006  -0.686  -1.201  0.00  0.00    +0.005 A 
ATOM      4  C   UNL     1       0.018  -2.069  -1.215  0.00  0.00    +0.027 A 
ATOM      5  C   UNL     1       0.022  -2.772  -0.022  0.00  0.00    +0.078 A 
ATOM      6  C   UNL     1       0.034  -2.084   1.190  0.00  0.00    +0.143 A 
ATOM      7  C   UNL     1       0.023  -0.700   1.197  0.00  0.00    +0.051 A 
ATOM      8  O   UNL     1       0.081  -2.778   2.359  0.00  0.00    -0.477 OA
ATOM      9  C   UNL     1      -0.560  -4.055   2.381  0.00  0.00    +0.263 C 
ATOM     10  C   UNL     1      -0.189  -4.830   1.141  0.00  0.00    +0.261 C 
ATOM     11  O   UNL     1      -0.086  -6.038   1.186  0.00  0.00    -0.271 OA
ATOM     12  N   UNL     1       0.028  -4.173  -0.018  0.00  0.00    -0.268 N 
ATOM     13  C   UNL     1       0.267  -4.917  -1.257  0.00  0.00    +0.138 C 
ENDROOT
BRANCH   9  14
ATOM     14  C   UNL     1      -2.077  -3.863   2.426  0.00  0.00    +0.089 C 
BRANCH  14  15
ATOM     15  C   UNL     1      -2.462  -3.201   3.724  0.00  0.00    -0.041 A 
ATOM     16  C   UNL     1      -2.753  -3.974   4.832  0.00  0.00    +0.007 A 
ATOM     17  C   UNL     1      -3.106  -3.373   6.026  0.00  0.00    +0.048 A 
ATOM     18  C   UNL     1      -3.168  -1.992   6.114  0.00  0.00    +0.141 A 
ATOM     19  C   UNL     1      -2.875  -1.212   4.998  0.00  0.00    +0.067 A 
ATOM     20  C   UNL     1      -2.516  -1.822   3.805  0.00  0.00    +0.030 A 
BRANCH  19  21
ATOM     21  N   UNL     1      -2.936   0.184   5.081  0.00  0.00    -0.355 N 
ATOM     22  H   UNL     1      -3.184   0.610   5.917  0.00  0.00    +0.142 HD
ATOM     23  H   UNL     1      -2.731   0.726   4.303  0.00  0.00    +0.142 HD
ENDBRANCH  19  21
BRANCH  18  24
ATOM     24  O   UNL     1      -3.516  -1.398   7.288  0.00  0.00    -0.493 OA
ATOM     25  C   UNL     1      -3.804  -2.261   8.390  0.00  0.00    +0.277 C 
ENDBRANCH  18  24
ENDBRANCH  14  15
ENDBRANCH   9  14
TORSDOF 4
