REMARK  Name = ZINC04064920
REMARK  7 active torsions:
REMARK  status: ('A' for Active; 'I' for Inactive)
REMARK    1  A    between atoms: C_1  and  C_2
REMARK    2  A    between atoms: N_4  and  N_5
REMARK    3  A    between atoms: C_11  and  C_33
REMARK    4  A    between atoms: C_22  and  C_32
REMARK    5  A    between atoms: C_25  and  O_28
REMARK    6  A    between atoms: O_28  and  C_29
REMARK    7  A    between atoms: C_29  and  C_31
REMARK                            x       y       z     vdW  Elec       q    Type
REMARK                         _______ _______ _______ _____ _____    ______ ____
ROOT
ATOM      1  N   UNL     1      -2.708   1.572   3.465  0.00  0.00    -0.189 NA
ATOM      2  C   UNL     1      -3.054   1.625   2.242  0.00  0.00    +0.043 C 
ATOM      3  C   UNL     1      -4.457   1.530   1.650  0.00  0.00    +0.053 C 
ATOM      4  C   UNL     1      -4.281   1.262   0.130  0.00  0.00    +0.010 C 
ATOM      5  C   UNL     1      -2.807   0.837   0.035  0.00  0.00    +0.004 C 
ATOM      6  C   UNL     1      -2.143   1.801   1.038  0.00  0.00    +0.011 C 
ATOM      7  C   UNL     1      -0.703   1.425   1.282  0.00  0.00    +0.013 C 
ATOM      8  C   UNL     1      -0.044   0.891   0.003  0.00  0.00    +0.005 C 
ATOM      9  C   UNL     1      -0.745   1.413  -1.243  0.00  0.00    -0.001 C 
ATOM     10  C   UNL     1      -2.170   0.869  -1.318  0.00  0.00    -0.003 C 
ATOM     11  C   UNL     1      -2.975   1.609  -2.379  0.00  0.00    +0.004 C 
ATOM     12  C   UNL     1      -2.128   1.737  -3.656  0.00  0.00    +0.004 C 
ATOM     13  C   UNL     1      -1.019   0.698  -3.609  0.00  0.00    -0.001 C 
ATOM     14  C   UNL     1       0.003   1.048  -2.523  0.00  0.00    -0.026 C 
ATOM     15  C   UNL     1       0.950  -0.132  -2.346  0.00  0.00    +0.011 C 
ATOM     16  C   UNL     1       1.667  -0.419  -3.668  0.00  0.00    +0.045 C 
ATOM     17  C   UNL     1       0.676  -0.657  -4.802  0.00  0.00    +0.177 C 
ATOM     18  C   UNL     1      -0.303   0.515  -4.940  0.00  0.00    +0.048 C 
ATOM     19  C   UNL     1       0.811   2.282  -2.937  0.00  0.00    +0.012 C 
ATOM     20  C   UNL     1      -2.260   3.265   0.610  0.00  0.00    +0.018 C 
ENDROOT
BRANCH   1  24
ATOM     21  C   UNL     1       0.438   1.971   5.500  0.00  0.00    +0.111 C 
ATOM     22  C   UNL     1      -0.987   1.677   5.107  0.00  0.00    +0.229 C 
ATOM     23  O   UNL     1      -1.778   1.289   5.941  0.00  0.00    -0.274 OA
ATOM     24  N   UNL     1      -1.383   1.845   3.830  0.00  0.00    -0.207 N 
ATOM     25  H   UNL     1      -0.750   2.156   3.163  0.00  0.00    +0.177 HD
ENDBRANCH   1  24
BRANCH  17  26
ATOM     26  O   UNL     1       1.403  -0.819  -6.050  0.00  0.00    -0.462 OA
BRANCH  26  27
ATOM     27  C   UNL     1       1.806  -2.060  -6.364  0.00  0.00    +0.304 C 
ATOM     28  O   UNL     1       1.561  -2.981  -5.621  0.00  0.00    -0.251 OA
ATOM     29  C   UNL     1       2.566  -2.305  -7.642  0.00  0.00    +0.136 C 
ENDBRANCH  26  27
ENDBRANCH  17  26
TORSDOF 3
