REMARK  Name = ZINC59352962
REMARK  6 active torsions:
REMARK  status: ('A' for Active; 'I' for Inactive)
REMARK    1  A    between atoms: C_1  and  C_2
REMARK    2  A    between atoms: C_2  and  C_3
REMARK    3  A    between atoms: C_2  and  C_4
REMARK    4  A    between atoms: C_9  and  C_13
REMARK    5  A    between atoms: C_17  and  N_23
REMARK    6  A    between atoms: N_21  and  C_22
REMARK                            x       y       z     vdW  Elec       q    Type
REMARK                         _______ _______ _______ _____ _____    ______ ____
ROOT
ATOM      1  C   UNL     1       0.924  -1.461  -0.962  0.00  0.00    +0.111 A 
ATOM      2  N   UNL     1       2.141  -1.902  -1.098  0.00  0.00    -0.232 NA
ATOM      3  C   UNL     1       2.408  -2.110  -2.412  0.00  0.00    +0.089 A 
ATOM      4  C   UNL     1       3.535  -2.567  -3.103  0.00  0.00    +0.030 A 
ATOM      5  C   UNL     1       3.507  -2.674  -4.461  0.00  0.00    +0.014 A 
ATOM      6  C   UNL     1       2.353  -2.329  -5.178  0.00  0.00    +0.020 A 
ATOM      7  C   UNL     1       1.222  -1.873  -4.505  0.00  0.00    +0.039 A 
ATOM      8  C   UNL     1       1.246  -1.763  -3.125  0.00  0.00    +0.067 A 
ATOM      9  N   UNL     1       0.324  -1.361  -2.178  0.00  0.00    -0.342 N 
ATOM     10  H   UNL     1      -0.583  -1.061  -2.349  0.00  0.00    +0.167 HD
ENDROOT
BRANCH   6  11
ATOM     11  C   UNL     1       2.337  -2.450  -6.651  0.00  0.00    +0.142 A 
ATOM     12  N   UNL     1       1.271  -2.690  -7.376  0.00  0.00    -0.227 NA
ATOM     13  C   UNL     1       1.612  -2.736  -8.687  0.00  0.00    +0.091 A 
ATOM     14  C   UNL     1       0.882  -2.954  -9.860  0.00  0.00    +0.052 A 
ATOM     15  C   UNL     1       1.530  -2.941 -11.081  0.00  0.00    +0.027 A 
ATOM     16  C   UNL     1       2.903  -2.713 -11.149  0.00  0.00    +0.025 A 
ATOM     17  C   UNL     1       3.631  -2.497  -9.999  0.00  0.00    +0.030 A 
ATOM     18  C   UNL     1       2.996  -2.505  -8.765  0.00  0.00    +0.069 A 
ATOM     19  N   UNL     1       3.430  -2.323  -7.463  0.00  0.00    -0.327 N 
ATOM     20  C   UNL     1       4.804  -2.047  -7.036  0.00  0.00    +0.151 C 
BRANCH  15  21
ATOM     21  N   UNL     1       0.802  -3.159 -12.256  0.00  0.00    -0.358 N 
ATOM     22  H   UNL     1      -0.153  -3.319 -12.213  0.00  0.00    +0.142 HD
ATOM     23  H   UNL     1       1.254  -3.151 -13.115  0.00  0.00    +0.142 HD
ENDBRANCH  15  21
ENDBRANCH   6  11
BRANCH   1  25
ATOM     24  C   UNL     1       0.415   0.382   0.617  0.00  0.00    +0.015 C 
ATOM     25  C   UNL     1       0.272  -1.118   0.353  0.00  0.00    +0.049 C 
ATOM     26  C   UNL     1      -1.212  -1.487   0.298  0.00  0.00    +0.015 C 
ENDBRANCH   1  25
TORSDOF 3
