REMARK  Name = ZINC14267000
REMARK  6 active torsions:
REMARK  status: ('A' for Active; 'I' for Inactive)
REMARK    1  A    between atoms: C_6  and  N_7
REMARK    2  A    between atoms: C_8  and  C_10
REMARK    3  A    between atoms: C_10  and  C_11
REMARK    4  A    between atoms: C_11  and  C_12
REMARK    5  A    between atoms: C_12  and  N_13
REMARK    6  A    between atoms: C_14  and  C_16
REMARK                            x       y       z     vdW  Elec       q    Type
REMARK                         _______ _______ _______ _____ _____    ______ ____
ROOT
ATOM      1  C   UNL     1      -8.671   0.806   2.346  0.00  0.00    +0.097 C 
ENDROOT
BRANCH   1   3
ATOM      2  N   UNL     1     -10.658   0.942   3.813  0.00  0.00    -0.285 N 
ATOM      3  C   UNL     1      -9.373   1.285   3.590  0.00  0.00    +0.217 C 
ATOM      4  O   UNL     1      -8.783   1.978   4.391  0.00  0.00    -0.275 OA
ATOM      5  H   UNL     1     -11.150   0.444   3.142  0.00  0.00    +0.155 HD
BRANCH   2  11
ATOM      6  C   UNL     1     -12.217   0.457   5.594  0.00  0.00    +0.025 A 
ATOM      7  C   UNL     1     -12.830   0.806   6.780  0.00  0.00    +0.029 A 
ATOM      8  C   UNL     1     -12.522   2.013   7.389  0.00  0.00    +0.067 A 
ATOM      9  C   UNL     1     -11.586   2.870   6.806  0.00  0.00    +0.069 A 
ATOM     10  C   UNL     1     -10.968   2.514   5.618  0.00  0.00    +0.051 A 
ATOM     11  C   UNL     1     -11.281   1.305   5.014  0.00  0.00    +0.035 A 
ATOM     12  N   UNL     1     -11.489   3.985   7.636  0.00  0.00    -0.306 N 
ATOM     13  H   UNL     1     -10.915   4.753   7.490  0.00  0.00    +0.170 HD
ATOM     14  C   UNL     1     -12.326   3.814   8.677  0.00  0.00    +0.325 A 
ATOM     15  O   UNL     1     -12.482   4.606   9.587  0.00  0.00    -0.247 OA
ATOM     16  N   UNL     1     -12.964   2.634   8.557  0.00  0.00    -0.306 N 
ATOM     17  H   UNL     1     -13.618   2.277   9.177  0.00  0.00    +0.170 HD
ENDBRANCH   2  11
ENDBRANCH   1   3
BRANCH   1  18
ATOM     18  C   UNL     1      -7.234   1.332   2.337  0.00  0.00    +0.028 C 
BRANCH  18  19
ATOM     19  C   UNL     1      -6.521   0.845   1.074  0.00  0.00    +0.104 C 
BRANCH  19  20
ATOM     20  N   UNL     1      -5.145   1.349   1.065  0.00  0.00    -0.315 N 
ATOM     21  C   UNL     1      -4.322   1.045   0.042  0.00  0.00    +0.219 C 
ATOM     22  O   UNL     1      -4.721   0.355  -0.873  0.00  0.00    -0.275 OA
ATOM     23  H   UNL     1      -4.826   1.901   1.796  0.00  0.00    +0.149 HD
BRANCH  21  24
ATOM     24  C   UNL     1      -2.907   1.563   0.033  0.00  0.00    +0.048 C 
ATOM     25  C   UNL     1      -2.194   1.077  -1.230  0.00  0.00    +0.019 C 
ATOM     26  C   UNL     1      -0.757   1.603  -1.239  0.00  0.00    -0.009 C 
ATOM     27  C   UNL     1      -0.017   1.085  -0.004  0.00  0.00    +0.007 C 
ATOM     28  C   UNL     1      -0.730   1.571   1.259  0.00  0.00    -0.009 C 
ATOM     29  C   UNL     1      -2.167   1.046   1.268  0.00  0.00    +0.019 C 
ATOM     30  C   UNL     1      -0.747   3.101   1.278  0.00  0.00    +0.007 C 
ATOM     31  C   UNL     1      -1.487   3.619   0.043  0.00  0.00    -0.009 C 
ATOM     32  C   UNL     1      -0.774   3.133  -1.220  0.00  0.00    +0.007 C 
ATOM     33  C   UNL     1      -2.924   3.093   0.052  0.00  0.00    +0.019 C 
ENDBRANCH  21  24
ENDBRANCH  19  20
ENDBRANCH  18  19
ENDBRANCH   1  18
TORSDOF 6
