REMARK  Name = ZINC40895611
REMARK  10 active torsions:
REMARK  status: ('A' for Active; 'I' for Inactive)
REMARK    1  A    between atoms: C_1  and  C_2
REMARK    2  A    between atoms: C_2  and  C_3
REMARK    3  A    between atoms: C_2  and  N_4
REMARK    4  A    between atoms: N_7  and  C_8
REMARK    5  A    between atoms: C_11  and  C_14
REMARK    6  A    between atoms: C_17  and  C_20
REMARK    7  A    between atoms: C_23  and  N_26
REMARK    8  A    between atoms: N_29  and  C_30
REMARK    9  A    between atoms: C_30  and  C_31
REMARK   10  A    between atoms: C_30  and  C_32
REMARK                            x       y       z     vdW  Elec       q    Type
REMARK                         _______ _______ _______ _____ _____    ______ ____
ROOT
ATOM      1  C   UNL     1      -3.722  -7.685  -1.785  0.00  0.00    +0.000 A 
ATOM      2  C   UNL     1      -4.266  -8.312  -0.664  0.00  0.00    +0.010 A 
ATOM      3  C   UNL     1      -4.953  -9.498  -0.803  0.00  0.00    +0.010 A 
ATOM      4  C   UNL     1      -5.105 -10.072  -2.066  0.00  0.00    +0.000 A 
ATOM      5  C   UNL     1      -4.561  -9.445  -3.187  0.00  0.00    +0.010 A 
ATOM      6  C   UNL     1      -3.879  -8.256  -3.049  0.00  0.00    +0.010 A 
ENDROOT
BRANCH   1  10
ATOM      7  C   UNL     1      -1.617  -4.061  -1.391  0.00  0.00    +0.086 A 
ATOM      8  C   UNL     1      -2.141  -4.659  -0.236  0.00  0.00    +0.031 A 
ATOM      9  C   UNL     1      -2.831  -5.847  -0.368  0.00  0.00    +0.030 A 
ATOM     10  C   UNL     1      -2.983  -6.410  -1.635  0.00  0.00    +0.071 A 
ATOM     11  N   UNL     1      -2.473  -5.818  -2.709  0.00  0.00    -0.253 NA
ATOM     12  C   UNL     1      -1.814  -4.683  -2.627  0.00  0.00    +0.139 A 
BRANCH   7  16
ATOM     13  N   UNL     1       0.669  -1.544  -0.274  0.00  0.00    -0.354 N 
ATOM     14  C   UNL     1       0.075  -2.765  -0.467  0.00  0.00    +0.196 C 
ATOM     15  N   UNL     1       0.527  -3.864   0.219  0.00  0.00    -0.370 N 
ATOM     16  N   UNL     1      -0.926  -2.883  -1.309  0.00  0.00    -0.214 NA
ATOM     17  H   UNL     1       0.350  -0.767  -0.759  0.00  0.00    +0.163 HD
ATOM     18  H   UNL     1       1.177  -3.758   0.932  0.00  0.00    +0.159 HD
ATOM     19  H   UNL     1       0.197  -4.747  -0.009  0.00  0.00    +0.159 HD
BRANCH  13  21
ATOM     20  C   UNL     1       2.646  -0.210   0.271  0.00  0.00    +0.030 C 
ATOM     21  C   UNL     1       1.786  -1.413   0.665  0.00  0.00    +0.076 C 
ATOM     22  C   UNL     1       1.241  -1.208   2.080  0.00  0.00    +0.030 C 
ENDBRANCH  13  21
ENDBRANCH   7  16
ENDBRANCH   1  10
BRANCH   4  23
ATOM     23  C   UNL     1      -5.844 -11.347  -2.216  0.00  0.00    +0.071 A 
ATOM     24  C   UNL     1      -5.987 -11.918  -3.480  0.00  0.00    +0.030 A 
ATOM     25  C   UNL     1      -6.678 -13.108  -3.608  0.00  0.00    +0.029 A 
ATOM     26  C   UNL     1      -7.208 -13.695  -2.460  0.00  0.00    +0.060 A 
ATOM     27  C   UNL     1      -7.027 -13.069  -1.232  0.00  0.00    +0.137 A 
ATOM     28  N   UNL     1      -6.359 -11.938  -1.144  0.00  0.00    -0.253 NA
BRANCH  26  29
ATOM     29  N   UNL     1      -7.915 -14.898  -2.542  0.00  0.00    -0.327 N 
ATOM     30  C   UNL     1      -8.763 -15.127  -3.602  0.00  0.00    +0.173 C 
ATOM     31  N   UNL     1      -9.326 -16.294  -3.746  0.00  0.00    -0.371 N 
ATOM     32  N   UNL     1      -9.015 -14.125  -4.510  0.00  0.00    -0.355 N 
ATOM     33  H   UNL     1      -7.808 -15.572  -1.853  0.00  0.00    +0.169 HD
ATOM     34  H   UNL     1      -9.877 -16.474  -4.524  0.00  0.00    +0.159 HD
ATOM     35  H   UNL     1      -8.596 -13.257  -4.402  0.00  0.00    +0.163 HD
ATOM     36  H   UNL     1      -9.195 -16.981  -3.075  0.00  0.00    +0.159 HD
BRANCH  32  37
ATOM     37  C   UNL     1      -9.918 -14.368  -5.638  0.00  0.00    +0.076 C 
ATOM     38  C   UNL     1     -11.363 -14.132  -5.195  0.00  0.00    +0.030 C 
ATOM     39  C   UNL     1      -9.572 -13.414  -6.782  0.00  0.00    +0.030 C 
ENDBRANCH  32  37
ENDBRANCH  26  29
ENDBRANCH   4  23
TORSDOF 6
