REMARK  Name = ZINC06078958
REMARK  4 active torsions:
REMARK  status: ('A' for Active; 'I' for Inactive)
REMARK    1  A    between atoms: C_1  and  C_2
REMARK    2  A    between atoms: C_8  and  N_10
REMARK    3  A    between atoms: C_11  and  C_13
REMARK    4  A    between atoms: C_13  and  N_14
REMARK                            x       y       z     vdW  Elec       q    Type
REMARK                         _______ _______ _______ _____ _____    ______ ____
ROOT
ATOM      1  N   UNL     1       0.002  -0.004   0.002  0.00  0.00    -0.215 N 
ATOM      2  C   UNL     1       1.263  -0.484  -0.013  0.00  0.00    +0.247 C 
ATOM      3  O   UNL     1       1.607  -1.647  -0.022  0.00  0.00    -0.273 OA
ATOM      4  C   UNL     1       2.157   0.734  -0.017  0.00  0.00    +0.117 C 
ATOM      5  C   UNL     1       3.012   0.764  -1.282  0.00  0.00    +0.040 C 
ATOM      6  C   UNL     1       3.689   2.130  -1.378  0.00  0.00    +0.038 C 
ATOM      7  C   UNL     1       4.380   2.472  -0.083  0.00  0.00    -0.044 A 
ATOM      8  C   UNL     1       5.348   3.469  -0.112  0.00  0.00    +0.004 A 
ATOM      9  C   UNL     1       6.007   3.840   1.041  0.00  0.00    +0.000 A 
ATOM     10  C   UNL     1       5.704   3.216   2.236  0.00  0.00    +0.000 A 
ATOM     11  C   UNL     1       4.745   2.224   2.267  0.00  0.00    +0.004 A 
ATOM     12  C   UNL     1       4.082   1.847   1.106  0.00  0.00    -0.042 A 
ATOM     13  C   UNL     1       3.053   0.750   1.211  0.00  0.00    +0.070 C 
ATOM     14  N   UNL     1       1.222   1.865   0.000  0.00  0.00    -0.285 N 
ATOM     15  C   UNL     1      -0.016   1.335   0.009  0.00  0.00    +0.310 C 
ATOM     16  O   UNL     1      -1.035   1.997   0.018  0.00  0.00    -0.252 OA
ATOM     17  H   UNL     1       1.450   2.808   0.004  0.00  0.00    +0.151 HD
ENDROOT
BRANCH   1  18
ATOM     18  C   UNL     1      -1.198  -0.844   0.010  0.00  0.00    +0.213 C 
BRANCH  18  20
ATOM     19  N   UNL     1      -2.712  -1.883  -1.647  0.00  0.00    -0.311 N 
ATOM     20  C   UNL     1      -1.624  -1.125  -1.408  0.00  0.00    +0.231 C 
ATOM     21  O   UNL     1      -0.988  -0.668  -2.334  0.00  0.00    -0.274 OA
ATOM     22  H   UNL     1      -3.221  -2.248  -0.906  0.00  0.00    +0.149 HD
BRANCH  19  29
ATOM     23  C   UNL     1      -3.056  -4.610  -2.561  0.00  0.00    +0.009 C 
ATOM     24  C   UNL     1      -3.927  -3.459  -3.069  0.00  0.00    +0.006 C 
ATOM     25  C   UNL     1      -4.359  -3.745  -4.509  0.00  0.00    +0.005 C 
ATOM     26  C   UNL     1      -5.230  -2.594  -5.017  0.00  0.00    +0.000 C 
ATOM     27  C   UNL     1      -4.430  -1.291  -4.973  0.00  0.00    +0.002 C 
ATOM     28  C   UNL     1      -3.998  -1.006  -3.534  0.00  0.00    +0.022 C 
ATOM     29  C   UNL     1      -3.127  -2.156  -3.026  0.00  0.00    +0.076 C 
ENDBRANCH  19  29
ENDBRANCH  18  20
ENDBRANCH   1  18
TORSDOF 3
