REMARK  Name = ZINC17093870
REMARK  5 active torsions:
REMARK  status: ('A' for Active; 'I' for Inactive)
REMARK    1  A    between atoms: C_1  and  C_2
REMARK    2  A    between atoms: C_5  and  C_8
REMARK    3  A    between atoms: C_22  and  N_33
REMARK    4  A    between atoms: C_23  and  C_24
REMARK    5  A    between atoms: N_26  and  C_27
REMARK                            x       y       z     vdW  Elec       q    Type
REMARK                         _______ _______ _______ _____ _____    ______ ____
ROOT
ATOM      1  C   UNL     1      -1.517   7.490   0.386  0.00  0.00    +0.100 C 
ATOM      2  C   UNL     1      -1.463   5.986   0.351  0.00  0.00    +0.092 A 
ATOM      3  C   UNL     1      -0.283   5.339   0.135  0.00  0.00    +0.152 A 
ATOM      4  C   UNL     1      -0.291   3.868   0.112  0.00  0.00    +0.060 A 
ATOM      5  C   UNL     1       0.883   3.144  -0.107  0.00  0.00    +0.015 A 
ATOM      6  C   UNL     1       0.840   1.768  -0.124  0.00  0.00    +0.001 A 
ATOM      7  C   UNL     1      -0.360   1.102   0.075  0.00  0.00    +0.004 A 
ATOM      8  C   UNL     1      -1.528   1.804   0.286  0.00  0.00    +0.047 A 
ATOM      9  C   UNL     1      -1.506   3.193   0.313  0.00  0.00    +0.143 A 
ATOM     10  O   UNL     1      -2.638   3.898   0.522  0.00  0.00    -0.422 OA
ATOM     11  C   UNL     1      -2.639   5.240   0.544  0.00  0.00    +0.345 A 
ATOM     12  O   UNL     1      -3.689   5.829   0.735  0.00  0.00    -0.245 OA
ATOM     13  O   UNL     1       0.867   6.013  -0.053  0.00  0.00    -0.441 OA
ATOM     14  C   UNL     1       0.836   7.308  -0.410  0.00  0.00    +0.193 C 
ATOM     15  C   UNL     1      -0.273   8.068  -0.228  0.00  0.00    +0.084 C 
ENDROOT
BRANCH   1  20
ATOM     16  C   UNL     1      -1.950   9.262   5.869  0.00  0.00    +0.044 C 
ATOM     17  C   UNL     1      -1.837   8.800   4.439  0.00  0.00    -0.050 A 
ATOM     18  C   UNL     1      -2.825   9.123   3.529  0.00  0.00    +0.003 A 
ATOM     19  C   UNL     1      -2.722   8.698   2.217  0.00  0.00    +0.005 A 
ATOM     20  C   UNL     1      -1.629   7.952   1.816  0.00  0.00    -0.035 A 
ATOM     21  C   UNL     1      -0.643   7.626   2.728  0.00  0.00    +0.005 A 
ATOM     22  C   UNL     1      -0.744   8.055   4.038  0.00  0.00    +0.003 A 
ENDBRANCH   1  20
BRANCH  15  23
ATOM     23  C   UNL     1      -0.258   9.418  -0.619  0.00  0.00    +0.250 C 
ATOM     24  O   UNL     1      -0.793   9.757  -1.660  0.00  0.00    -0.270 OA
ATOM     25  N   UNL     1       0.349  10.338   0.157  0.00  0.00    -0.282 N 
ATOM     26  H   UNL     1       0.831  10.060   0.952  0.00  0.00    +0.155 HD
BRANCH  25  27
ATOM     27  C   UNL     1       0.282  11.693  -0.182  0.00  0.00    +0.034 A 
ATOM     28  C   UNL     1       0.307  12.078  -1.516  0.00  0.00    +0.023 A 
ATOM     29  C   UNL     1       0.236  13.417  -1.849  0.00  0.00    +0.002 A 
ATOM     30  C   UNL     1       0.152  14.374  -0.854  0.00  0.00    +0.000 A 
ATOM     31  C   UNL     1       0.133  13.994   0.475  0.00  0.00    +0.002 A 
ATOM     32  C   UNL     1       0.198  12.657   0.814  0.00  0.00    +0.023 A 
ENDBRANCH  25  27
ENDBRANCH  15  23
BRANCH  14  33
ATOM     33  N   UNL     1       1.950   7.874  -0.973  0.00  0.00    -0.329 N 
ATOM     34  H   UNL     1       1.914   8.782  -1.312  0.00  0.00    +0.145 HD
ATOM     35  H   UNL     1       2.775   7.367  -1.031  0.00  0.00    +0.145 HD
ENDBRANCH  14  33
TORSDOF 4
