REMARK  Name = ZINC33212327
REMARK  5 active torsions:
REMARK  status: ('A' for Active; 'I' for Inactive)
REMARK    1  A    between atoms: C_1  and  C_2
REMARK    2  A    between atoms: C_5  and  C_8
REMARK    3  A    between atoms: C_10  and  C_13
REMARK    4  A    between atoms: C_20  and  C_22
REMARK    5  A    between atoms: N_24  and  C_25
REMARK                            x       y       z     vdW  Elec       q    Type
REMARK                         _______ _______ _______ _____ _____    ______ ____
ROOT
ATOM      1  C   UNL     1       1.788  -7.727   2.278  0.00  0.00    +0.266 C 
ATOM      2  O   UNL     1       1.538  -8.886   2.011  0.00  0.00    -0.268 OA
ATOM      3  N   UNL     1       1.177  -7.127   3.319  0.00  0.00    -0.285 N 
ATOM      4  C   UNL     1       1.348  -5.688   3.560  0.00  0.00    +0.109 C 
ATOM      5  C   UNL     1      -0.035  -5.037   3.656  0.00  0.00    +0.019 C 
ATOM      6  C   UNL     1      -0.862  -5.759   4.723  0.00  0.00    +0.004 C 
ATOM      7  C   UNL     1      -1.045  -7.224   4.323  0.00  0.00    +0.032 C 
ATOM      8  C   UNL     1       0.322  -7.899   4.231  0.00  0.00    +0.162 C 
ENDROOT
BRANCH   1  11
ATOM      9  C   UNL     1       4.135  -5.194   1.142  0.00  0.00    +0.109 A 
ATOM     10  N   UNL     1       3.266  -5.833   1.904  0.00  0.00    -0.234 NA
ATOM     11  C   UNL     1       2.760  -6.977   1.464  0.00  0.00    +0.133 A 
ATOM     12  C   UNL     1       3.154  -7.452   0.241  0.00  0.00    +0.080 A 
ATOM     13  S   UNL     1       4.233  -6.269  -0.278  0.00  0.00    -0.075 S 
BRANCH   9  18
ATOM     14  C   UNL     1       6.867  -0.227   2.132  0.00  0.00    +0.044 C 
ATOM     15  C   UNL     1       6.152  -1.528   1.873  0.00  0.00    -0.050 A 
ATOM     16  C   UNL     1       6.374  -2.212   0.692  0.00  0.00    +0.004 A 
ATOM     17  C   UNL     1       5.722  -3.404   0.449  0.00  0.00    +0.011 A 
ATOM     18  C   UNL     1       4.838  -3.918   1.397  0.00  0.00    +0.007 A 
ATOM     19  C   UNL     1       4.618  -3.222   2.586  0.00  0.00    +0.011 A 
ATOM     20  C   UNL     1       5.280  -2.034   2.820  0.00  0.00    +0.004 A 
ENDBRANCH   9  18
ENDBRANCH   1  11
BRANCH   8  21
ATOM     21  C   UNL     1       0.156  -9.301   3.702  0.00  0.00    +0.233 C 
ATOM     22  O   UNL     1      -0.309  -9.481   2.597  0.00  0.00    -0.274 OA
ATOM     23  N   UNL     1       0.525 -10.354   4.458  0.00  0.00    -0.317 N 
ATOM     24  C   UNL     1       0.364 -11.717   3.944  0.00  0.00    +0.128 C 
ATOM     25  H   UNL     1       0.898 -10.210   5.342  0.00  0.00    +0.148 HD
ENDBRANCH   8  21
TORSDOF 3
