REMARK  Name = ZINC40681520
REMARK  8 active torsions:
REMARK  status: ('A' for Active; 'I' for Inactive)
REMARK    1  A    between atoms: C_1  and  C_2
REMARK    2  A    between atoms: C_4  and  C_27
REMARK    3  A    between atoms: C_6  and  O_8
REMARK    4  A    between atoms: O_8  and  C_9
REMARK    5  A    between atoms: C_10  and  N_26
REMARK    6  A    between atoms: C_11  and  N_15
REMARK    7  A    between atoms: N_15  and  N_16
REMARK    8  A    between atoms: C_17  and  C_19
REMARK                            x       y       z     vdW  Elec       q    Type
REMARK                         _______ _______ _______ _____ _____    ______ ____
ROOT
ATOM      1  C   UNL     1       0.150  -2.067   3.511  0.00  0.00    +0.246 A 
ATOM      2  C   UNL     1       0.280  -2.722   4.735  0.00  0.00    +0.129 A 
ATOM      3  C   UNL     1       0.379  -1.945   5.892  0.00  0.00    +0.163 A 
ATOM      4  N   UNL     1       0.347  -0.620   5.782  0.00  0.00    -0.217 NA
ATOM      5  C   UNL     1       0.223  -0.041   4.605  0.00  0.00    +0.227 A 
ATOM      6  N   UNL     1       0.132  -0.738   3.490  0.00  0.00    -0.199 NA
ENDROOT
BRANCH   2   7
ATOM      7  N   UNL     1       0.309  -4.124   4.803  0.00  0.00    -0.351 N 
ATOM      8  H   UNL     1       0.239  -4.650   3.991  0.00  0.00    +0.143 HD
ATOM      9  H   UNL     1       0.400  -4.566   5.662  0.00  0.00    +0.143 HD
ENDBRANCH   2   7
BRANCH   3  10
ATOM     10  N   UNL     1       0.510  -2.547   7.137  0.00  0.00    -0.246 N 
ATOM     11  H   UNL     1       0.532  -3.514   7.208  0.00  0.00    +0.172 HD
BRANCH  10  12
ATOM     12  N   UNL     1       0.609  -1.758   8.290  0.00  0.00    -0.231 N 
ATOM     13  C   UNL     1       0.735  -2.342   9.498  0.00  0.00    +0.261 C 
ATOM     14  O   UNL     1       0.764  -3.554   9.588  0.00  0.00    -0.269 OA
ATOM     15  H   UNL     1       0.586  -0.790   8.219  0.00  0.00    +0.173 HD
BRANCH  13  16
ATOM     16  C   UNL     1       0.840  -1.509  10.715  0.00  0.00    +0.052 A 
ATOM     17  C   UNL     1       0.801  -0.116  10.617  0.00  0.00    +0.014 A 
ATOM     18  C   UNL     1       0.899   0.655  11.755  0.00  0.00    +0.001 A 
ATOM     19  C   UNL     1       1.034   0.053  12.994  0.00  0.00    +0.001 A 
ATOM     20  C   UNL     1       1.073  -1.325  13.100  0.00  0.00    +0.016 A 
ATOM     21  C   UNL     1       0.971  -2.111  11.968  0.00  0.00    +0.030 A 
ATOM     22 BR   UNL     1       1.016  -3.995  12.114  0.00  0.00    -0.050 Br
ENDBRANCH  13  16
ENDBRANCH  10  12
ENDBRANCH   3  10
BRANCH   1  23
ATOM     23  O   UNL     1       0.050  -2.776   2.358  0.00  0.00    -0.436 OA
BRANCH  23  29
ATOM     24  C   UNL     1       2.470  -0.303  -1.084  0.00  0.00    +0.044 C 
ATOM     25  C   UNL     1       1.192  -0.869  -0.522  0.00  0.00    -0.047 A 
ATOM     26  C   UNL     1      -0.000  -0.687  -1.199  0.00  0.00    +0.007 A 
ATOM     27  C   UNL     1      -1.175  -1.205  -0.686  0.00  0.00    -0.047 A 
ATOM     28  C   UNL     1      -1.161  -1.905   0.505  0.00  0.00    +0.049 A 
ATOM     29  C   UNL     1       0.033  -2.088   1.187  0.00  0.00    +0.131 A 
ATOM     30  C   UNL     1       1.212  -1.573   0.666  0.00  0.00    +0.049 A 
ATOM     31  C   UNL     1      -2.473  -1.006  -1.427  0.00  0.00    +0.044 C 
ENDBRANCH  23  29
ENDBRANCH   1  23
TORSDOF 6
