REMARK  Name = ZINC04276919
REMARK  3 active torsions:
REMARK  status: ('A' for Active; 'I' for Inactive)
REMARK    1  A    between atoms: C_1  and  C_2
REMARK    2  A    between atoms: C_6  and  C_8
REMARK    3  A    between atoms: N_9  and  N_10
REMARK                            x       y       z     vdW  Elec       q    Type
REMARK                         _______ _______ _______ _____ _____    ______ ____
ROOT
ATOM      1  C   UNL     1       1.519   4.746   0.012  0.00  0.00    +0.159 C 
ATOM      2  N   UNL     1       2.808   4.592  -0.001  0.00  0.00    -0.187 NA
ENDROOT
BRANCH   2   3
ATOM      3  N   UNL     1       3.647   5.714  -0.004  0.00  0.00    -0.219 N 
ATOM      4  C   UNL     1       5.027   5.550  -0.018  0.00  0.00    +0.161 A 
ATOM      5  C   UNL     1       5.866   6.666  -0.027  0.00  0.00    +0.050 A 
ATOM      6  C   UNL     1       7.234   6.448  -0.036  0.00  0.00    +0.045 A 
ATOM      7  C   UNL     1       7.686   5.134  -0.046  0.00  0.00    +0.152 A 
ATOM      8  N   UNL     1       6.821   4.139  -0.042  0.00  0.00    -0.136 NA
ATOM      9  N   UNL     1       5.552   4.334  -0.029  0.00  0.00    -0.131 NA
ATOM     10 CL   UNL     1       9.390   4.803  -0.064  0.00  0.00    -0.060 Cl
ATOM     11  H   UNL     1       3.265   6.606   0.004  0.00  0.00    +0.176 HD
ENDBRANCH   2   3
BRANCH   1  17
ATOM     12  C   UNL     1       0.002  -0.004   0.002  0.00  0.00    +0.086 C 
ATOM     13  C   UNL     1      -0.018   1.503   0.010  0.00  0.00    +0.105 A 
ATOM     14  N   UNL     1      -1.133   2.276   0.019  0.00  0.00    -0.348 N 
ATOM     15  H   UNL     1      -2.079   1.950   0.020  0.00  0.00    +0.166 HD
ATOM     16  C   UNL     1      -0.727   3.580   0.027  0.00  0.00    +0.113 A 
ATOM     17  C   UNL     1       0.636   3.565   0.015  0.00  0.00    +0.101 A 
ATOM     18  N   UNL     1       1.032   2.274   0.004  0.00  0.00    -0.232 NA
ENDBRANCH   1  17
TORSDOF 2
