REMARK  Name = ZINC13241999
REMARK  8 active torsions:
REMARK  status: ('A' for Active; 'I' for Inactive)
REMARK    1  A    between atoms: C_1  and  C_2
REMARK    2  A    between atoms: C_12  and  S_14
REMARK    3  A    between atoms: S_14  and  C_15
REMARK    4  A    between atoms: C_15  and  C_16
REMARK    5  A    between atoms: N_18  and  C_19
REMARK    6  A    between atoms: C_21  and  O_28
REMARK    7  A    between atoms: C_22  and  C_26
REMARK    8  A    between atoms: O_28  and  C_29
REMARK                            x       y       z     vdW  Elec       q    Type
REMARK                         _______ _______ _______ _____ _____    ______ ____
ROOT
ATOM      1  C   UNL     1       4.237  -3.699  -0.063  0.00  0.00    +0.227 C 
ATOM      2  O   UNL     1       5.389  -3.321  -0.064  0.00  0.00    -0.275 OA
ATOM      3  N   UNL     1       3.960  -5.018  -0.066  0.00  0.00    -0.284 N 
ATOM      4  H   UNL     1       3.042  -5.321   0.016  0.00  0.00    +0.155 HD
ENDROOT
BRANCH   3   5
ATOM      5  C   UNL     1       4.993  -5.947  -0.187  0.00  0.00    +0.055 A 
ATOM      6  C   UNL     1       6.183  -5.582  -0.803  0.00  0.00    +0.071 A 
ATOM      7  C   UNL     1       7.210  -6.501  -0.925  0.00  0.00    +0.136 A 
ATOM      8  C   UNL     1       7.045  -7.802  -0.423  0.00  0.00    +0.106 A 
ATOM      9  C   UNL     1       5.843  -8.160   0.196  0.00  0.00    +0.040 A 
ATOM     10  C   UNL     1       4.830  -7.237   0.316  0.00  0.00    +0.063 A 
ATOM     11 CL   UNL     1       3.341  -7.681   1.091  0.00  0.00    -0.082 Cl
BRANCH   8  12
ATOM     12  C   UNL     1       8.133  -8.785  -0.548  0.00  0.00    +0.390 C 
ATOM     13  O   UNL     1       9.177  -8.471  -1.086  0.00  0.00    -0.240 OA
ATOM     14  O   UNL     1       7.972 -10.033  -0.065  0.00  0.00    -0.240 OA
ENDBRANCH   8  12
BRANCH   7  15
ATOM     15  O   UNL     1       8.373  -6.146  -1.527  0.00  0.00    -0.494 OA
ATOM     16  C   UNL     1       8.469  -4.806  -2.013  0.00  0.00    +0.277 C 
ENDBRANCH   7  15
ENDBRANCH   3   5
BRANCH   1  17
ATOM     17  C   UNL     1       3.114  -2.693  -0.058  0.00  0.00    +0.171 C 
BRANCH  17  18
ATOM     18  S   UNL     1       3.803  -1.020  -0.054  0.00  0.00    -0.096 S 
BRANCH  18  30
ATOM     19  C   UNL     1      -1.304  -0.758  -0.044  0.00  0.00    +0.088 C 
ATOM     20  C   UNL     1       0.001  -0.004  -0.044  0.00  0.00    +0.128 A 
ATOM     21  N   UNL     1      -0.017   1.315  -0.041  0.00  0.00    -0.225 NA
ATOM     22  C   UNL     1       1.114   1.995  -0.042  0.00  0.00    +0.113 A 
ATOM     23  C   UNL     1       2.362   1.345  -0.045  0.00  0.00    +0.043 A 
ATOM     24  C   UNL     1       3.544   2.222  -0.046  0.00  0.00    -0.025 A 
ATOM     25  C   UNL     1       3.318   3.546  -0.041  0.00  0.00    -0.004 A 
ATOM     26  S   UNL     1       1.547   3.713  -0.038  0.00  0.00    -0.073 S 
ATOM     27  C   UNL     1       4.596   4.341  -0.039  0.00  0.00    +0.043 C 
ATOM     28  C   UNL     1       5.681   3.329   0.392  0.00  0.00    +0.010 C 
ATOM     29  C   UNL     1       5.058   1.993  -0.056  0.00  0.00    +0.037 C 
ATOM     30  C   UNL     1       2.315  -0.076  -0.049  0.00  0.00    +0.109 A 
ATOM     31  N   UNL     1       1.136  -0.680  -0.048  0.00  0.00    -0.225 NA
ENDBRANCH  18  30
ENDBRANCH  17  18
ENDBRANCH   1  17
TORSDOF 6
