REMARK  Name = ZINC48461043
REMARK  4 active torsions:
REMARK  status: ('A' for Active; 'I' for Inactive)
REMARK    1  A    between atoms: C_4  and  C_7
REMARK    2  A    between atoms: C_7  and  C_11
REMARK    3  A    between atoms: N_13  and  S_14
REMARK    4  A    between atoms: S_14  and  C_17
REMARK                            x       y       z     vdW  Elec       q    Type
REMARK                         _______ _______ _______ _____ _____    ______ ____
ROOT
ATOM      1  C   UNL     1       4.611  -0.271  -1.166  0.00  0.00    +0.275 C 
ATOM      2  O   UNL     1       5.893  -0.689  -1.206  0.00  0.00    -0.269 OA
ATOM      3  N   UNL     1       4.154   0.501  -2.093  0.00  0.00    -0.089 NA
ENDROOT
BRANCH   1   4
ATOM      4  C   UNL     1       3.711  -0.707  -0.038  0.00  0.00    +0.077 C 
ATOM      5  C   UNL     1       4.412  -0.749   1.331  0.00  0.00    +0.021 C 
ATOM      6  C   UNL     1       4.794  -2.202   1.003  0.00  0.00    +0.003 C 
ATOM      7  C   UNL     1       3.565  -2.233   0.079  0.00  0.00    +0.021 C 
BRANCH   4  11
ATOM      8  C   UNL     1      -0.016   1.380   0.010  0.00  0.00    +0.000 A 
ATOM      9  C   UNL     1       0.979   1.721   0.907  0.00  0.00    +0.000 A 
ATOM     10  C   UNL     1       2.185   1.046   0.892  0.00  0.00    +0.004 A 
ATOM     11  C   UNL     1       2.396   0.029  -0.020  0.00  0.00    -0.032 A 
ATOM     12  C   UNL     1       1.401  -0.314  -0.916  0.00  0.00    +0.004 A 
ATOM     13  C   UNL     1       0.195   0.363  -0.902  0.00  0.00    +0.000 A 
ENDBRANCH   4  11
ENDBRANCH   1   4
BRANCH   3  14
ATOM     14  S   UNL     1       5.142   0.980  -3.333  0.00  0.00    +0.108 S 
ATOM     15  O   UNL     1       6.145   1.806  -2.757  0.00  0.00    -0.146 OA
ATOM     16  O   UNL     1       5.454  -0.189  -4.078  0.00  0.00    -0.146 OA
BRANCH  14  17
ATOM     17  C   UNL     1       4.186   2.014  -4.392  0.00  0.00    +0.151 A 
ATOM     18  C   UNL     1       4.020   3.358  -4.349  0.00  0.00    +0.038 A 
ATOM     19  C   UNL     1       3.213   3.964  -5.294  0.00  0.00    +0.030 A 
ATOM     20  C   UNL     1       2.612   3.195  -6.236  0.00  0.00    +0.080 A 
ATOM     21  S   UNL     1       3.191   1.562  -5.804  0.00  0.00    -0.056 S 
ATOM     22 CL   UNL     1       1.559   3.674  -7.530  0.00  0.00    -0.076 Cl
ENDBRANCH  14  17
ENDBRANCH   3  14
TORSDOF 4
