REMARK  Name = ZINC30991363
REMARK  3 active torsions:
REMARK  status: ('A' for Active; 'I' for Inactive)
REMARK    1  A    between atoms: C_1  and  N_2
REMARK    2  A    between atoms: N_7  and  C_8
REMARK    3  A    between atoms: C_8  and  C_10
REMARK                            x       y       z     vdW  Elec       q    Type
REMARK                         _______ _______ _______ _____ _____    ______ ____
ROOT
ATOM      1  C   UNL     1       0.056  -0.556   4.833  0.00  0.00    +0.041 A 
ATOM      2  C   UNL     1       0.033   0.826   5.058  0.00  0.00    +0.015 A 
ATOM      3  C   UNL     1       0.039   1.321   6.327  0.00  0.00    +0.030 A 
ATOM      4  C   UNL     1       0.067   0.447   7.420  0.00  0.00    +0.089 A 
ATOM      5  C   UNL     1       0.089  -0.943   7.201  0.00  0.00    +0.067 A 
ATOM      6  C   UNL     1       0.078  -1.440   5.909  0.00  0.00    +0.041 A 
ATOM      7  N   UNL     1       0.115  -1.525   8.454  0.00  0.00    -0.344 N 
ATOM      8  H   UNL     1       0.135  -2.476   8.646  0.00  0.00    +0.167 HD
ATOM      9  C   UNL     1       0.108  -0.519   9.367  0.00  0.00    +0.197 A 
ATOM     10  N   UNL     1       0.080   0.634   8.763  0.00  0.00    -0.236 NA
ENDROOT
BRANCH   1  11
ATOM     11  C   UNL     1       0.049  -1.079   3.449  0.00  0.00    +0.270 C 
ATOM     12  O   UNL     1       0.064  -2.282   3.251  0.00  0.00    -0.268 OA
BRANCH  11  19
ATOM     13  C   UNL     1      -0.018   1.461   0.010  0.00  0.00    +0.150 C 
ATOM     14  N   UNL     1       0.002  -0.004   0.002  0.00  0.00    -0.331 N 
ATOM     15  C   UNL     1       0.006  -0.690  -1.173  0.00  0.00    +0.094 A 
ATOM     16  C   UNL     1       0.024  -2.026  -1.103  0.00  0.00    +0.066 A 
ATOM     17  S   UNL     1       0.036  -2.305   0.658  0.00  0.00    -0.061 S 
ATOM     18  C   UNL     1       0.023  -0.703   1.170  0.00  0.00    +0.165 A 
ATOM     19  N   UNL     1       0.028  -0.233   2.416  0.00  0.00    -0.152 NA
ENDBRANCH  11  19
ENDBRANCH   1  11
TORSDOF 2
