REMARK  Name = ZINC04200897
REMARK  11 active torsions:
REMARK  status: ('A' for Active; 'I' for Inactive)
REMARK    1  A    between atoms: C_1  and  N_2
REMARK    2  A    between atoms: C_6  and  C_7
REMARK    3  A    between atoms: C_11  and  N_31
REMARK    4  A    between atoms: C_14  and  C_16
REMARK    5  A    between atoms: N_18  and  C_19
REMARK    6  A    between atoms: C_19  and  C_21
REMARK    7  A    between atoms: C_19  and  C_28
REMARK    8  A    between atoms: C_21  and  C_22
REMARK    9  A    between atoms: N_34  and  C_35
REMARK   10  A    between atoms: C_39  and  S_41
REMARK   11  A    between atoms: S_41  and  C_42
REMARK                            x       y       z     vdW  Elec       q    Type
REMARK                         _______ _______ _______ _____ _____    ______ ____
ROOT
ATOM      1  C   UNL     1      -2.010  -0.826  -1.864  0.00  0.00    +0.264 C 
ATOM      2  O   UNL     1      -1.117  -0.633  -2.668  0.00  0.00    -0.268 OA
ATOM      3  N   UNL     1      -2.135  -0.021  -0.790  0.00  0.00    -0.283 N 
ATOM      4  C   UNL     1      -3.234  -0.063   0.191  0.00  0.00    +0.131 C 
ATOM      5  C   UNL     1      -3.273   1.359   0.804  0.00  0.00    +0.094 C 
ATOM      6  C   UNL     1      -1.764   1.713   0.867  0.00  0.00    +0.056 C 
ATOM      7  C   UNL     1      -1.199   1.046  -0.405  0.00  0.00    +0.164 C 
ENDROOT
BRANCH   1  13
ATOM      8  C   UNL     1      -2.163  -2.664  -4.353  0.00  0.00    +0.149 C 
ATOM      9  N   UNL     1      -3.019  -2.753  -3.167  0.00  0.00    -0.346 N 
ATOM     10  C   UNL     1      -4.013  -3.655  -2.976  0.00  0.00    +0.086 A 
ATOM     11  C   UNL     1      -4.581  -3.431  -1.767  0.00  0.00    +0.020 A 
ATOM     12  C   UNL     1      -3.917  -2.352  -1.175  0.00  0.00    +0.032 A 
ATOM     13  C   UNL     1      -2.949  -1.935  -2.063  0.00  0.00    +0.104 A 
ENDBRANCH   1  13
BRANCH   5  14
ATOM     14  N   UNL     1      -3.864   1.338   2.144  0.00  0.00    -0.295 N 
ATOM     15  C   UNL     1      -5.200   1.426   2.294  0.00  0.00    +0.304 C 
ATOM     16  O   UNL     1      -5.916   1.524   1.316  0.00  0.00    -0.253 OA
ATOM     17  N   UNL     1      -5.743   1.406   3.527  0.00  0.00    -0.269 N 
ATOM     18  H   UNL     1      -3.292   1.260   2.925  0.00  0.00    +0.151 HD
ATOM     19  H   UNL     1      -5.170   1.396   4.309  0.00  0.00    +0.156 HD
BRANCH  17  20
ATOM     20  C   UNL     1      -7.134   1.399   3.679  0.00  0.00    +0.036 A 
ATOM     21  C   UNL     1      -7.717   0.681   4.716  0.00  0.00    +0.023 A 
ATOM     22  C   UNL     1      -9.091   0.674   4.867  0.00  0.00    +0.003 A 
ATOM     23  C   UNL     1      -9.889   1.381   3.990  0.00  0.00    +0.015 A 
ATOM     24  C   UNL     1      -9.312   2.103   2.951  0.00  0.00    +0.009 A 
ATOM     25  C   UNL     1      -7.932   2.115   2.799  0.00  0.00    +0.038 A 
BRANCH  24  26
ATOM     26  S   UNL     1     -10.331   3.005   1.831  0.00  0.00    -0.129 S 
ATOM     27  C   UNL     1     -12.017   2.696   2.426  0.00  0.00    +0.090 C 
ENDBRANCH  24  26
ENDBRANCH  17  20
ENDBRANCH   5  14
BRANCH   7  28
ATOM     28  C   UNL     1       0.158   0.457  -0.116  0.00  0.00    +0.234 C 
ATOM     29  O   UNL     1       0.268  -0.729   0.113  0.00  0.00    -0.274 OA
ATOM     30  N   UNL     1       1.249   1.248  -0.116  0.00  0.00    -0.302 N 
ATOM     31  H   UNL     1       1.161   2.196  -0.299  0.00  0.00    +0.150 HD
BRANCH  30  32
ATOM     32  C   UNL     1       2.569   0.675   0.159  0.00  0.00    +0.163 C 
BRANCH  32  33
ATOM     33  C   UNL     1       3.150   0.117  -1.115  0.00  0.00    +0.231 C 
ATOM     34  O   UNL     1       2.523   0.191  -2.151  0.00  0.00    -0.274 OA
ATOM     35  N   UNL     1       4.366  -0.464  -1.103  0.00  0.00    -0.328 N 
ATOM     36  H   UNL     1       4.867  -0.523  -0.275  0.00  0.00    +0.145 HD
ATOM     37  H   UNL     1       4.740  -0.823  -1.923  0.00  0.00    +0.145 HD
ENDBRANCH  32  33
BRANCH  32  38
ATOM     38  C   UNL     1       3.493   1.764   0.707  0.00  0.00    +0.067 C 
BRANCH  38  39
ATOM     39  C   UNL     1       2.977   2.235   2.042  0.00  0.00    -0.045 A 
ATOM     40  C   UNL     1       2.087   3.291   2.105  0.00  0.00    +0.004 A 
ATOM     41  C   UNL     1       1.609   3.720   3.330  0.00  0.00    +0.000 A 
ATOM     42  C   UNL     1       2.030   3.101   4.492  0.00  0.00    +0.000 A 
ATOM     43  C   UNL     1       2.925   2.049   4.429  0.00  0.00    +0.000 A 
ATOM     44  C   UNL     1       3.398   1.616   3.204  0.00  0.00    +0.004 A 
ENDBRANCH  38  39
ENDBRANCH  32  38
ENDBRANCH  30  32
ENDBRANCH   7  28
TORSDOF 9
