REMARK  Name = ZINC63624889
REMARK  8 active torsions:
REMARK  status: ('A' for Active; 'I' for Inactive)
REMARK    1  A    between atoms: C_1  and  C_2
REMARK    2  A    between atoms: C_4  and  N_17
REMARK    3  A    between atoms: N_8  and  C_11
REMARK    4  A    between atoms: N_9  and  C_10
REMARK    5  A    between atoms: C_18  and  C_20
REMARK    6  A    between atoms: C_20  and  S_21
REMARK    7  A    between atoms: S_21  and  C_22
REMARK    8  A    between atoms: C_28  and  N_32
REMARK                            x       y       z     vdW  Elec       q    Type
REMARK                         _______ _______ _______ _____ _____    ______ ____
ROOT
ATOM      1  N   UNL     1       0.401  -1.623  -1.890  0.00  0.00    -0.302 N 
ATOM      2  C   UNL     1       0.624  -1.759  -3.212  0.00  0.00    +0.224 C 
ATOM      3  O   UNL     1       1.147  -0.859  -3.834  0.00  0.00    -0.275 OA
ATOM      4  H   UNL     1      -0.018  -2.343  -1.392  0.00  0.00    +0.150 HD
ENDROOT
BRANCH   1   7
ATOM      5  C   UNL     1      -0.288   1.320   0.329  0.00  0.00    +0.028 C 
ATOM      6  C   UNL     1      -0.066  -0.171   0.067  0.00  0.00    +0.102 C 
ATOM      7  C   UNL     1       0.789  -0.388  -1.204  0.00  0.00    +0.179 C 
ATOM      8  C   UNL     1       2.192  -0.501  -0.633  0.00  0.00    +0.256 C 
ATOM      9  O   UNL     1       3.226  -0.426  -1.261  0.00  0.00    -0.272 OA
ATOM     10  N   UNL     1       2.083  -0.697   0.694  0.00  0.00    -0.201 N 
ATOM     11  N   UNL     1       0.788  -0.771   1.117  0.00  0.00    -0.218 NA
ATOM     12  C   UNL     1       0.399  -2.163   1.381  0.00  0.00    +0.128 C 
BRANCH  10  13
ATOM     13  C   UNL     1       3.184  -0.814   1.550  0.00  0.00    +0.053 A 
ATOM     14  C   UNL     1       4.245  -1.643   1.211  0.00  0.00    +0.025 A 
ATOM     15  C   UNL     1       5.330  -1.757   2.058  0.00  0.00    +0.002 A 
ATOM     16  C   UNL     1       5.360  -1.045   3.244  0.00  0.00    +0.000 A 
ATOM     17  C   UNL     1       4.305  -0.219   3.585  0.00  0.00    +0.002 A 
ATOM     18  C   UNL     1       3.220  -0.097   2.739  0.00  0.00    +0.025 A 
ENDBRANCH  10  13
ENDBRANCH   1   7
BRANCH   2  19
ATOM     19  C   UNL     1       0.224  -3.029  -3.917  0.00  0.00    +0.168 C 
BRANCH  19  20
ATOM     20  S   UNL     1       0.652  -2.906  -5.675  0.00  0.00    -0.106 S 
BRANCH  20  21
ATOM     21  C   UNL     1       0.113  -4.492  -6.371  0.00  0.00    +0.236 C 
ATOM     22  N   UNL     1      -1.321  -4.689  -6.125  0.00  0.00    -0.355 N 
ATOM     23  C   UNL     1      -1.449  -5.766  -5.404  0.00  0.00    +0.061 A 
ATOM     24  C   UNL     1      -2.617  -6.464  -4.850  0.00  0.00    +0.029 A 
ATOM     25  C   UNL     1      -2.439  -7.586  -4.125  0.00  0.00    +0.035 A 
ATOM     26  C   UNL     1      -1.167  -8.130  -3.869  0.00  0.00    +0.128 A 
ATOM     27  C   UNL     1      -0.031  -7.570  -4.331  0.00  0.00    +0.060 A 
ATOM     28  C   UNL     1      -0.103  -6.342  -5.134  0.00  0.00    +0.063 A 
ATOM     29  N   UNL     1       0.806  -5.598  -5.699  0.00  0.00    -0.355 N 
ATOM     30  H   UNL     1       1.764  -5.748  -5.679  0.00  0.00    +0.162 HD
ATOM     31  H   UNL     1      -2.041  -4.121  -6.440  0.00  0.00    +0.162 HD
BRANCH  26  32
ATOM     32  N   UNL     1      -1.073  -9.367  -3.062  0.00  0.00    +0.056 N 
ATOM     33  O   UNL     1      -2.076  -9.889  -2.636  0.00  0.00    -0.126 OA
ATOM     34  O   UNL     1       0.009  -9.855  -2.828  0.00  0.00    -0.126 OA
ENDBRANCH  26  32
ENDBRANCH  20  21
ENDBRANCH  19  20
ENDBRANCH   2  19
TORSDOF 6
