REMARK  Name = ZINC15974549
REMARK  2 active torsions:
REMARK  status: ('A' for Active; 'I' for Inactive)
REMARK    1  A    between atoms: C_6  and  N_7
REMARK    2  A    between atoms: N_8  and  C_9
REMARK                            x       y       z     vdW  Elec       q    Type
REMARK                         _______ _______ _______ _____ _____    ______ ____
ROOT
ATOM      1  C   UNL     1      -2.316  -2.695   0.011  0.00  0.00    +0.169 A 
ATOM      2  C   UNL     1      -3.626  -2.151   0.020  0.00  0.00    +0.168 A 
ATOM      3  N   UNL     1      -4.483  -3.141   0.025  0.00  0.00    -0.145 NA
ATOM      4  N   UNL     1      -3.786  -4.355   0.019  0.00  0.00    -0.176 N 
ATOM      5  C   UNL     1      -2.452  -4.082   0.004  0.00  0.00    +0.167 A 
ATOM      6  N   UNL     1      -1.538  -5.103  -0.011  0.00  0.00    -0.341 N 
ATOM      7  H   UNL     1      -0.590  -4.897  -0.022  0.00  0.00    +0.167 HD
ATOM      8  C   UNL     1      -1.947  -6.411  -0.010  0.00  0.00    +0.026 A 
ATOM      9  C   UNL     1      -3.262  -6.695   0.010  0.00  0.00    +0.038 A 
ATOM     10  C   UNL     1      -4.203  -5.635   0.022  0.00  0.00    +0.278 A 
ATOM     11  O   UNL     1      -5.396  -5.884   0.024  0.00  0.00    -0.265 OA
ATOM     12  C   UNL     1      -3.795  -8.103   0.037  0.00  0.00    +0.042 C 
ATOM     13  C   UNL     1      -2.722  -9.095  -0.406  0.00  0.00    +0.005 C 
ATOM     14  C   UNL     1      -1.449  -8.820   0.405  0.00  0.00    +0.006 C 
ATOM     15  C   UNL     1      -0.880  -7.474  -0.038  0.00  0.00    +0.054 C 
ATOM     16  N   UNL     1      -3.947  -0.794   0.024  0.00  0.00    -0.340 N 
ATOM     17  H   UNL     1      -3.241  -0.129   0.020  0.00  0.00    +0.144 HD
ATOM     18  H   UNL     1      -4.876  -0.516   0.031  0.00  0.00    +0.144 HD
ENDROOT
BRANCH   1  20
ATOM     19  N   UNL     1      -1.172  -0.707   0.010  0.00  0.00    -0.149 NA
ATOM     20  N   UNL     1      -1.151  -1.997   0.003  0.00  0.00    -0.142 NA
BRANCH  19  26
ATOM     21  C   UNL     1      -0.017   1.393   0.010  0.00  0.00    +0.031 A 
ATOM     22  C   UNL     1       1.170   2.095   0.002  0.00  0.00    +0.022 A 
ATOM     23  C   UNL     1       2.378   1.419  -0.013  0.00  0.00    +0.041 A 
ATOM     24  C   UNL     1       2.404   0.035  -0.021  0.00  0.00    +0.022 A 
ATOM     25  C   UNL     1       1.225  -0.680  -0.014  0.00  0.00    +0.031 A 
ATOM     26  C   UNL     1       0.002  -0.004   0.002  0.00  0.00    +0.086 A 
ATOM     27 CL   UNL     1       3.868   2.311  -0.023  0.00  0.00    -0.084 Cl
ENDBRANCH  19  26
ENDBRANCH   1  20
TORSDOF 2
