REMARK  Name = ZINC19875090
REMARK  4 active torsions:
REMARK  status: ('A' for Active; 'I' for Inactive)
REMARK    1  A    between atoms: C_1  and  C_2
REMARK    2  A    between atoms: C_8  and  C_23
REMARK    3  A    between atoms: C_9  and  C_17
REMARK    4  A    between atoms: C_11  and  C_15
REMARK                            x       y       z     vdW  Elec       q    Type
REMARK                         _______ _______ _______ _____ _____    ______ ____
ROOT
ATOM      1  C   UNL     1      -0.717   2.987  -4.829  0.00  0.00    +0.040 C 
ATOM      2  C   UNL     1      -1.611   3.725  -3.830  0.00  0.00    +0.146 C 
ATOM      3  C   UNL     1      -2.032   5.103  -4.388  0.00  0.00    +0.196 C 
ATOM      4  O   UNL     1      -1.969   5.998  -3.261  0.00  0.00    -0.327 OA
ATOM      5  C   UNL     1      -1.575   5.215  -2.128  0.00  0.00    +0.295 C 
ATOM      6  O   UNL     1      -0.868   4.070  -2.635  0.00  0.00    -0.324 OA
ATOM      7  C   UNL     1      -0.652   6.051  -1.197  0.00  0.00    +0.167 C 
ATOM      8  C   UNL     1      -0.070   5.347   0.031  0.00  0.00    +0.077 C 
ATOM      9  C   UNL     1      -1.434   6.033   0.132  0.00  0.00    +0.146 C 
ATOM     10  C   UNL     1      -2.682   5.227  -0.129  0.00  0.00    +0.116 C 
ATOM     11  N   UNL     1      -2.730   4.806  -1.340  0.00  0.00    -0.211 NA
ATOM     12  N   UNL     1      -3.645   4.976   0.812  0.00  0.00    -0.345 N 
ATOM     13  H   UNL     1      -4.530   4.379   0.547  0.00  0.00    +0.143 HD
ATOM     14  H   UNL     1      -3.534   5.372   1.832  0.00  0.00    +0.143 HD
ENDROOT
BRANCH   8  15
ATOM     15  C   UNL     1      -0.050   3.840   0.022  0.00  0.00    -0.041 A 
ATOM     16  C   UNL     1      -0.933   3.133   0.817  0.00  0.00    +0.004 A 
ATOM     17  C   UNL     1      -0.914   1.750   0.809  0.00  0.00    +0.000 A 
ATOM     18  C   UNL     1      -0.013   1.076   0.006  0.00  0.00    +0.000 A 
ATOM     19  C   UNL     1       0.873   1.784  -0.784  0.00  0.00    +0.000 A 
ATOM     20  C   UNL     1       0.851   3.166  -0.780  0.00  0.00    +0.004 A 
ENDBRANCH   8  15
BRANCH   9  21
ATOM     21  C   UNL     1      -1.570   7.244   0.957  0.00  0.00    +0.079 C 
ATOM     22  N   UNL     1      -1.675   8.179   1.594  0.00  0.00    -0.195 NA
ENDBRANCH   9  21
BRANCH   7  23
ATOM     23  C   UNL     1      -0.005   7.266  -1.719  0.00  0.00    +0.080 C 
ATOM     24  N   UNL     1       0.494   8.204  -2.122  0.00  0.00    -0.196 NA
ENDBRANCH   7  23
TORSDOF 3
