REMARK  Name = ZINC42523636
REMARK  6 active torsions:
REMARK  status: ('A' for Active; 'I' for Inactive)
REMARK    1  A    between atoms: C_9  and  C_12
REMARK    2  A    between atoms: C_12  and  N_13
REMARK    3  A    between atoms: C_14  and  C_16
REMARK    4  A    between atoms: C_16  and  N_17
REMARK    5  A    between atoms: C_18  and  C_20
REMARK    6  A    between atoms: C_24  and  N_26
REMARK                            x       y       z     vdW  Elec       q    Type
REMARK                         _______ _______ _______ _____ _____    ______ ____
ROOT
ATOM      1  N   UNL     1       6.008  -1.982  -0.760  0.00  0.00    -0.310 N 
ATOM      2  C   UNL     1       7.280  -2.393  -0.587  0.00  0.00    +0.230 C 
ATOM      3  O   UNL     1       7.522  -3.317   0.162  0.00  0.00    -0.274 OA
ATOM      4  H   UNL     1       5.815  -1.243  -1.358  0.00  0.00    +0.149 HD
ENDROOT
BRANCH   1   5
ATOM      5  C   UNL     1       4.918  -2.649  -0.044  0.00  0.00    +0.152 C 
BRANCH   5  14
ATOM      6  C   UNL     1      -0.017   1.378   0.010  0.00  0.00    +0.004 A 
ATOM      7  C   UNL     1       1.170   2.088   0.002  0.00  0.00    +0.004 A 
ATOM      8  C   UNL     1       2.378   1.418  -0.012  0.00  0.00    +0.049 A 
ATOM      9  C   UNL     1       2.404   0.031  -0.019  0.00  0.00    +0.163 A 
ATOM     10  C   UNL     1       1.212  -0.683  -0.014  0.00  0.00    +0.162 A 
ATOM     11  C   UNL     1       0.002  -0.004   0.002  0.00  0.00    +0.049 A 
ATOM     12  O   UNL     1       1.214  -2.043  -0.029  0.00  0.00    -0.485 OA
ATOM     13  C   UNL     1       2.441  -2.689   0.331  0.00  0.00    +0.275 C 
ATOM     14  C   UNL     1       3.587  -1.993  -0.416  0.00  0.00    +0.228 C 
ATOM     15  O   UNL     1       3.602  -0.615  -0.029  0.00  0.00    -0.480 OA
ENDBRANCH   5  14
ENDBRANCH   1   5
BRANCH   2  16
ATOM     16  C   UNL     1       8.401  -1.706  -1.323  0.00  0.00    +0.200 C 
BRANCH  16  17
ATOM     17  N   UNL     1       9.676  -2.335  -0.967  0.00  0.00    -0.303 N 
ATOM     18  C   UNL     1      10.825  -1.882  -1.508  0.00  0.00    +0.245 C 
ATOM     19  O   UNL     1      10.803  -0.953  -2.291  0.00  0.00    -0.270 OA
ATOM     20  H   UNL     1       9.693  -3.076  -0.341  0.00  0.00    +0.150 HD
BRANCH  18  21
ATOM     21  C   UNL     1      12.111  -2.516  -1.148  0.00  0.00    +0.039 A 
ATOM     22  C   UNL     1      12.139  -3.587  -0.253  0.00  0.00    +0.013 A 
ATOM     23  C   UNL     1      13.342  -4.175   0.077  0.00  0.00    +0.003 A 
ATOM     24  C   UNL     1      14.520  -3.704  -0.476  0.00  0.00    +0.033 A 
ATOM     25  C   UNL     1      14.500  -2.643  -1.363  0.00  0.00    +0.127 A 
ATOM     26  C   UNL     1      13.302  -2.050  -1.707  0.00  0.00    +0.045 A 
BRANCH  25  27
ATOM     27  N   UNL     1      15.765  -2.146  -1.949  0.00  0.00    +0.056 N 
ATOM     28  O   UNL     1      16.814  -2.667  -1.653  0.00  0.00    -0.126 OA
ATOM     29  O   UNL     1      15.748  -1.218  -2.725  0.00  0.00    -0.126 OA
ENDBRANCH  25  27
ENDBRANCH  18  21
ENDBRANCH  16  17
ENDBRANCH   2  16
TORSDOF 6
