REMARK  Name = ZINC28352021
REMARK  5 active torsions:
REMARK  status: ('A' for Active; 'I' for Inactive)
REMARK    1  A    between atoms: C_1  and  C_2
REMARK    2  A    between atoms: C_2  and  C_16
REMARK    3  A    between atoms: N_3  and  N_4
REMARK    4  A    between atoms: C_5  and  C_10
REMARK    5  A    between atoms: C_21  and  O_22
REMARK                            x       y       z     vdW  Elec       q    Type
REMARK                         _______ _______ _______ _____ _____    ______ ____
ROOT
ATOM      1  N   UNL     1      -0.085  -2.022   1.441  0.00  0.00    -0.188 N 
ATOM      2  C   UNL     1      -0.218  -2.640   2.670  0.00  0.00    +0.184 A 
ATOM      3  N   UNL     1      -0.238  -3.931   2.483  0.00  0.00    -0.152 NA
ATOM      4  N   UNL     1      -0.116  -4.173   1.108  0.00  0.00    -0.253 N 
ATOM      5  C   UNL     1      -0.030  -2.976   0.491  0.00  0.00    +0.197 A 
ATOM      6  S   UNL     1       0.127  -2.717  -1.194  0.00  0.00    -0.010 S 
ATOM      7  H   UNL     1      -0.101  -5.042   0.678  0.00  0.00    +0.191 HD
ENDROOT
BRANCH   2   8
ATOM      8  C   UNL     1      -0.320  -1.954   3.976  0.00  0.00    +0.021 A 
ATOM      9  C   UNL     1      -0.290  -0.561   4.040  0.00  0.00    +0.011 A 
ATOM     10  C   UNL     1      -0.386   0.073   5.262  0.00  0.00    +0.001 A 
ATOM     11  C   UNL     1      -0.510  -0.670   6.422  0.00  0.00    +0.000 A 
ATOM     12  C   UNL     1      -0.540  -2.052   6.366  0.00  0.00    +0.001 A 
ATOM     13  C   UNL     1      -0.452  -2.697   5.149  0.00  0.00    +0.011 A 
ENDBRANCH   2   8
BRANCH   1  16
ATOM     14  C   UNL     1      -0.988   1.467   0.480  0.00  0.00    +0.068 C 
ATOM     15  C   UNL     1      -1.006  -0.033   0.625  0.00  0.00    +0.070 C 
ATOM     16  N   UNL     1      -0.024  -0.639   1.220  0.00  0.00    -0.167 NA
BRANCH  15  17
ATOM     17  C   UNL     1      -2.136  -0.812   0.089  0.00  0.00    +0.039 A 
ATOM     18  C   UNL     1      -2.965  -1.531   0.954  0.00  0.00    +0.013 A 
ATOM     19  C   UNL     1      -4.021  -2.258   0.447  0.00  0.00    +0.001 A 
ATOM     20  C   UNL     1      -4.264  -2.278  -0.916  0.00  0.00    +0.004 A 
ATOM     21  C   UNL     1      -3.452  -1.570  -1.782  0.00  0.00    +0.046 A 
ATOM     22  C   UNL     1      -2.390  -0.830  -1.289  0.00  0.00    +0.126 A 
BRANCH  22  23
ATOM     23  O   UNL     1      -1.595  -0.129  -2.138  0.00  0.00    -0.506 OA
ATOM     24  H   UNL     1      -0.799  -0.604  -2.413  0.00  0.00    +0.292 HD
ENDBRANCH  22  23
ENDBRANCH  15  17
ENDBRANCH   1  16
TORSDOF 4
