REMARK  Name = ZINC04335261
REMARK  10 active torsions:
REMARK  status: ('A' for Active; 'I' for Inactive)
REMARK    1  A    between atoms: C_1  and  C_2
REMARK    2  A    between atoms: C_2  and  O_3
REMARK    3  A    between atoms: O_3  and  C_4
REMARK    4  A    between atoms: C_4  and  C_6
REMARK    5  A    between atoms: C_9  and  N_12
REMARK    6  A    between atoms: C_14  and  C_26
REMARK    7  A    between atoms: C_17  and  C_24
REMARK    8  A    between atoms: C_20  and  C_23
REMARK    9  A    between atoms: C_24  and  O_25
REMARK   10  A    between atoms: C_26  and  N_28
REMARK                            x       y       z     vdW  Elec       q    Type
REMARK                         _______ _______ _______ _____ _____    ______ ____
ROOT
ATOM      1  N   UNL     1       3.441  -3.636   6.098  0.00  0.00    -0.325 N 
ATOM      2  C   UNL     1       2.925  -4.760   6.553  0.00  0.00    +0.209 A 
ATOM      3  C   UNL     1       3.666  -5.597   7.518  0.00  0.00    +0.064 A 
ATOM      4  C   UNL     1       2.914  -6.404   8.362  0.00  0.00    +0.027 A 
ATOM      5  C   UNL     1       1.459  -6.352   8.216  0.00  0.00    +0.027 A 
ATOM      6  C   UNL     1       0.601  -6.913   9.171  0.00  0.00    +0.007 A 
ATOM      7  C   UNL     1      -0.759  -6.822   8.966  0.00  0.00    +0.117 A 
ATOM      8  N   UNL     1      -1.252  -6.221   7.899  0.00  0.00    -0.256 NA
ATOM      9  C   UNL     1      -0.488  -5.679   6.973  0.00  0.00    +0.081 A 
ATOM     10  C   UNL     1       0.894  -5.722   7.090  0.00  0.00    +0.159 A 
ATOM     11  O   UNL     1       1.698  -5.176   6.153  0.00  0.00    -0.437 OA
ATOM     12  C   UNL     1      -1.118  -5.008   5.779  0.00  0.00    +0.069 C 
ATOM     13  H   UNL     1       4.276  -3.303   6.462  0.00  0.00    +0.169 HD
ENDROOT
BRANCH   1  17
ATOM     14  C   UNL     1       1.504  -1.535   3.121  0.00  0.00    +0.059 A 
ATOM     15  C   UNL     1       2.017  -0.859   4.234  0.00  0.00    +0.017 A 
ATOM     16  C   UNL     1       2.657  -1.553   5.219  0.00  0.00    +0.026 A 
ATOM     17  C   UNL     1       2.801  -2.942   5.115  0.00  0.00    +0.042 A 
ATOM     18  C   UNL     1       2.287  -3.618   4.001  0.00  0.00    +0.026 A 
ATOM     19  C   UNL     1       1.642  -2.924   3.020  0.00  0.00    +0.017 A 
BRANCH  14  20
ATOM     20  C   UNL     1       0.812  -0.785   2.059  0.00  0.00    +0.339 C 
ATOM     21  O   UNL     1       0.362  -1.372   1.095  0.00  0.00    -0.245 OA
BRANCH  20  22
ATOM     22  O   UNL     1       0.679   0.553   2.156  0.00  0.00    -0.461 OA
BRANCH  22  24
ATOM     23  C   UNL     1      -0.055   2.719   1.374  0.00  0.00    +0.048 C 
ATOM     24  C   UNL     1      -0.002   1.216   1.089  0.00  0.00    +0.229 C 
ENDBRANCH  22  24
ENDBRANCH  20  22
ENDBRANCH  14  20
ENDBRANCH   1  17
BRANCH   3  25
ATOM     25  C   UNL     1       5.136  -5.578   7.582  0.00  0.00    +0.082 C 
ATOM     26  S   UNL     1       6.032  -4.689   6.424  0.00  0.00    -0.035 S 
BRANCH  25  27
ATOM     27  N   UNL     1       5.778  -6.260   8.551  0.00  0.00    -0.352 N 
ATOM     28  H   UNL     1       5.270  -6.763   9.207  0.00  0.00    +0.143 HD
ATOM     29  H   UNL     1       6.747  -6.247   8.593  0.00  0.00    +0.143 HD
ENDBRANCH  25  27
ENDBRANCH   3  25
BRANCH   6  30
ATOM     30  C   UNL     1       1.153  -7.601  10.392  0.00  0.00    +0.193 C 
BRANCH  30  31
ATOM     31  O   UNL     1       0.074  -8.082  11.197  0.00  0.00    -0.390 OA
ATOM     32  H   UNL     1       0.356  -8.537  12.002  0.00  0.00    +0.210 HD
ENDBRANCH  30  31
ENDBRANCH   6  30
TORSDOF 8
