REMARK  Name = ZINC58096232
REMARK  8 active torsions:
REMARK  status: ('A' for Active; 'I' for Inactive)
REMARK    1  A    between atoms: C_1  and  S_2
REMARK    2  A    between atoms: S_2  and  C_3
REMARK    3  A    between atoms: N_7  and  C_8
REMARK    4  A    between atoms: C_12  and  N_14
REMARK    5  A    between atoms: N_17  and  C_18
REMARK    6  A    between atoms: C_18  and  C_19
REMARK    7  A    between atoms: C_19  and  C_20
REMARK    8  A    between atoms: C_19  and  O_27
REMARK                            x       y       z     vdW  Elec       q    Type
REMARK                         _______ _______ _______ _____ _____    ______ ____
ROOT
ATOM      1  N   UNL     1       2.206  -6.280   0.862  0.00  0.00    -0.269 N 
ATOM      2  C   UNL     1       1.831  -7.474   0.362  0.00  0.00    +0.304 C 
ATOM      3  O   UNL     1       0.780  -7.578  -0.240  0.00  0.00    -0.253 OA
ATOM      4  N   UNL     1       2.622  -8.553   0.529  0.00  0.00    -0.296 N 
ATOM      5  H   UNL     1       3.078  -6.179   1.274  0.00  0.00    +0.156 HD
ATOM      6  H   UNL     1       3.460  -8.470   1.009  0.00  0.00    +0.150 HD
ENDROOT
BRANCH   1  11
ATOM      7  C   UNL     1       0.981  -2.822   0.553  0.00  0.00    +0.072 A 
ATOM      8  C   UNL     1      -0.391  -3.024   0.639  0.00  0.00    +0.028 A 
ATOM      9  C   UNL     1      -0.894  -4.300   0.799  0.00  0.00    +0.004 A 
ATOM     10  C   UNL     1      -0.035  -5.381   0.873  0.00  0.00    +0.023 A 
ATOM     11  C   UNL     1       1.337  -5.186   0.787  0.00  0.00    +0.037 A 
ATOM     12  C   UNL     1       1.845  -3.905   0.621  0.00  0.00    +0.051 A 
BRANCH   7  17
ATOM     13  C   UNL     1       0.936  -0.500  -0.313  0.00  0.00    +0.214 A 
ATOM     14  N   UNL     1       1.746   0.530  -0.191  0.00  0.00    -0.101 NA
ATOM     15  N   UNL     1       2.763   0.221   0.529  0.00  0.00    -0.022 NA
ATOM     16  N   UNL     1       2.686  -1.006   0.916  0.00  0.00    -0.038 NA
ATOM     17  N   UNL     1       1.491  -1.526   0.390  0.00  0.00    -0.187 N 
BRANCH  13  19
ATOM     18  C   UNL     1      -0.728   1.129  -1.900  0.00  0.00    +0.093 C 
ATOM     19  S   UNL     1      -0.581  -0.541  -1.209  0.00  0.00    -0.088 S 
ENDBRANCH  13  19
ENDBRANCH   7  17
ENDBRANCH   1  11
BRANCH   4  20
ATOM     20  C   UNL     1       2.214  -9.851  -0.014  0.00  0.00    +0.142 C 
BRANCH  20  21
ATOM     21  C   UNL     1       3.281 -10.898   0.312  0.00  0.00    +0.164 C 
BRANCH  21  22
ATOM     22  C   UNL     1       2.861 -12.233  -0.247  0.00  0.00    +0.018 A 
ATOM     23  C   UNL     1       3.321 -12.639  -1.486  0.00  0.00    +0.009 A 
ATOM     24  C   UNL     1       2.937 -13.864  -1.999  0.00  0.00    +0.001 A 
ATOM     25  C   UNL     1       2.092 -14.684  -1.274  0.00  0.00    +0.003 A 
ATOM     26  C   UNL     1       1.631 -14.280  -0.035  0.00  0.00    +0.039 A 
ATOM     27  C   UNL     1       2.020 -13.056   0.482  0.00  0.00    +0.129 A 
ATOM     28  F   UNL     1       1.574 -12.662   1.695  0.00  0.00    -0.205 F 
ENDBRANCH  21  22
BRANCH  21  29
ATOM     29  O   UNL     1       4.526 -10.507  -0.271  0.00  0.00    -0.386 OA
ATOM     30  H   UNL     1       4.498 -10.418  -1.233  0.00  0.00    +0.210 HD
ENDBRANCH  21  29
ENDBRANCH  20  21
ENDBRANCH   4  20
TORSDOF 7
