REMARK  Name = ZINC50351753
REMARK  7 active torsions:
REMARK  status: ('A' for Active; 'I' for Inactive)
REMARK    1  A    between atoms: C_1  and  C_2
REMARK    2  A    between atoms: C_2  and  C_3
REMARK    3  A    between atoms: C_3  and  C_5
REMARK    4  A    between atoms: C_3  and  N_9
REMARK    5  A    between atoms: N_6  and  O_7
REMARK    6  A    between atoms: N_9  and  S_10
REMARK    7  A    between atoms: S_10  and  C_13
REMARK                            x       y       z     vdW  Elec       q    Type
REMARK                         _______ _______ _______ _____ _____    ______ ____
ROOT
ATOM      1  N   UNL     1       2.289  -0.011  -0.895  0.00  0.00    -0.184 NA
ATOM      2  H   UNL     1       1.711  -0.734  -1.185  0.00  0.00    +0.148 HD
ENDROOT
BRANCH   1   3
ATOM      3  S   UNL     1       2.586   1.268  -1.904  0.00  0.00    +0.033 S 
ATOM      4  O   UNL     1       4.002   1.372  -1.950  0.00  0.00    -0.158 OA
ATOM      5  O   UNL     1       1.842   0.982  -3.080  0.00  0.00    -0.158 OA
BRANCH   3   6
ATOM      6  C   UNL     1       1.880   2.706  -1.053  0.00  0.00    +0.151 C 
ATOM      7  C   UNL     1       0.387   2.479  -0.836  0.00  0.00    +0.050 C 
ATOM      8  C   UNL     1      -0.172   3.546   0.109  0.00  0.00    +0.168 C 
ATOM      9  S   UNL     1       0.007   5.176  -0.673  0.00  0.00    -0.031 S 
ATOM     10  O   UNL     1      -0.248   6.176   0.304  0.00  0.00    -0.174 OA
ATOM     11  O   UNL     1      -0.740   5.182  -1.882  0.00  0.00    -0.174 OA
ATOM     12  C   UNL     1       1.777   5.207  -1.083  0.00  0.00    +0.168 C 
ATOM     13  C   UNL     1       2.119   3.955  -1.895  0.00  0.00    +0.050 C 
ENDBRANCH   3   6
ENDBRANCH   1   3
BRANCH   1  14
ATOM     14  C   UNL     1       2.900  -0.051   0.436  0.00  0.00    +0.142 C 
BRANCH  14  15
ATOM     15  C   UNL     1       1.818  -0.100   1.484  0.00  0.00    +0.150 C 
ATOM     16  N   UNL     1       2.054   0.334   2.678  0.00  0.00    -0.075 NA
ATOM     17  N   UNL     1       0.576  -0.607   1.169  0.00  0.00    -0.343 N 
ATOM     18  H   UNL     1       0.399  -0.933   0.273  0.00  0.00    +0.144 HD
ATOM     19  H   UNL     1      -0.120  -0.639   1.844  0.00  0.00    +0.144 HD
BRANCH  16  20
ATOM     20  O   UNL     1       1.038   0.288   3.662  0.00  0.00    -0.408 OA
ATOM     21  H   UNL     1       1.308   0.634   4.524  0.00  0.00    +0.328 HD
ENDBRANCH  16  20
ENDBRANCH  14  15
BRANCH  14  23
ATOM     22  C   UNL     1       4.957  -1.183  -0.417  0.00  0.00    +0.006 C 
ATOM     23  C   UNL     1       3.781  -1.296   0.556  0.00  0.00    +0.025 C 
ENDBRANCH  14  23
ENDBRANCH   1  14
TORSDOF 6
