REMARK  Name = ZINC10864580
REMARK  10 active torsions:
REMARK  status: ('A' for Active; 'I' for Inactive)
REMARK    1  A    between atoms: C_1  and  C_2
REMARK    2  A    between atoms: C_2  and  O_3
REMARK    3  A    between atoms: O_3  and  C_4
REMARK    4  A    between atoms: C_4  and  C_6
REMARK    5  A    between atoms: C_7  and  C_21
REMARK    6  A    between atoms: C_12  and  C_14
REMARK    7  A    between atoms: C_21  and  S_22
REMARK    8  A    between atoms: S_22  and  C_23
REMARK    9  A    between atoms: C_26  and  C_29
REMARK   10  A    between atoms: N_27  and  N_28
REMARK                            x       y       z     vdW  Elec       q    Type
REMARK                         _______ _______ _______ _____ _____    ______ ____
ROOT
ATOM      1  C   UNL     1      -6.160   7.148  -0.812  0.00  0.00    +0.079 C 
ATOM      2  C   UNL     1      -5.758   6.470   0.285  0.00  0.00    +0.034 C 
ATOM      3  N   UNL     1      -6.112   6.883   1.538  0.00  0.00    -0.272 N 
ATOM      4  C   UNL     1      -6.870   7.961   1.778  0.00  0.00    +0.304 C 
ATOM      5  O   UNL     1      -7.133   8.250   2.929  0.00  0.00    -0.252 OA
ATOM      6  N   UNL     1      -7.350   8.736   0.785  0.00  0.00    -0.288 N 
ATOM      7  C   UNL     1      -7.024   8.375  -0.605  0.00  0.00    +0.144 C 
ATOM      8  H   UNL     1      -5.797   6.367   2.296  0.00  0.00    +0.156 HD
ATOM      9  H   UNL     1      -7.897   9.512   0.982  0.00  0.00    +0.151 HD
ENDROOT
BRANCH   7  10
ATOM     10  C   UNL     1      -8.320   8.166  -1.346  0.00  0.00    -0.022 A 
ATOM     11  C   UNL     1      -9.372   7.515  -0.729  0.00  0.00    +0.007 A 
ATOM     12  C   UNL     1     -10.562   7.327  -1.406  0.00  0.00    +0.020 A 
ATOM     13  C   UNL     1     -10.697   7.781  -2.706  0.00  0.00    +0.041 A 
ATOM     14  C   UNL     1      -9.642   8.428  -3.325  0.00  0.00    +0.020 A 
ATOM     15  C   UNL     1      -8.454   8.619  -2.645  0.00  0.00    +0.007 A 
ATOM     16 CL   UNL     1     -12.189   7.540  -3.559  0.00  0.00    -0.084 Cl
ENDBRANCH   7  10
BRANCH   1  17
ATOM     17  C   UNL     1      -5.789   6.725  -2.110  0.00  0.00    +0.339 C 
ATOM     18  O   UNL     1      -5.224   5.658  -2.264  0.00  0.00    -0.245 OA
BRANCH  17  19
ATOM     19  O   UNL     1      -6.063   7.503  -3.177  0.00  0.00    -0.462 OA
BRANCH  19  21
ATOM     20  C   UNL     1      -6.052   8.025  -5.537  0.00  0.00    +0.048 C 
ATOM     21  C   UNL     1      -5.660   7.013  -4.458  0.00  0.00    +0.229 C 
ENDBRANCH  19  21
ENDBRANCH  17  19
ENDBRANCH   1  17
BRANCH   2  22
ATOM     22  C   UNL     1      -4.902   5.241   0.124  0.00  0.00    +0.128 C 
BRANCH  22  23
ATOM     23  S   UNL     1      -5.937   3.762   0.253  0.00  0.00    -0.079 S 
BRANCH  23  24
ATOM     24  C   UNL     1      -4.715   2.512   0.035  0.00  0.00    +0.209 A 
ATOM     25  N   UNL     1      -3.430   2.705  -0.162  0.00  0.00    -0.120 NA
ATOM     26  N   UNL     1      -2.825   1.577  -0.276  0.00  0.00    -0.123 NA
ATOM     27  C   UNL     1      -3.689   0.592  -0.168  0.00  0.00    +0.217 A 
ATOM     28  N   UNL     1      -4.926   1.162   0.039  0.00  0.00    -0.221 N 
BRANCH  27  29
ATOM     29  C   UNL     1      -3.391  -0.847  -0.245  0.00  0.00    +0.173 A 
ATOM     30  C   UNL     1      -2.243  -1.401  -0.726  0.00  0.00    +0.053 A 
ATOM     31  C   UNL     1      -2.385  -2.797  -0.606  0.00  0.00    +0.042 A 
ATOM     32  C   UNL     1      -3.598  -3.026  -0.064  0.00  0.00    +0.196 A 
ATOM     33  O   UNL     1      -4.203  -1.846   0.152  0.00  0.00    -0.460 OA
ENDBRANCH  27  29
BRANCH  28  34
ATOM     34  N   UNL     1      -6.116   0.513   0.210  0.00  0.00    -0.294 N 
ATOM     35  H   UNL     1      -6.286   0.321   1.186  0.00  0.00    +0.163 HD
ATOM     36  H   UNL     1      -6.877   1.041  -0.192  0.00  0.00    +0.163 HD
ENDBRANCH  28  34
ENDBRANCH  23  24
ENDBRANCH  22  23
ENDBRANCH   2  22
TORSDOF 9
