REMARK  Name = ZINC10024549
REMARK  8 active torsions:
REMARK  status: ('A' for Active; 'I' for Inactive)
REMARK    1  A    between atoms: C_1  and  N_58
REMARK    2  A    between atoms: C_2  and  C_3
REMARK    3  A    between atoms: C_2  and  N_58
REMARK    4  A    between atoms: C_12  and  C_13
REMARK    5  A    between atoms: C_12  and  N_58
REMARK    6  A    between atoms: N_15  and  N_16
REMARK    7  A    between atoms: C_19  and  C_23
REMARK    8  A    between atoms: C_19  and  C_29
REMARK                            x       y       z     vdW  Elec       q    Type
REMARK                         _______ _______ _______ _____ _____    ______ ____
ROOT
ATOM      1  N   UNL     1      -0.583  11.212  -4.407  0.00  0.00    -0.137 N 
ATOM      2  C   UNL     1       0.029  11.700  -5.504  0.00  0.00    +0.272 C 
ATOM      3  O   UNL     1       1.213  11.658  -5.761  0.00  0.00    -0.270 OA
ATOM      4  C   UNL     1      -1.070  12.311  -6.350  0.00  0.00    +0.165 C 
ATOM      5  N   UNL     1      -2.288  12.081  -5.554  0.00  0.00    -0.276 N 
ATOM      6  C   UNL     1      -1.902  11.434  -4.439  0.00  0.00    +0.327 C 
ATOM      7  O   UNL     1      -2.667  11.090  -3.559  0.00  0.00    -0.251 OA
ATOM      8  H   UNL     1      -3.192  12.345  -5.788  0.00  0.00    +0.152 HD
ENDROOT
BRANCH   4   9
ATOM      9  C   UNL     1      -1.168  11.614  -7.683  0.00  0.00    -0.011 A 
ATOM     10  C   UNL     1      -2.396  11.183  -8.148  0.00  0.00    +0.006 A 
ATOM     11  C   UNL     1      -2.487  10.547  -9.373  0.00  0.00    +0.000 A 
ATOM     12  C   UNL     1      -1.349  10.334 -10.127  0.00  0.00    +0.000 A 
ATOM     13  C   UNL     1      -0.120  10.760  -9.659  0.00  0.00    +0.000 A 
ATOM     14  C   UNL     1      -0.029  11.400  -8.437  0.00  0.00    +0.006 A 
ENDBRANCH   4   9
BRANCH   4  15
ATOM     15  C   UNL     1      -0.832  13.787  -6.542  0.00  0.00    -0.011 A 
ATOM     16  C   UNL     1       0.382  14.234  -7.029  0.00  0.00    +0.006 A 
ATOM     17  C   UNL     1       0.598  15.587  -7.209  0.00  0.00    +0.000 A 
ATOM     18  C   UNL     1      -0.397  16.494  -6.894  0.00  0.00    +0.000 A 
ATOM     19  C   UNL     1      -1.609  16.047  -6.402  0.00  0.00    +0.000 A 
ATOM     20  C   UNL     1      -1.827  14.693  -6.226  0.00  0.00    +0.006 A 
ENDBRANCH   4  15
BRANCH   1  23
ATOM     21  C   UNL     1      -0.018   9.221  -3.232  0.00  0.00    +0.213 C 
ATOM     22  O   UNL     1      -0.679   8.582  -4.023  0.00  0.00    -0.276 OA
ATOM     23  N   UNL     1       0.080  10.559  -3.360  0.00  0.00    -0.225 N 
ATOM     24  H   UNL     1       0.609  11.070  -2.728  0.00  0.00    +0.173 HD
BRANCH  21  25
ATOM     25  C   UNL     1       0.695   8.518  -2.106  0.00  0.00    +0.020 C 
BRANCH  25  27
ATOM     26  C   UNL     1      -0.985   6.783  -1.937  0.00  0.00    -0.095 C 
ATOM     27  N   UNL     1       0.440   7.066  -2.212  0.00  0.00    +0.388 N 
ATOM     28  H   UNL     1       0.663   6.757  -3.165  0.00  0.00    -0.081 HD
BRANCH  27  29
ATOM     29  C   UNL     1       1.294   6.331  -1.255  0.00  0.00    -0.015 C 
BRANCH  29  30
ATOM     30  C   UNL     1       1.178   4.855  -1.534  0.00  0.00    +0.063 A 
ATOM     31  N   UNL     1       1.889   4.128  -2.349  0.00  0.00    -0.246 NA
ATOM     32  C   UNL     1       1.681   2.804  -2.509  0.00  0.00    +0.078 A 
ATOM     33  C   UNL     1       2.361   1.890  -3.344  0.00  0.00    +0.029 A 
ATOM     34  C   UNL     1       2.006   0.577  -3.371  0.00  0.00    +0.002 A 
ATOM     35  C   UNL     1       0.971   0.086  -2.586  0.00  0.00    +0.001 A 
ATOM     36  C   UNL     1       0.278   0.950  -1.760  0.00  0.00    +0.017 A 
ATOM     37  C   UNL     1       0.632   2.277  -1.721  0.00  0.00    +0.039 A 
ATOM     38  S   UNL     1       0.064   3.714  -0.849  0.00  0.00    -0.074 S 
ENDBRANCH  29  30
ENDBRANCH  27  29
ENDBRANCH  25  27
ENDBRANCH  21  25
ENDBRANCH   1  23
TORSDOF 7
