REMARK  Name = ZINC13245566
REMARK  8 active torsions:
REMARK  status: ('A' for Active; 'I' for Inactive)
REMARK    1  A    between atoms: C_4  and  O_8
REMARK    2  A    between atoms: O_8  and  C_9
REMARK    3  A    between atoms: C_9  and  C_10
REMARK    4  A    between atoms: C_10  and  N_11
REMARK    5  A    between atoms: N_14  and  CA_15
REMARK    6  A    between atoms: CA_15  and  C_17
REMARK    7  A    between atoms: CA_15  and  C_25
REMARK    8  A    between atoms: C_17  and  C_18
REMARK                            x       y       z     vdW  Elec       q    Type
REMARK                         _______ _______ _______ _____ _____    ______ ____
ROOT
ATOM      1  N   UNL     1       5.443   1.324  -5.875  0.00  0.00    -0.296 N 
ATOM      2  C   UNL     1       5.785   1.423  -4.575  0.00  0.00    +0.300 C 
ATOM      3  O   UNL     1       6.846   0.971  -4.190  0.00  0.00    -0.253 OA
ATOM      4  N   UNL     1       4.952   2.023  -3.703  0.00  0.00    -0.286 N 
ATOM      5  H   UNL     1       4.596   1.685  -6.183  0.00  0.00    +0.150 HD
ATOM      6  H   UNL     1       4.105   2.384  -4.010  0.00  0.00    +0.151 HD
ENDROOT
BRANCH   1   7
ATOM      7  C   UNL     1       6.349   0.671  -6.823  0.00  0.00    +0.146 C 
BRANCH   7   8
ATOM      8  C   UNL     1       5.726   0.692  -8.221  0.00  0.00    +0.248 C 
BRANCH   8   9
ATOM      9  O   UNL     1       5.615   2.043  -8.672  0.00  0.00    -0.489 OA
BRANCH   9  13
ATOM     10  C   UNL     1       3.984   2.641 -12.416  0.00  0.00    +0.021 A 
ATOM     11  C   UNL     1       4.394   3.725 -11.661  0.00  0.00    +0.025 A 
ATOM     12  C   UNL     1       4.941   3.527 -10.407  0.00  0.00    +0.083 A 
ATOM     13  C   UNL     1       5.078   2.240  -9.905  0.00  0.00    +0.140 A 
ATOM     14  C   UNL     1       4.671   1.155 -10.666  0.00  0.00    +0.067 A 
ATOM     15  C   UNL     1       4.119   1.358 -11.918  0.00  0.00    +0.045 A 
ATOM     16 CL   UNL     1       3.602  -0.000 -12.869  0.00  0.00    -0.083 Cl
ATOM     17 CL   UNL     1       5.455   4.888  -9.460  0.00  0.00    -0.080 Cl
ENDBRANCH   9  13
ENDBRANCH   8   9
ENDBRANCH   7   8
ENDBRANCH   1   7
BRANCH   4  18
ATOM     18  CA  UNL     1       5.324   2.131  -2.290  0.00  0.00    +0.196 C 
BRANCH  18  19
ATOM     19  C   UNL     1       6.182   3.353  -2.088  0.00  0.00    +0.376 C 
ATOM     20  O   UNL     1       6.455   4.061  -3.029  0.00  0.00    -0.244 OA
ATOM     21  OXT UNL     1       6.644   3.655  -0.865  0.00  0.00    -0.244 OA
ENDBRANCH  18  19
BRANCH  18  22
ATOM     22  C   UNL     1       4.059   2.250  -1.437  0.00  0.00    +0.130 C 
BRANCH  22  23
ATOM     23  C   UNL     1       3.260   0.977  -1.543  0.00  0.00    +0.218 C 
ATOM     24  O   UNL     1       3.662   0.064  -2.233  0.00  0.00    -0.276 OA
ATOM     25  N   UNL     1       2.098   0.853  -0.871  0.00  0.00    -0.301 N 
ATOM     26  C   UNL     1       1.494   1.879  -0.002  0.00  0.00    +0.108 C 
ATOM     27  C   UNL     1      -0.019   1.547   0.011  0.00  0.00    +0.020 C 
ATOM     28  C   UNL     1       0.002  -0.004   0.002  0.00  0.00    +0.020 C 
ATOM     29  C   UNL     1       1.223  -0.328  -0.885  0.00  0.00    +0.108 C 
ENDBRANCH  22  23
ENDBRANCH  18  22
ENDBRANCH   4  18
TORSDOF 8
