REMARK  Name = ZINC06190960
REMARK  14 active torsions:
REMARK  status: ('A' for Active; 'I' for Inactive)
REMARK    1  A    between atoms: C_1  and  C_2
REMARK    2  A    between atoms: C_2  and  C_38
REMARK    3  A    between atoms: N_5  and  C_9
REMARK    4  A    between atoms: C_9  and  C_10
REMARK    5  A    between atoms: C_10  and  C_12
REMARK    6  A    between atoms: C_10  and  O_37
REMARK    7  A    between atoms: C_12  and  N_13
REMARK    8  A    between atoms: N_20  and  C_23
REMARK    9  A    between atoms: C_23  and  C_24
REMARK   10  A    between atoms: C_24  and  C_26
REMARK   11  A    between atoms: C_24  and  O_36
REMARK   12  A    between atoms: C_26  and  N_27
REMARK   13  A    between atoms: C_30  and  C_34
REMARK   14  A    between atoms: C_30  and  C_35
REMARK                            x       y       z     vdW  Elec       q    Type
REMARK                         _______ _______ _______ _____ _____    ______ ____
ROOT
ATOM      1  N   UNL     1      -2.264   4.076   0.045  0.00  0.00    -0.289 N 
ATOM      2  C   UNL     1      -1.238   3.134   0.031  0.00  0.00    +0.070 A 
ATOM      3  C   UNL     1      -1.220   1.747   0.017  0.00  0.00    +0.028 A 
ATOM      4  C   UNL     1      -0.013   1.076   0.008  0.00  0.00    +0.002 A 
ATOM      5  C   UNL     1       1.179   1.781   0.000  0.00  0.00    +0.002 A 
ATOM      6  C   UNL     1       1.170   3.162   0.008  0.00  0.00    +0.028 A 
ATOM      7  C   UNL     1      -0.037   3.845   0.023  0.00  0.00    +0.070 A 
ATOM      8  N   UNL     1      -0.370   5.197   0.033  0.00  0.00    -0.289 N 
ATOM      9  C   UNL     1      -1.712   5.304   0.046  0.00  0.00    +0.330 A 
ATOM     10  O   UNL     1      -2.332   6.351   0.057  0.00  0.00    -0.246 OA
ENDROOT
BRANCH   1  11
ATOM     11  C   UNL     1      -3.699   3.781   0.057  0.00  0.00    +0.159 C 
BRANCH  11  12
ATOM     12  C   UNL     1      -4.185   3.671   1.504  0.00  0.00    +0.152 C 
BRANCH  12  13
ATOM     13  O   UNL     1      -3.477   2.621   2.166  0.00  0.00    -0.388 OA
ATOM     14  H   UNL     1      -3.593   1.752   1.759  0.00  0.00    +0.210 HD
ENDBRANCH  12  13
BRANCH  12  15
ATOM     15  C   UNL     1      -5.683   3.363   1.517  0.00  0.00    +0.151 C 
BRANCH  15  20
ATOM     16  C   UNL     1      -6.215   4.760   5.970  0.00  0.00    +0.041 C 
ATOM     17  C   UNL     1      -7.035   4.015   4.914  0.00  0.00    +0.107 C 
ATOM     18  C   UNL     1      -6.650   4.472   3.521  0.00  0.00    +0.246 C 
ATOM     19  O   UNL     1      -6.752   5.589   3.062  0.00  0.00    -0.273 OA
ATOM     20  N   UNL     1      -6.173   3.376   2.897  0.00  0.00    -0.222 N 
ATOM     21  C   UNL     1      -6.206   2.301   3.693  0.00  0.00    +0.309 C 
ATOM     22  O   UNL     1      -5.832   1.196   3.352  0.00  0.00    -0.252 OA
ATOM     23  N   UNL     1      -6.697   2.581   4.914  0.00  0.00    -0.285 N 
ATOM     24  C   UNL     1      -8.533   4.216   5.152  0.00  0.00    +0.041 C 
ATOM     25  H   UNL     1      -6.811   1.959   5.649  0.00  0.00    +0.151 HD
ENDBRANCH  15  20
ENDBRANCH  12  15
ENDBRANCH  11  12
ENDBRANCH   1  11
BRANCH   8  26
ATOM     26  C   UNL     1       0.579   6.314   0.030  0.00  0.00    +0.159 C 
BRANCH  26  27
ATOM     27  C   UNL     1       0.896   6.710  -1.414  0.00  0.00    +0.152 C 
BRANCH  27  28
ATOM     28  O   UNL     1       1.471   5.595  -2.098  0.00  0.00    -0.388 OA
ATOM     29  H   UNL     1       2.292   5.272  -1.703  0.00  0.00    +0.210 HD
ENDBRANCH  27  28
BRANCH  27  30
ATOM     30  C   UNL     1       1.886   7.876  -1.417  0.00  0.00    +0.151 C 
BRANCH  30  31
ATOM     31  N   UNL     1       2.099   8.333  -2.792  0.00  0.00    -0.222 N 
ATOM     32  C   UNL     1       1.363   9.288  -3.395  0.00  0.00    +0.246 C 
ATOM     33  O   UNL     1       0.435   9.907  -2.919  0.00  0.00    -0.273 OA
ATOM     34  C   UNL     1       1.936   9.427  -4.791  0.00  0.00    +0.107 C 
ATOM     35  N   UNL     1       3.031   8.442  -4.815  0.00  0.00    -0.285 N 
ATOM     36  C   UNL     1       3.051   7.858  -3.604  0.00  0.00    +0.309 C 
ATOM     37  O   UNL     1       3.842   6.993  -3.283  0.00  0.00    -0.252 OA
ATOM     38  C   UNL     1       0.880   9.083  -5.843  0.00  0.00    +0.041 C 
ATOM     39  C   UNL     1       2.478  10.840  -5.012  0.00  0.00    +0.041 C 
ATOM     40  H   UNL     1       3.625   8.254  -5.559  0.00  0.00    +0.151 HD
ENDBRANCH  30  31
ENDBRANCH  27  30
ENDBRANCH  26  27
ENDBRANCH   8  26
TORSDOF 10
