REMARK  Name = ZINC58073698
REMARK  10 active torsions:
REMARK  status: ('A' for Active; 'I' for Inactive)
REMARK    1  A    between atoms: C_1  and  C_2
REMARK    2  A    between atoms: C_2  and  C_3
REMARK    3  A    between atoms: C_4  and  C_5
REMARK    4  A    between atoms: C_4  and  C_6
REMARK    5  A    between atoms: N_8  and  C_9
REMARK    6  A    between atoms: C_9  and  C_10
REMARK    7  A    between atoms: C_13  and  S_15
REMARK    8  A    between atoms: S_15  and  N_18
REMARK    9  A    between atoms: N_18  and  C_19
REMARK   10  A    between atoms: N_18  and  C_20
REMARK                            x       y       z     vdW  Elec       q    Type
REMARK                         _______ _______ _______ _____ _____    ______ ____
ROOT
ATOM      1  C   UNL     1      -3.797  -3.688   3.525  0.00  0.00    +0.009 A 
ATOM      2  C   UNL     1      -4.481  -3.220   4.597  0.00  0.00    +0.015 A 
ATOM      3  C   UNL     1      -4.871  -4.107   5.583  0.00  0.00    +0.037 A 
ATOM      4  C   UNL     1      -4.558  -5.419   5.447  0.00  0.00    +0.143 A 
ATOM      5  S   UNL     1      -3.691  -5.433   3.886  0.00  0.00    -0.072 S 
ENDROOT
BRANCH   4   6
ATOM      6  S   UNL     1      -4.919  -6.763   6.528  0.00  0.00    +0.067 S 
ATOM      7  O   UNL     1      -3.950  -7.769   6.263  0.00  0.00    -0.152 OA
ATOM      8  O   UNL     1      -5.104  -6.206   7.822  0.00  0.00    -0.152 OA
BRANCH   6   9
ATOM      9  N   UNL     1      -6.383  -7.383   6.066  0.00  0.00    -0.182 NA
ATOM     10  C   UNL     1      -6.443  -8.454   5.067  0.00  0.00    +0.131 C 
ATOM     11  C   UNL     1      -7.619  -6.862   6.655  0.00  0.00    +0.131 C 
ENDBRANCH   6   9
ENDBRANCH   4   6
BRANCH   1  12
ATOM     12  C   UNL     1      -3.268  -2.932   2.333  0.00  0.00    +0.147 C 
BRANCH  12  15
ATOM     13  C   UNL     1      -1.225  -1.775   1.679  0.00  0.00    +0.240 C 
ATOM     14  O   UNL     1      -1.747  -1.520   0.611  0.00  0.00    -0.271 OA
ATOM     15  N   UNL     1      -1.903  -2.477   2.609  0.00  0.00    -0.307 N 
ATOM     16  H   UNL     1      -1.487  -2.681   3.462  0.00  0.00    +0.149 HD
BRANCH  13  18
ATOM     17  C   UNL     1       1.161  -2.172   1.866  0.00  0.00    -0.019 C 
ATOM     18  C   UNL     1       0.145  -1.319   1.957  0.00  0.00    +0.007 C 
ATOM     19  C   UNL     1       0.398   0.116   2.344  0.00  0.00    +0.049 C 
BRANCH  17  21
ATOM     20  C   UNL     1       1.821  -3.834   0.149  0.00  0.00    +0.008 C 
ATOM     21  C   UNL     1       0.927  -3.572   1.362  0.00  0.00    +0.024 C 
ENDBRANCH  17  21
ENDBRANCH  13  18
ENDBRANCH  12  15
ENDBRANCH   1  12
TORSDOF 6
