REMARK  Name = ZINC45606076
REMARK  6 active torsions:
REMARK  status: ('A' for Active; 'I' for Inactive)
REMARK    1  A    between atoms: C_1  and  C_2
REMARK    2  A    between atoms: N_8  and  C_9
REMARK    3  A    between atoms: C_9  and  C_10
REMARK    4  A    between atoms: C_10  and  C_12
REMARK    5  A    between atoms: C_13  and  N_24
REMARK    6  A    between atoms: N_14  and  C_21
REMARK                            x       y       z     vdW  Elec       q    Type
REMARK                         _______ _______ _______ _____ _____    ______ ____
ROOT
ATOM      1  C   UNL     1       3.990   0.405   2.937  0.00  0.00    +0.118 A 
ATOM      2  C   UNL     1       4.736  -0.260   3.925  0.00  0.00    +0.116 A 
ATOM      3  N   UNL     1       6.092  -0.095   3.953  0.00  0.00    -0.278 N 
ATOM      4  C   UNL     1       6.718   0.686   3.059  0.00  0.00    +0.331 A 
ATOM      5  O   UNL     1       7.926   0.800   3.126  0.00  0.00    -0.246 OA
ATOM      6  N   UNL     1       6.059   1.345   2.092  0.00  0.00    -0.274 N 
ATOM      7  H   UNL     1       6.553   1.899   1.468  0.00  0.00    +0.173 HD
ATOM      8  C   UNL     1       4.718   1.244   1.976  0.00  0.00    +0.266 A 
ATOM      9  O   UNL     1       4.125   1.839   1.095  0.00  0.00    -0.267 OA
ENDROOT
BRANCH   3  10
ATOM     10  C   UNL     1       6.878  -0.784   4.979  0.00  0.00    +0.094 C 
ATOM     11  C   UNL     1       8.132  -1.533   4.524  0.00  0.00    +0.027 C 
ATOM     12  C   UNL     1       6.888  -2.313   4.954  0.00  0.00    +0.027 C 
ENDBRANCH   3  10
BRANCH   2  13
ATOM     13  N   UNL     1       4.118  -1.055   4.840  0.00  0.00    -0.344 N 
ATOM     14  H   UNL     1       3.281  -1.491   4.617  0.00  0.00    +0.144 HD
ATOM     15  H   UNL     1       4.514  -1.185   5.716  0.00  0.00    +0.144 HD
ENDBRANCH   2  13
BRANCH   1  16
ATOM     16  C   UNL     1       2.588   0.266   2.866  0.00  0.00    +0.155 C 
ATOM     17  O   UNL     1       2.019  -0.526   3.590  0.00  0.00    -0.294 OA
BRANCH  16  18
ATOM     18  C   UNL     1       1.796   1.100   1.892  0.00  0.00    +0.003 C 
BRANCH  18  25
ATOM     19  C   UNL     1      -0.120   3.120   1.528  0.00  0.00    -0.013 C 
ATOM     20  C   UNL     1      -0.412   1.666   1.150  0.00  0.00    -0.071 C 
ATOM     21  C   UNL     1      -1.904   1.382   1.334  0.00  0.00    -0.016 C 
ATOM     22  C   UNL     1      -2.191  -0.073   0.954  0.00  0.00    -0.003 C 
ATOM     23  C   UNL     1      -1.315  -0.996   1.807  0.00  0.00    -0.019 C 
ATOM     24  C   UNL     1       0.155  -0.623   1.606  0.00  0.00    -0.078 C 
ATOM     25  N   UNL     1       0.370   0.771   2.012  0.00  0.00    +0.386 N 
ATOM     26  H   UNL     1       0.079   0.890   2.971  0.00  0.00    -0.081 HD
ENDBRANCH  18  25
ENDBRANCH  16  18
ENDBRANCH   1  16
TORSDOF 5
