REMARK  Name = ZINC63522123
REMARK  8 active torsions:
REMARK  status: ('A' for Active; 'I' for Inactive)
REMARK    1  A    between atoms: C_1  and  C_2
REMARK    2  A    between atoms: C_2  and  C_3
REMARK    3  A    between atoms: C_2  and  N_10
REMARK    4  A    between atoms: N_10  and  C_11
REMARK    5  A    between atoms: N_10  and  C_12
REMARK    6  A    between atoms: C_12  and  C_13
REMARK    7  A    between atoms: C_13  and  C_14
REMARK    8  A    between atoms: N_16  and  N_17
REMARK                            x       y       z     vdW  Elec       q    Type
REMARK                         _______ _______ _______ _____ _____    ______ ____
ROOT
ATOM      1  C   UNL     1       1.382  -3.975   2.474  0.00  0.00    +0.228 C 
ATOM      2  O   UNL     1       0.937  -4.582   1.524  0.00  0.00    -0.274 OA
ATOM      3  N   UNL     1       1.894  -4.648   3.524  0.00  0.00    -0.224 N 
ATOM      4  H   UNL     1       2.250  -4.162   4.284  0.00  0.00    +0.174 HD
ENDROOT
BRANCH   3   5
ATOM      5  N   UNL     1       1.913  -6.049   3.516  0.00  0.00    -0.137 N 
ATOM      6  C   UNL     1       1.072  -6.822   4.233  0.00  0.00    +0.263 C 
ATOM      7  O   UNL     1       0.190  -6.453   4.979  0.00  0.00    -0.271 OA
ATOM      8  C   UNL     1       1.461  -8.247   3.912  0.00  0.00    +0.114 C 
ATOM      9  C   UNL     1       0.295  -8.982   3.259  0.00  0.00    +0.035 C 
ATOM     10  C   UNL     1       0.720 -10.412   2.914  0.00  0.00    +0.003 C 
ATOM     11  C   UNL     1       1.151 -11.137   4.191  0.00  0.00    +0.000 C 
ATOM     12  C   UNL     1       2.336 -10.401   4.821  0.00  0.00    +0.003 C 
ATOM     13  C   UNL     1       1.918  -8.971   5.173  0.00  0.00    +0.035 C 
ATOM     14  N   UNL     1       2.576  -8.108   2.966  0.00  0.00    -0.284 N 
ATOM     15  C   UNL     1       2.764  -6.786   2.792  0.00  0.00    +0.326 C 
ATOM     16  O   UNL     1       3.614  -6.314   2.062  0.00  0.00    -0.251 OA
ATOM     17  H   UNL     1       3.075  -8.826   2.547  0.00  0.00    +0.151 HD
ENDBRANCH   3   5
BRANCH   1  18
ATOM     18  C   UNL     1       1.361  -2.468   2.483  0.00  0.00    +0.079 C 
BRANCH  18  19
ATOM     19  C   UNL     1       0.733  -1.960   1.184  0.00  0.00    -0.069 C 
BRANCH  19  20
ATOM     20  N   UNL     1       0.713  -0.491   1.192  0.00  0.00    +0.383 N 
ATOM     21  C   UNL     1       2.091   0.018   1.182  0.00  0.00    -0.095 C 
ATOM     22  H   UNL     1       0.240  -0.165   2.022  0.00  0.00    -0.081 HD
BRANCH  20  24
ATOM     23  C   UNL     1      -0.019   1.526   0.010  0.00  0.00    -0.008 C 
ATOM     24  C   UNL     1       0.002  -0.004   0.002  0.00  0.00    -0.038 C 
BRANCH  24  25
ATOM     25  C   UNL     1      -1.412  -0.526   0.013  0.00  0.00    -0.026 A 
ATOM     26  C   UNL     1      -2.015  -0.864   1.210  0.00  0.00    +0.005 A 
ATOM     27  C   UNL     1      -3.312  -1.342   1.220  0.00  0.00    +0.000 A 
ATOM     28  C   UNL     1      -4.007  -1.483   0.033  0.00  0.00    +0.003 A 
ATOM     29  C   UNL     1      -3.406  -1.145  -1.165  0.00  0.00    +0.038 A 
ATOM     30  C   UNL     1      -2.109  -0.661  -1.176  0.00  0.00    +0.125 A 
ATOM     31  F   UNL     1      -1.522  -0.326  -2.345  0.00  0.00    -0.205 F 
ENDBRANCH  24  25
ENDBRANCH  20  24
ENDBRANCH  19  20
ENDBRANCH  18  19
ENDBRANCH   1  18
TORSDOF 6
