REMARK  Name = ZINC47334048
REMARK  5 active torsions:
REMARK  status: ('A' for Active; 'I' for Inactive)
REMARK    1  A    between atoms: C_1  and  N_2
REMARK    2  A    between atoms: N_2  and  C_3
REMARK    3  A    between atoms: C_3  and  C_4
REMARK    4  A    between atoms: C_9  and  O_10
REMARK    5  A    between atoms: N_13  and  C_14
REMARK                            x       y       z     vdW  Elec       q    Type
REMARK                         _______ _______ _______ _____ _____    ______ ____
ROOT
ATOM      1  C   UNL     1       0.008   1.462   0.009  0.00  0.00    +0.134 C 
ATOM      2  N   UNL     1       0.019  -0.003   0.002  0.00  0.00    -0.284 N 
ATOM      3  C   UNL     1       0.005  -0.671  -1.169  0.00  0.00    +0.307 C 
ATOM      4  O   UNL     1       0.014  -1.887  -1.175  0.00  0.00    -0.252 OA
ATOM      5  N   UNL     1      -0.020   0.009  -2.332  0.00  0.00    -0.267 N 
ATOM      6  H   UNL     1      -0.110   0.974  -2.328  0.00  0.00    +0.156 HD
ENDROOT
BRANCH   5   7
ATOM      7  C   UNL     1       0.084  -0.680  -3.549  0.00  0.00    +0.073 A 
ATOM      8  C   UNL     1       0.706  -1.920  -3.594  0.00  0.00    +0.029 A 
ATOM      9  C   UNL     1       0.808  -2.599  -4.794  0.00  0.00    +0.043 A 
ATOM     10  C   UNL     1       0.290  -2.044  -5.952  0.00  0.00    +0.161 A 
ATOM     11  C   UNL     1      -0.332  -0.806  -5.911  0.00  0.00    +0.195 A 
ATOM     12  C   UNL     1      -0.442  -0.126  -4.710  0.00  0.00    +0.182 A 
ATOM     13  F   UNL     1      -1.053   1.078  -4.667  0.00  0.00    -0.200 F 
ATOM     14  F   UNL     1      -0.837  -0.266  -7.042  0.00  0.00    -0.199 F 
ATOM     15  F   UNL     1       0.392  -2.709  -7.123  0.00  0.00    -0.202 F 
ENDBRANCH   5   7
BRANCH   2  16
ATOM     16  C   UNL     1       0.046  -0.742   1.267  0.00  0.00    +0.147 C 
BRANCH  16  17
ATOM     17  C   UNL     1      -1.365  -1.006   1.724  0.00  0.00    +0.011 A 
ATOM     18  C   UNL     1      -1.939  -0.205   2.692  0.00  0.00    +0.009 A 
ATOM     19  C   UNL     1      -3.234  -0.447   3.113  0.00  0.00    +0.001 A 
ATOM     20  C   UNL     1      -3.957  -1.491   2.566  0.00  0.00    +0.004 A 
ATOM     21  C   UNL     1      -3.388  -2.295   1.598  0.00  0.00    +0.046 A 
ATOM     22  C   UNL     1      -2.091  -2.050   1.170  0.00  0.00    +0.122 A 
BRANCH  22  23
ATOM     23  O   UNL     1      -1.530  -2.836   0.213  0.00  0.00    -0.506 OA
ATOM     24  H   UNL     1      -1.063  -3.608   0.562  0.00  0.00    +0.292 HD
ENDBRANCH  22  23
ENDBRANCH  16  17
ENDBRANCH   2  16
TORSDOF 4
