REMARK  Name = ZINC06134216
REMARK  13 active torsions:
REMARK  status: ('A' for Active; 'I' for Inactive)
REMARK    1  A    between atoms: C_1  and  C_2
REMARK    2  A    between atoms: C_2  and  C_3
REMARK    3  A    between atoms: C_2  and  C_4
REMARK    4  A    between atoms: C_4  and  C_5
REMARK    5  A    between atoms: C_5  and  N_6
REMARK    6  A    between atoms: C_7  and  C_9
REMARK    7  A    between atoms: C_9  and  C_11
REMARK    8  A    between atoms: C_9  and  N_18
REMARK    9  A    between atoms: C_14  and  O_17
REMARK   10  A    between atoms: N_18  and  C_19
REMARK   11  A    between atoms: C_26  and  C_28
REMARK   12  A    between atoms: C_29  and  N_36
REMARK   13  A    between atoms: C_30  and  C_33
REMARK                            x       y       z     vdW  Elec       q    Type
REMARK                         _______ _______ _______ _____ _____    ______ ____
ROOT
ATOM      1  N   UNL     1       3.575   1.762  -0.885  0.00  0.00    -0.251 N 
ATOM      2  C   UNL     1       4.403   0.932  -1.551  0.00  0.00    +0.262 C 
ATOM      3  O   UNL     1       4.602  -0.194  -1.132  0.00  0.00    -0.269 OA
ENDROOT
BRANCH   1   4
ATOM      4  C   UNL     1       3.412   3.081  -1.319  0.00  0.00    +0.040 A 
ATOM      5  C   UNL     1       2.189   3.499  -1.829  0.00  0.00    +0.024 A 
ATOM      6  C   UNL     1       2.029   4.803  -2.256  0.00  0.00    +0.005 A 
ATOM      7  C   UNL     1       3.084   5.693  -2.178  0.00  0.00    +0.038 A 
ATOM      8  C   UNL     1       4.305   5.280  -1.670  0.00  0.00    +0.125 A 
ATOM      9  C   UNL     1       4.469   3.977  -1.235  0.00  0.00    +0.062 A 
ATOM     10  F   UNL     1       5.335   6.152  -1.595  0.00  0.00    -0.205 F 
ENDBRANCH   1   4
BRANCH   2  11
ATOM     11  C   UNL     1       5.063   1.384  -2.777  0.00  0.00    +0.116 A 
ATOM     12  C   UNL     1       6.039   0.745  -3.544  0.00  0.00    +0.076 A 
ATOM     13  C   UNL     1       6.424   1.498  -4.653  0.00  0.00    +0.155 A 
ATOM     14  N   UNL     1       5.865   2.669  -4.861  0.00  0.00    -0.203 NA
ATOM     15  S   UNL     1       4.829   2.892  -3.694  0.00  0.00    +0.019 S 
BRANCH  13  16
ATOM     16  C   UNL     1       7.447   0.985  -5.583  0.00  0.00    +0.262 C 
ATOM     17  O   UNL     1       7.960  -0.099  -5.384  0.00  0.00    -0.269 OA
ATOM     18  N   UNL     1       7.814   1.719  -6.652  0.00  0.00    -0.324 N 
ATOM     19  H   UNL     1       7.405   2.584  -6.811  0.00  0.00    +0.145 HD
ATOM     20  H   UNL     1       8.487   1.381  -7.264  0.00  0.00    +0.145 HD
ENDBRANCH  13  16
BRANCH  12  21
ATOM     21  N   UNL     1       6.568  -0.502  -3.236  0.00  0.00    -0.355 N 
ATOM     22  H   UNL     1       6.260  -0.978  -2.450  0.00  0.00    +0.142 HD
ATOM     23  H   UNL     1       7.245  -0.896  -3.808  0.00  0.00    +0.142 HD
ENDBRANCH  12  21
ENDBRANCH   2  11
BRANCH   1  24
ATOM     24  C   UNL     1       2.848   1.282   0.292  0.00  0.00    +0.197 C 
BRANCH  24  25
ATOM     25  C   UNL     1       1.854   2.327   0.729  0.00  0.00    -0.018 A 
ATOM     26  C   UNL     1       0.516   2.000   0.850  0.00  0.00    +0.009 A 
ATOM     27  C   UNL     1      -0.398   2.958   1.245  0.00  0.00    +0.046 A 
ATOM     28  C   UNL     1       0.030   4.246   1.531  0.00  0.00    +0.117 A 
ATOM     29  C   UNL     1       1.373   4.572   1.408  0.00  0.00    +0.046 A 
ATOM     30  C   UNL     1       2.282   3.612   1.007  0.00  0.00    +0.009 A 
BRANCH  28  31
ATOM     31  O   UNL     1      -0.866   5.189   1.925  0.00  0.00    -0.507 OA
ATOM     32  H   UNL     1      -1.258   5.689   1.195  0.00  0.00    +0.292 HD
ENDBRANCH  28  31
ENDBRANCH  24  25
BRANCH  24  34
ATOM     33  N   UNL     1       3.376   0.564   2.600  0.00  0.00    -0.313 N 
ATOM     34  C   UNL     1       3.822   1.016   1.411  0.00  0.00    +0.238 C 
ATOM     35  O   UNL     1       5.007   1.208   1.241  0.00  0.00    -0.273 OA
ATOM     36  H   UNL     1       2.428   0.410   2.735  0.00  0.00    +0.149 HD
BRANCH  33  37
ATOM     37  C   UNL     1       4.322   0.306   3.687  0.00  0.00    +0.104 C 
BRANCH  37  38
ATOM     38  C   UNL     1       3.562  -0.195   4.917  0.00  0.00    +0.022 C 
BRANCH  38  40
ATOM     39  C   UNL     1       3.782  -0.846   7.319  0.00  0.00    +0.007 C 
ATOM     40  C   UNL     1       4.551  -0.465   6.053  0.00  0.00    -0.016 C 
ATOM     41  C   UNL     1       5.482  -1.613   5.657  0.00  0.00    +0.007 C 
ENDBRANCH  38  40
ENDBRANCH  37  38
ENDBRANCH  33  37
ENDBRANCH  24  34
ENDBRANCH   1  24
TORSDOF 11
