REMARK  Name = ZINC34868071
REMARK  4 active torsions:
REMARK  status: ('A' for Active; 'I' for Inactive)
REMARK    1  A    between atoms: C_5  and  C_6
REMARK    2  A    between atoms: C_14  and  C_17
REMARK    3  A    between atoms: C_17  and  N_18
REMARK    4  A    between atoms: C_23  and  C_25
REMARK                            x       y       z     vdW  Elec       q    Type
REMARK                         _______ _______ _______ _____ _____    ______ ____
ROOT
ATOM      1  C   UNL     1      -1.109  -0.984  -0.301  0.00  0.00    +0.341 C 
ATOM      2  O   UNL     1      -1.820  -0.710  -1.514  0.00  0.00    -0.333 OA
ATOM      3  C   UNL     1      -3.124  -1.298  -1.542  0.00  0.00    +0.203 C 
ATOM      4  C   UNL     1      -3.028  -2.746  -1.133  0.00  0.00    +0.023 A 
ATOM      5  C   UNL     1      -4.078  -3.603  -1.402  0.00  0.00    +0.047 A 
ATOM      6  C   UNL     1      -4.001  -4.934  -1.028  0.00  0.00    +0.124 A 
ATOM      7  C   UNL     1      -2.871  -5.408  -0.383  0.00  0.00    +0.043 A 
ATOM      8  C   UNL     1      -1.820  -4.554  -0.115  0.00  0.00    -0.019 A 
ATOM      9  C   UNL     1      -1.895  -3.220  -0.491  0.00  0.00    +0.131 A 
ATOM     10  O   UNL     1      -0.850  -2.388  -0.225  0.00  0.00    -0.459 OA
ATOM     11  F   UNL     1      -5.029  -5.770  -1.291  0.00  0.00    -0.205 F 
ENDROOT
BRANCH   1  16
ATOM     12  C   UNL     1       0.207   1.152  -0.371  0.00  0.00    +0.017 A 
ATOM     13  C   UNL     1       1.398   1.800  -0.366  0.00  0.00    +0.045 A 
ATOM     14  S   UNL     1       2.555   0.446  -0.255  0.00  0.00    -0.105 S 
ATOM     15  C   UNL     1       1.375  -0.893  -0.223  0.00  0.00    +0.055 A 
ATOM     16  C   UNL     1       0.196  -0.229  -0.298  0.00  0.00    +0.027 A 
ENDBRANCH   1  16
BRANCH   8  17
ATOM     17  C   UNL     1      -0.590  -5.070   0.587  0.00  0.00    -0.038 C 
BRANCH  17  18
ATOM     18  N   UNL     1      -0.651  -4.710   2.010  0.00  0.00    +0.390 N 
ATOM     19  C   UNL     1      -1.809  -5.365   2.630  0.00  0.00    -0.077 C 
ATOM     20  C   UNL     1      -1.924  -4.929   4.092  0.00  0.00    -0.019 C 
ATOM     21  C   UNL     1      -0.649  -5.329   4.840  0.00  0.00    -0.003 C 
ATOM     22  C   UNL     1       0.560  -4.701   4.140  0.00  0.00    -0.006 C 
ATOM     23  C   UNL     1       0.583  -5.145   2.676  0.00  0.00    +0.019 C 
ATOM     24  H   UNL     1      -0.745  -3.709   2.099  0.00  0.00    -0.080 HD
BRANCH  23  25
ATOM     25  C   UNL     1       1.771  -4.529   1.984  0.00  0.00    +0.197 C 
ATOM     26  O   UNL     1       1.661  -3.455   1.431  0.00  0.00    -0.278 OA
ATOM     27  N   UNL     1       2.956  -5.171   1.979  0.00  0.00    -0.331 N 
ATOM     28  H   UNL     1       3.044  -6.030   2.422  0.00  0.00    +0.145 HD
ATOM     29  H   UNL     1       3.720  -4.775   1.533  0.00  0.00    +0.145 HD
ENDBRANCH  23  25
ENDBRANCH  17  18
ENDBRANCH   8  17
TORSDOF 4
