REMARK  Name = ZINC35092965
REMARK  10 active torsions:
REMARK  status: ('A' for Active; 'I' for Inactive)
REMARK    1  A    between atoms: C_1  and  C_2
REMARK    2  A    between atoms: C_2  and  O_3
REMARK    3  A    between atoms: O_3  and  C_4
REMARK    4  A    between atoms: C_6  and  C_11
REMARK    5  A    between atoms: C_9  and  O_10
REMARK    6  A    between atoms: C_13  and  C_25
REMARK    7  A    between atoms: C_15  and  C_20
REMARK    8  A    between atoms: C_15  and  O_24
REMARK    9  A    between atoms: C_25  and  C_27
REMARK   10  A    between atoms: C_30  and  C_33
REMARK                            x       y       z     vdW  Elec       q    Type
REMARK                         _______ _______ _______ _____ _____    ______ ____
ROOT
ATOM      1  C   UNL     1       0.298  -4.949   0.022  0.00  0.00    +0.120 C 
ATOM      2  C   UNL     1       0.865  -5.092   1.439  0.00  0.00    +0.144 C 
ATOM      3  C   UNL     1      -0.017  -6.071   2.221  0.00  0.00    +0.243 C 
ATOM      4  N   UNL     1      -0.099  -7.335   1.488  0.00  0.00    -0.264 N 
ATOM      5  C   UNL     1       0.004  -7.374   0.151  0.00  0.00    +0.302 C 
ATOM      6  O   UNL     1      -0.082  -8.449  -0.410  0.00  0.00    -0.253 OA
ATOM      7  N   UNL     1       0.199  -6.273  -0.593  0.00  0.00    -0.292 N 
ATOM      8  H   UNL     1      -0.231  -8.161   1.978  0.00  0.00    +0.153 HD
ATOM      9  H   UNL     1       0.276  -6.357  -1.556  0.00  0.00    +0.151 HD
ENDROOT
BRANCH   1  12
ATOM     10  C   UNL     1      -2.452  -2.370   0.264  0.00  0.00    +0.162 A 
ATOM     11  C   UNL     1      -1.195  -2.949   0.202  0.00  0.00    +0.055 A 
ATOM     12  C   UNL     1      -1.070  -4.321   0.089  0.00  0.00    -0.023 A 
ATOM     13  C   UNL     1      -2.198  -5.119   0.036  0.00  0.00    +0.009 A 
ATOM     14  C   UNL     1      -3.456  -4.547   0.097  0.00  0.00    +0.049 A 
ATOM     15  C   UNL     1      -3.587  -3.173   0.216  0.00  0.00    +0.158 A 
BRANCH  15  16
ATOM     16  O   UNL     1      -4.824  -2.610   0.282  0.00  0.00    -0.503 OA
ATOM     17  H   UNL     1      -5.195  -2.376  -0.579  0.00  0.00    +0.292 HD
ENDBRANCH  15  16
BRANCH  10  18
ATOM     18  O   UNL     1      -2.576  -1.020   0.376  0.00  0.00    -0.489 OA
BRANCH  18  20
ATOM     19  C   UNL     1      -1.706   1.228   0.544  0.00  0.00    +0.048 C 
ATOM     20  C   UNL     1      -1.368  -0.259   0.418  0.00  0.00    +0.226 C 
ENDBRANCH  18  20
ENDBRANCH  10  18
ENDBRANCH   1  12
BRANCH   3  21
ATOM     21  C   UNL     1       0.594  -6.319   3.601  0.00  0.00    +0.436 C 
ATOM     22  F   UNL     1       0.834  -5.094   4.233  0.00  0.00    -0.166 F 
ATOM     23  F   UNL     1      -0.292  -7.077   4.374  0.00  0.00    -0.166 F 
ATOM     24  F   UNL     1       1.800  -7.014   3.459  0.00  0.00    -0.166 F 
ENDBRANCH   3  21
BRANCH   3  25
ATOM     25  O   UNL     1      -1.327  -5.519   2.369  0.00  0.00    -0.364 OA
ATOM     26  H   UNL     1      -1.940  -6.087   2.856  0.00  0.00    +0.212 HD
ENDBRANCH   3  25
BRANCH   2  27
ATOM     27  C   UNL     1       2.275  -5.621   1.368  0.00  0.00    +0.173 C 
ATOM     28  O   UNL     1       2.473  -6.780   1.074  0.00  0.00    -0.292 OA
BRANCH  27  29
ATOM     29  C   UNL     1       3.410  -4.730   1.657  0.00  0.00    +0.018 A 
ATOM     30  C   UNL     1       3.193  -3.370   1.896  0.00  0.00    +0.011 A 
ATOM     31  C   UNL     1       4.262  -2.541   2.166  0.00  0.00    +0.004 A 
ATOM     32  C   UNL     1       5.547  -3.054   2.200  0.00  0.00    -0.050 A 
ATOM     33  C   UNL     1       5.771  -4.399   1.964  0.00  0.00    +0.004 A 
ATOM     34  C   UNL     1       4.711  -5.241   1.698  0.00  0.00    +0.011 A 
ATOM     35  C   UNL     1       6.710  -2.141   2.496  0.00  0.00    +0.044 C 
ENDBRANCH  27  29
ENDBRANCH   2  27
TORSDOF 8
