REMARK  Name = ZINC66651193
REMARK  10 active torsions:
REMARK  status: ('A' for Active; 'I' for Inactive)
REMARK    1  A    between atoms: C_1  and  C_2
REMARK    2  A    between atoms: C_2  and  C_3
REMARK    3  A    between atoms: C_3  and  C_5
REMARK    4  A    between atoms: C_3  and  C_6
REMARK    5  A    between atoms: C_6  and  C_8
REMARK    6  A    between atoms: C_6  and  N_27
REMARK    7  A    between atoms: C_13  and  C_16
REMARK    8  A    between atoms: C_16  and  C_17
REMARK    9  A    between atoms: N_22  and  C_25
REMARK   10  A    between atoms: C_25  and  C_26
REMARK                            x       y       z     vdW  Elec       q    Type
REMARK                         _______ _______ _______ _____ _____    ______ ____
ROOT
ATOM      1  C   UNL     1      -0.804  -2.482  -1.386  0.00  0.00    +0.236 C 
ATOM      2  O   UNL     1      -1.276  -3.114  -0.464  0.00  0.00    -0.274 OA
ATOM      3  N   UNL     1      -1.570  -2.168  -2.450  0.00  0.00    -0.300 N 
ATOM      4  C   UNL     1      -0.991  -1.482  -3.612  0.00  0.00    +0.108 C 
ATOM      5  C   UNL     1      -1.314  -2.289  -4.874  0.00  0.00    +0.023 C 
ATOM      6  C   UNL     1      -2.826  -2.507  -4.961  0.00  0.00    +0.001 C 
ATOM      7  C   UNL     1      -3.300  -3.303  -3.743  0.00  0.00    +0.023 C 
ATOM      8  C   UNL     1      -2.998  -2.513  -2.472  0.00  0.00    +0.108 C 
ENDROOT
BRANCH   1   9
ATOM      9  C   UNL     1       0.638  -2.046  -1.341  0.00  0.00    +0.163 C 
BRANCH   9  10
ATOM     10  N   UNL     1       1.364  -2.863  -0.365  0.00  0.00    -0.288 N 
ATOM     11  C   UNL     1       2.696  -3.032  -0.486  0.00  0.00    +0.298 C 
ATOM     12  O   UNL     1       3.295  -2.507  -1.405  0.00  0.00    -0.253 OA
ATOM     13  N   UNL     1       3.364  -3.784   0.411  0.00  0.00    -0.313 N 
ATOM     14  H   UNL     1       0.887  -3.283   0.367  0.00  0.00    +0.151 HD
ATOM     15  H   UNL     1       2.887  -4.203   1.144  0.00  0.00    +0.146 HD
ATOM     16  H   UNL     1       4.323  -3.905   0.324  0.00  0.00    +0.146 HD
ENDBRANCH   9  10
BRANCH   9  17
ATOM     17  C   UNL     1       0.714  -0.574  -0.931  0.00  0.00    +0.015 C 
ATOM     18  C   UNL     1       2.162  -0.091  -1.030  0.00  0.00    +0.010 C 
BRANCH  17  20
ATOM     19  C   UNL     1       0.181   1.064   0.878  0.00  0.00    +0.004 C 
ATOM     20  C   UNL     1       0.223  -0.420   0.510  0.00  0.00    +0.002 C 
ENDBRANCH  17  20
ENDBRANCH   9  17
ENDBRANCH   1   9
BRANCH   6  21
ATOM     21  C   UNL     1      -3.156  -3.284  -6.238  0.00  0.00    +0.099 C 
BRANCH  21  22
ATOM     22  C   UNL     1      -4.652  -3.392  -6.387  0.00  0.00    +0.216 C 
ATOM     23  O   UNL     1      -5.382  -2.897  -5.555  0.00  0.00    -0.276 OA
ATOM     24  N   UNL     1      -5.178  -4.039  -7.446  0.00  0.00    -0.305 N 
ATOM     25  C   UNL     1      -4.311  -4.652  -8.465  0.00  0.00    +0.089 C 
ATOM     26  C   UNL     1      -4.767  -6.099  -8.683  0.00  0.00    -0.060 C 
ATOM     27  N   UNL     1      -6.198  -6.116  -9.014  0.00  0.00    +0.382 N 
ATOM     28  C   UNL     1      -6.981  -5.622  -7.874  0.00  0.00    -0.060 C 
ATOM     29  C   UNL     1      -6.635  -4.157  -7.613  0.00  0.00    +0.089 C 
ATOM     30  H   UNL     1      -6.363  -5.525  -9.815  0.00  0.00    -0.082 HD
BRANCH  27  31
ATOM     31  C   UNL     1      -6.609  -7.490  -9.330  0.00  0.00    -0.082 C 
ATOM     32  C   UNL     1      -8.066  -7.492  -9.796  0.00  0.00    -0.017 C 
ENDBRANCH  27  31
ENDBRANCH  21  22
ENDBRANCH   6  21
TORSDOF 7
