REMARK  Name = ZINC13435142
REMARK  4 active torsions:
REMARK  status: ('A' for Active; 'I' for Inactive)
REMARK    1  A    between atoms: C_1  and  C_2
REMARK    2  A    between atoms: C_5  and  C_23
REMARK    3  A    between atoms: C_6  and  C_8
REMARK    4  A    between atoms: C_12  and  C_21
REMARK                            x       y       z     vdW  Elec       q    Type
REMARK                         _______ _______ _______ _____ _____    ______ ____
ROOT
ATOM      1  C   UNL     1      -0.962   0.736   1.820  0.00  0.00    +0.251 C 
ATOM      2  O   UNL     1      -1.637   1.276   2.675  0.00  0.00    -0.270 OA
ATOM      3  N   UNL     1      -0.604   1.419   0.715  0.00  0.00    -0.260 N 
ATOM      4  C   UNL     1       0.276   0.816  -0.301  0.00  0.00    +0.170 C 
ATOM      5  C   UNL     1      -0.285   1.188  -1.681  0.00  0.00    +0.303 C 
ATOM      6  O   UNL     1      -0.337   2.613  -1.789  0.00  0.00    -0.474 OA
ATOM      7  C   UNL     1      -0.915   3.303  -0.771  0.00  0.00    +0.143 A 
ATOM      8  C   UNL     1      -1.057   2.730   0.490  0.00  0.00    +0.079 A 
ATOM      9  C   UNL     1      -1.645   3.447   1.519  0.00  0.00    +0.027 A 
ATOM     10  C   UNL     1      -2.094   4.735   1.292  0.00  0.00    +0.002 A 
ATOM     11  C   UNL     1      -1.957   5.306   0.041  0.00  0.00    +0.004 A 
ATOM     12  C   UNL     1      -1.370   4.595  -0.990  0.00  0.00    +0.047 A 
ENDROOT
BRANCH   1  18
ATOM     13  C   UNL     1       2.659  -2.695   1.901  0.00  0.00    +0.044 C 
ATOM     14  C   UNL     1       1.205  -2.323   2.032  0.00  0.00    -0.050 A 
ATOM     15  C   UNL     1       0.266  -3.300   2.315  0.00  0.00    +0.003 A 
ATOM     16  C   UNL     1      -1.071  -2.967   2.438  0.00  0.00    +0.004 A 
ATOM     17  C   UNL     1      -1.477  -1.658   2.278  0.00  0.00    -0.038 A 
ATOM     18  C   UNL     1      -0.535  -0.668   1.993  0.00  0.00    +0.040 A 
ATOM     19  C   UNL     1       0.812  -1.012   1.866  0.00  0.00    +0.016 A 
ATOM     20  C   UNL     1      -2.934  -1.297   2.412  0.00  0.00    +0.044 C 
ENDBRANCH   1  18
BRANCH   5  21
ATOM     21  C   UNL     1       0.613   0.633  -2.757  0.00  0.00    +0.397 C 
ATOM     22  O   UNL     1       1.215   1.384  -3.488  0.00  0.00    -0.242 OA
ATOM     23  O   UNL     1       0.743  -0.694  -2.904  0.00  0.00    -0.242 OA
ENDBRANCH   5  21
TORSDOF 2
