REMARK  Name = ZINC05237430
REMARK  8 active torsions:
REMARK  status: ('A' for Active; 'I' for Inactive)
REMARK    1  A    between atoms: C_1  and  C_2
REMARK    2  A    between atoms: C_2  and  C_3
REMARK    3  A    between atoms: C_2  and  O_4
REMARK    4  A    between atoms: O_4  and  C_5
REMARK    5  A    between atoms: C_5  and  C_7
REMARK    6  A    between atoms: C_10  and  C_13
REMARK    7  A    between atoms: C_13  and  S_14
REMARK    8  A    between atoms: S_14  and  C_15
REMARK                            x       y       z     vdW  Elec       q    Type
REMARK                         _______ _______ _______ _____ _____    ______ ____
ROOT
ATOM      1  C   UNL     1       1.226  -4.523  -1.451  0.00  0.00    +0.170 A 
ATOM      2  N   UNL     1       1.223  -5.377  -2.515  0.00  0.00    -0.301 N 
ATOM      3  H   UNL     1       1.212  -5.004  -3.443  0.00  0.00    +0.171 HD
ATOM      4  C   UNL     1       1.236  -6.711  -2.341  0.00  0.00    +0.261 A 
ATOM      5  O   UNL     1       1.232  -7.460  -3.303  0.00  0.00    -0.267 OA
ATOM      6  C   UNL     1       1.253  -7.238  -1.011  0.00  0.00    +0.075 A 
ATOM      7  C   UNL     1       1.268  -8.641  -0.591  0.00  0.00    -0.023 A 
ATOM      8  C   UNL     1       1.284  -8.883   0.735  0.00  0.00    -0.004 A 
ATOM      9  S   UNL     1       1.278  -7.281   1.495  0.00  0.00    -0.073 S 
ATOM     10  C   UNL     1       1.255  -6.288   0.024  0.00  0.00    +0.117 A 
ATOM     11  N   UNL     1       1.247  -4.982  -0.215  0.00  0.00    -0.216 NA
ATOM     12  C   UNL     1       1.301 -10.218   1.415  0.00  0.00    +0.043 C 
ATOM     13  C   UNL     1       0.925 -11.291   0.383  0.00  0.00    +0.005 C 
ATOM     14  C   UNL     1       1.748 -11.061  -0.888  0.00  0.00    +0.005 C 
ATOM     15  C   UNL     1       1.269  -9.792  -1.594  0.00  0.00    +0.037 C 
ENDROOT
BRANCH   1  16
ATOM     16  S   UNL     1       1.209  -2.784  -1.731  0.00  0.00    -0.083 S 
BRANCH  16  17
ATOM     17  C   UNL     1       1.220  -2.190  -0.021  0.00  0.00    +0.112 C 
BRANCH  17  21
ATOM     18  C   UNL     1       1.185   2.087   0.002  0.00  0.00    +0.059 A 
ATOM     19  C   UNL     1      -0.017   1.375   0.010  0.00  0.00    +0.015 A 
ATOM     20  C   UNL     1       0.002  -0.004   0.002  0.00  0.00    +0.005 A 
ATOM     21  C   UNL     1       1.208  -0.683  -0.013  0.00  0.00    -0.037 A 
ATOM     22  C   UNL     1       2.402   0.016  -0.021  0.00  0.00    +0.005 A 
ATOM     23  C   UNL     1       2.398   1.395  -0.013  0.00  0.00    +0.015 A 
BRANCH  18  24
ATOM     24  C   UNL     1       1.173   3.564   0.009  0.00  0.00    +0.339 C 
ATOM     25  O   UNL     1       0.116   4.162   0.022  0.00  0.00    -0.245 OA
BRANCH  24  26
ATOM     26  O   UNL     1       2.334   4.247   0.002  0.00  0.00    -0.458 OA
BRANCH  26  28
ATOM     27  C   UNL     1       3.468   6.277   0.723  0.00  0.00    +0.052 C 
ATOM     28  C   UNL     1       2.245   5.696   0.010  0.00  0.00    +0.171 C 
ATOM     29  C   UNL     1       2.201   6.213  -1.429  0.00  0.00    +0.052 C 
ENDBRANCH  26  28
ENDBRANCH  24  26
ENDBRANCH  18  24
ENDBRANCH  17  21
ENDBRANCH  16  17
ENDBRANCH   1  16
TORSDOF 6
