REMARK  Name = ZINC56946802
REMARK  10 active torsions:
REMARK  status: ('A' for Active; 'I' for Inactive)
REMARK    1  A    between atoms: C_1  and  C_2
REMARK    2  A    between atoms: C_2  and  N_3
REMARK    3  A    between atoms: C_4  and  C_6
REMARK    4  A    between atoms: C_6  and  N_7
REMARK    5  A    between atoms: N_15  and  C_16
REMARK    6  A    between atoms: C_16  and  C_18
REMARK    7  A    between atoms: C_16  and  C_19
REMARK    8  A    between atoms: C_19  and  N_20
REMARK    9  A    between atoms: C_22  and  C_29
REMARK   10  A    between atoms: C_25  and  C_28
REMARK                            x       y       z     vdW  Elec       q    Type
REMARK                         _______ _______ _______ _____ _____    ______ ____
ROOT
ATOM      1  N   UNL     1      -0.490  -5.640  -2.780  0.00  0.00    -0.291 NA
ATOM      2  C   UNL     1      -0.062  -6.256  -4.043  0.00  0.00    +0.104 C 
ATOM      3  C   UNL     1       1.460  -6.139  -4.174  0.00  0.00    +0.124 C 
ATOM      4  N   UNL     1       2.078  -6.704  -2.965  0.00  0.00    -0.283 N 
ATOM      5  C   UNL     1       1.602  -6.235  -1.655  0.00  0.00    +0.124 C 
ATOM      6  C   UNL     1       0.074  -6.348  -1.623  0.00  0.00    +0.104 C 
ATOM      7  C   UNL     1       3.055  -7.628  -3.055  0.00  0.00    +0.302 C 
ATOM      8  O   UNL     1       3.618  -8.018  -2.051  0.00  0.00    -0.253 OA
ATOM      9  N   UNL     1       3.409  -8.120  -4.260  0.00  0.00    -0.298 N 
ATOM     10  H   UNL     1       3.010  -7.759  -5.067  0.00  0.00    +0.150 HD
ENDROOT
BRANCH   9  11
ATOM     11  C   UNL     1       4.395  -9.200  -4.349  0.00  0.00    +0.055 C 
ATOM     12  C   UNL     1       3.680 -10.550  -4.270  0.00  0.00    +0.026 C 
BRANCH  11  13
ATOM     13  C   UNL     1       5.144  -9.097  -5.679  0.00  0.00    -0.057 C 
BRANCH  13  14
ATOM     14  N   UNL     1       6.201 -10.116  -5.726  0.00  0.00    +0.381 N 
ATOM     15  C   UNL     1       7.212  -9.818  -4.705  0.00  0.00    -0.076 C 
ATOM     16  C   UNL     1       8.273 -10.921  -4.695  0.00  0.00    -0.031 C 
ATOM     17  C   UNL     1       8.940 -10.992  -6.071  0.00  0.00    +0.003 C 
ATOM     18  C   UNL     1       7.867 -11.229  -7.137  0.00  0.00    -0.031 C 
ATOM     19  C   UNL     1       6.821 -10.115  -7.056  0.00  0.00    -0.076 C 
ATOM     20  C   UNL     1       8.513 -11.226  -8.523  0.00  0.00    +0.005 C 
ATOM     21  C   UNL     1       9.326 -10.607  -3.630  0.00  0.00    +0.005 C 
ATOM     22  H   UNL     1       5.799 -11.024  -5.544  0.00  0.00    -0.082 HD
ENDBRANCH  13  14
ENDBRANCH  11  13
ENDBRANCH   9  11
BRANCH   1  23
ATOM     23  C   UNL     1      -1.956  -5.578  -2.695  0.00  0.00    +0.180 C 
BRANCH  23  25
ATOM     24  N   UNL     1      -3.807  -4.429  -3.866  0.00  0.00    -0.315 N 
ATOM     25  C   UNL     1      -2.481  -4.644  -3.754  0.00  0.00    +0.227 C 
ATOM     26  O   UNL     1      -1.711  -4.085  -4.506  0.00  0.00    -0.274 OA
ATOM     27  H   UNL     1      -4.423  -4.876  -3.265  0.00  0.00    +0.149 HD
BRANCH  24  29
ATOM     28  C   UNL     1      -5.844  -3.456  -4.807  0.00  0.00    +0.024 C 
ATOM     29  C   UNL     1      -4.318  -3.521  -4.896  0.00  0.00    +0.101 C 
ENDBRANCH  24  29
ENDBRANCH  23  25
ENDBRANCH   1  23
TORSDOF 6
