REMARK  Name = ZINC29811886
REMARK  9 active torsions:
REMARK  status: ('A' for Active; 'I' for Inactive)
REMARK    1  A    between atoms: C_1  and  C_2
REMARK    2  A    between atoms: C_5  and  N_9
REMARK    3  A    between atoms: C_10  and  C_12
REMARK    4  A    between atoms: C_12  and  C_14
REMARK    5  A    between atoms: C_12  and  N_15
REMARK    6  A    between atoms: N_15  and  C_16
REMARK    7  A    between atoms: C_19  and  N_22
REMARK    8  A    between atoms: N_25  and  C_26
REMARK    9  A    between atoms: C_26  and  C_27
REMARK                            x       y       z     vdW  Elec       q    Type
REMARK                         _______ _______ _______ _____ _____    ______ ____
ROOT
ATOM      1  N   UNL     1      -1.069   7.565   0.403  0.00  0.00    -0.333 N 
ATOM      2  H   UNL     1      -2.007   8.133   0.493  0.00  0.00    +0.147 HD
ENDROOT
BRANCH   1   3
ATOM      3  C   UNL     1      -1.104   6.170   0.294  0.00  0.00    +0.028 A 
ATOM      4  C   UNL     1      -2.322   5.503   0.300  0.00  0.00    +0.025 A 
ATOM      5  C   UNL     1      -2.356   4.127   0.193  0.00  0.00    +0.025 A 
ATOM      6  C   UNL     1      -1.173   3.410   0.079  0.00  0.00    +0.035 A 
ATOM      7  C   UNL     1       0.046   4.076   0.078  0.00  0.00    +0.025 A 
ATOM      8  C   UNL     1       0.080   5.453   0.180  0.00  0.00    +0.025 A 
BRANCH   6   9
ATOM      9  N   UNL     1      -1.207   2.013  -0.030  0.00  0.00    -0.269 N 
ATOM     10  C   UNL     1      -0.202   1.359  -0.646  0.00  0.00    +0.304 C 
ATOM     11  O   UNL     1       0.678   1.986  -1.204  0.00  0.00    -0.253 OA
ATOM     12  N   UNL     1      -0.175   0.012  -0.648  0.00  0.00    -0.296 N 
ATOM     13  H   UNL     1      -2.055   1.450   0.388  0.00  0.00    +0.156 HD
ATOM     14  H   UNL     1      -0.972  -0.554  -0.142  0.00  0.00    +0.151 HD
BRANCH  12  15
ATOM     15  C   UNL     1       0.914  -0.698  -1.322  0.00  0.00    +0.132 C 
BRANCH  15  16
ATOM     16  C   UNL     1       0.710  -2.184  -1.178  0.00  0.00    -0.016 C 
ATOM     17  C   UNL     1       0.672  -2.947  -2.243  0.00  0.00    +0.005 C 
ENDBRANCH  15  16
ENDBRANCH  12  15
ENDBRANCH   6   9
ENDBRANCH   1   3
BRANCH   1  18
ATOM     18  C   UNL     1       0.216   8.268   0.396  0.00  0.00    +0.154 C 
ATOM     19  C   UNL     1       0.654   8.517  -1.049  0.00  0.00    +0.038 C 
BRANCH  18  21
ATOM     20  N   UNL     1       1.131  10.410   1.228  0.00  0.00    -0.283 N 
ATOM     21  C   UNL     1       0.070   9.587   1.110  0.00  0.00    +0.237 C 
ATOM     22  O   UNL     1      -1.001   9.908   1.579  0.00  0.00    -0.273 OA
ATOM     23  H   UNL     1       2.083  10.155   0.739  0.00  0.00    +0.155 HD
BRANCH  20  28
ATOM     24  C   UNL     1       0.687  15.191   4.252  0.00  0.00    +0.044 C 
ATOM     25  C   UNL     1       0.806  13.922   3.449  0.00  0.00    -0.049 A 
ATOM     26  C   UNL     1      -0.277  13.461   2.723  0.00  0.00    +0.005 A 
ATOM     27  C   UNL     1      -0.173  12.297   1.986  0.00  0.00    +0.025 A 
ATOM     28  C   UNL     1       1.022  11.590   1.974  0.00  0.00    +0.052 A 
ATOM     29  C   UNL     1       2.107  12.052   2.708  0.00  0.00    +0.062 A 
ATOM     30  C   UNL     1       1.997  13.220   3.440  0.00  0.00    +0.025 A 
ATOM     31 CL   UNL     1       3.601  11.168   2.702  0.00  0.00    -0.082 Cl
ENDBRANCH  20  28
ENDBRANCH  18  21
ENDBRANCH   1  18
TORSDOF 7
