REMARK  Name = ZINC42974832
REMARK  7 active torsions:
REMARK  status: ('A' for Active; 'I' for Inactive)
REMARK    1  A    between atoms: C_1  and  C_2
REMARK    2  A    between atoms: C_2  and  C_4
REMARK    3  A    between atoms: C_2  and  N_23
REMARK    4  A    between atoms: C_4  and  C_6
REMARK    5  A    between atoms: C_4  and  S_13
REMARK    6  A    between atoms: S_13  and  C_14
REMARK    7  A    between atoms: C_20  and  N_22
REMARK                            x       y       z     vdW  Elec       q    Type
REMARK                         _______ _______ _______ _____ _____    ______ ____
ROOT
ATOM      1  C   UNL     1       0.836  -0.541   1.172  0.00  0.00    +0.069 C 
ENDROOT
BRANCH   1   2
ATOM      2  C   UNL     1       0.971  -2.041   1.113  0.00  0.00    -0.033 A 
ATOM      3  C   UNL     1      -0.156  -2.839   1.172  0.00  0.00    +0.005 A 
ATOM      4  C   UNL     1      -0.034  -4.215   1.119  0.00  0.00    +0.003 A 
ATOM      5  C   UNL     1       1.216  -4.794   1.007  0.00  0.00    +0.038 A 
ATOM      6  C   UNL     1       2.345  -3.996   0.948  0.00  0.00    +0.124 A 
ATOM      7  C   UNL     1       2.221  -2.618   0.996  0.00  0.00    +0.043 A 
ATOM      8  F   UNL     1       3.568  -4.561   0.839  0.00  0.00    -0.205 F 
ENDBRANCH   1   2
BRANCH   1  10
ATOM      9  C   UNL     1      -0.112   1.467   0.027  0.00  0.00    -0.013 C 
ATOM     10  C   UNL     1      -0.024  -0.060   0.002  0.00  0.00    -0.060 C 
BRANCH  10  11
ATOM     11  N   UNL     1       0.582  -0.495  -1.263  0.00  0.00    +0.381 N 
ATOM     12  H   UNL     1       1.509  -0.104  -1.344  0.00  0.00    -0.090 HD
ATOM     13  H   UNL     1       0.640  -1.503  -1.280  0.00  0.00    -0.090 HD
ATOM     14  H   UNL     1       0.015  -0.178  -2.035  0.00  0.00    -0.090 HD
ENDBRANCH  10  11
ENDBRANCH   1  10
BRANCH   1  15
ATOM     15  S   UNL     1       0.051  -0.065   2.736  0.00  0.00    -0.081 S 
BRANCH  15  16
ATOM     16  C   UNL     1       1.261  -0.454   3.957  0.00  0.00    +0.171 A 
ATOM     17  N   UNL     1       1.019  -0.140   5.260  0.00  0.00    -0.302 N 
ATOM     18  H   UNL     1       0.187   0.293   5.507  0.00  0.00    +0.171 HD
ATOM     19  C   UNL     1       1.934  -0.430   6.208  0.00  0.00    +0.254 A 
ATOM     20  O   UNL     1       1.725  -0.153   7.378  0.00  0.00    -0.268 OA
ATOM     21  C   UNL     1       3.126  -1.055   5.827  0.00  0.00    +0.113 A 
ATOM     22  C   UNL     1       3.324  -1.353   4.486  0.00  0.00    +0.124 A 
ATOM     23  N   UNL     1       2.379  -1.047   3.591  0.00  0.00    -0.209 NA
BRANCH  22  24
ATOM     24  N   UNL     1       4.490  -1.970   4.079  0.00  0.00    -0.343 N 
ATOM     25  H   UNL     1       5.173  -2.195   4.730  0.00  0.00    +0.144 HD
ATOM     26  H   UNL     1       4.627  -2.178   3.141  0.00  0.00    +0.144 HD
ENDBRANCH  22  24
ENDBRANCH  15  16
ENDBRANCH   1  15
TORSDOF 6
