REMARK  Name = ZINC67525548
REMARK  7 active torsions:
REMARK  status: ('A' for Active; 'I' for Inactive)
REMARK    1  A    between atoms: C_1  and  O_2
REMARK    2  A    between atoms: O_2  and  C_3
REMARK    3  A    between atoms: N_5  and  C_6
REMARK    4  A    between atoms: C_8  and  N_13
REMARK    5  A    between atoms: C_14  and  C_16
REMARK    6  A    between atoms: N_18  and  C_19
REMARK    7  A    between atoms: C_19  and  C_20
REMARK                            x       y       z     vdW  Elec       q    Type
REMARK                         _______ _______ _______ _____ _____    ______ ____
ROOT
ATOM      1  N   UNL     1      -6.008  -1.902   0.266  0.00  0.00    -0.278 N 
ATOM      2  C   UNL     1      -7.162  -2.566   0.475  0.00  0.00    +0.303 C 
ATOM      3  O   UNL     1      -7.161  -3.778   0.544  0.00  0.00    -0.265 OA
ATOM      4  H   UNL     1      -6.020  -0.942   0.126  0.00  0.00    +0.155 HD
ENDROOT
BRANCH   1   7
ATOM      5  C   UNL     1      -2.514  -2.784  -0.478  0.00  0.00    +0.073 A 
ATOM      6  C   UNL     1      -3.716  -2.093  -0.465  0.00  0.00    +0.049 A 
ATOM      7  C   UNL     1      -4.795  -2.596   0.249  0.00  0.00    +0.036 A 
ATOM      8  C   UNL     1      -4.668  -3.790   0.949  0.00  0.00    +0.026 A 
ATOM      9  C   UNL     1      -3.469  -4.477   0.935  0.00  0.00    +0.042 A 
ATOM     10  C   UNL     1      -2.394  -3.982   0.219  0.00  0.00    +0.145 A 
ATOM     11  F   UNL     1      -1.225  -4.659   0.202  0.00  0.00    -0.204 F 
BRANCH   5  14
ATOM     12  C   UNL     1      -1.227  -0.948  -1.279  0.00  0.00    +0.404 C 
ATOM     13  O   UNL     1      -2.042  -0.184  -0.801  0.00  0.00    -0.226 OA
ATOM     14  N   UNL     1      -1.423  -2.279  -1.198  0.00  0.00    -0.248 N 
ATOM     15  H   UNL     1      -0.809  -2.888  -1.637  0.00  0.00    +0.158 HD
BRANCH  12  17
ATOM     16  C   UNL     1       0.014   0.955  -1.940  0.00  0.00    +0.282 C 
ATOM     17  O   UNL     1      -0.129  -0.466  -1.891  0.00  0.00    -0.453 OA
ENDBRANCH  12  17
ENDBRANCH   5  14
ENDBRANCH   1   7
BRANCH   2  18
ATOM     18  C   UNL     1      -8.442  -1.811   0.623  0.00  0.00    +0.300 C 
ATOM     19  O   UNL     1      -8.443  -0.600   0.554  0.00  0.00    -0.265 OA
ATOM     20  N   UNL     1      -9.596  -2.475   0.832  0.00  0.00    -0.300 N 
ATOM     21  H   UNL     1      -9.595  -3.444   0.887  0.00  0.00    +0.150 HD
BRANCH  20  22
ATOM     22  C   UNL     1     -10.852  -1.735   0.977  0.00  0.00    +0.179 C 
BRANCH  22  23
ATOM     23  C   UNL     1     -11.984  -2.704   1.200  0.00  0.00    +0.123 A 
ATOM     24  C   UNL     1     -12.402  -3.131   2.400  0.00  0.00    +0.055 A 
ATOM     25  C   UNL     1     -13.514  -4.053   2.140  0.00  0.00    +0.020 A 
ATOM     26  C   UNL     1     -14.357  -4.815   2.948  0.00  0.00    +0.011 A 
ATOM     27  C   UNL     1     -15.323  -5.595   2.374  0.00  0.00    +0.001 A 
ATOM     28  C   UNL     1     -15.468  -5.632   0.995  0.00  0.00    +0.004 A 
ATOM     29  C   UNL     1     -14.644  -4.885   0.180  0.00  0.00    +0.047 A 
ATOM     30  C   UNL     1     -13.656  -4.086   0.743  0.00  0.00    +0.135 A 
ATOM     31  O   UNL     1     -12.724  -3.261   0.226  0.00  0.00    -0.458 OA
ENDBRANCH  22  23
ENDBRANCH  20  22
ENDBRANCH   2  18
TORSDOF 6
