REMARK  Name = ZINC02457843
REMARK  7 active torsions:
REMARK  status: ('A' for Active; 'I' for Inactive)
REMARK    1  A    between atoms: C_1  and  C_2
REMARK    2  A    between atoms: C_2  and  C_3
REMARK    3  A    between atoms: C_3  and  C_4
REMARK    4  A    between atoms: C_4  and  N_5
REMARK    5  A    between atoms: C_6  and  C_8
REMARK    6  A    between atoms: C_8  and  O_26
REMARK    7  A    between atoms: N_18  and  C_19
REMARK                            x       y       z     vdW  Elec       q    Type
REMARK                         _______ _______ _______ _____ _____    ______ ____
ROOT
ATOM      1  C   UNL     1      -1.345   5.970  -0.067  0.00  0.00    +0.247 C 
ATOM      2  C   UNL     1      -1.274   7.480  -0.052  0.00  0.00    +0.034 A 
ATOM      3  C   UNL     1      -2.410   8.251  -0.137  0.00  0.00    +0.025 A 
ATOM      4  C   UNL     1      -2.306   9.632  -0.121  0.00  0.00    +0.018 A 
ATOM      5  C   UNL     1      -1.062  10.231  -0.020  0.00  0.00    +0.017 A 
ATOM      6  C   UNL     1       0.080   9.459   0.065  0.00  0.00    +0.025 A 
ATOM      7  C   UNL     1      -0.020   8.074   0.049  0.00  0.00    +0.043 A 
ATOM      8  N   UNL     1       1.122   7.276   0.132  0.00  0.00    -0.269 N 
ATOM      9  C   UNL     1       1.078   5.938   0.127  0.00  0.00    +0.314 C 
ATOM     10  O   UNL     1       2.124   5.323   0.209  0.00  0.00    -0.252 OA
ATOM     11  N   UNL     1      -0.069   5.242   0.028  0.00  0.00    -0.214 N 
ATOM     12 BR   UNL     1      -3.863  10.699  -0.236  0.00  0.00    -0.050 Br
ATOM     13  H   UNL     1       1.986   7.711   0.203  0.00  0.00    +0.156 HD
ENDROOT
BRANCH  11  14
ATOM     14  C   UNL     1      -0.050   3.842   0.022  0.00  0.00    +0.041 A 
ATOM     15  C   UNL     1      -0.258   3.138   1.201  0.00  0.00    +0.024 A 
ATOM     16  C   UNL     1      -0.238   1.757   1.191  0.00  0.00    +0.002 A 
ATOM     17  C   UNL     1      -0.011   1.076   0.010  0.00  0.00    +0.000 A 
ATOM     18  C   UNL     1       0.201   1.774  -1.165  0.00  0.00    +0.002 A 
ATOM     19  C   UNL     1       0.177   3.155  -1.163  0.00  0.00    +0.024 A 
ENDBRANCH  11  14
BRANCH   1  21
ATOM     20  N   UNL     1      -1.380   5.661  -2.521  0.00  0.00    -0.311 N 
ATOM     21  C   UNL     1      -2.027   5.550  -1.344  0.00  0.00    +0.269 C 
ATOM     22  O   UNL     1      -3.157   5.111  -1.312  0.00  0.00    -0.270 OA
ATOM     23  H   UNL     1      -0.476   6.013  -2.546  0.00  0.00    +0.149 HD
BRANCH  20  24
ATOM     24  C   UNL     1      -2.043   5.253  -3.762  0.00  0.00    +0.104 C 
BRANCH  24  25
ATOM     25  C   UNL     1      -1.098   5.481  -4.944  0.00  0.00    +0.018 C 
BRANCH  25  27
ATOM     26  C   UNL     1      -0.845   5.282  -7.421  0.00  0.00    +0.004 C 
ATOM     27  C   UNL     1      -1.790   5.053  -6.240  0.00  0.00    -0.002 C 
ENDBRANCH  25  27
ENDBRANCH  24  25
ENDBRANCH  20  24
ENDBRANCH   1  21
BRANCH   1  28
ATOM     28  O   UNL     1      -2.171   5.559   1.025  0.00  0.00    -0.360 OA
ATOM     29  H   UNL     1      -3.037   5.987   1.046  0.00  0.00    +0.213 HD
ENDBRANCH   1  28
TORSDOF 6
