REMARK  Name = ZINC00985278
REMARK  6 active torsions:
REMARK  status: ('A' for Active; 'I' for Inactive)
REMARK    1  A    between atoms: C_1  and  O_2
REMARK    2  A    between atoms: O_2  and  C_3
REMARK    3  A    between atoms: C_6  and  C_9
REMARK    4  A    between atoms: C_14  and  C_22
REMARK    5  A    between atoms: C_16  and  C_20
REMARK    6  A    between atoms: C_17  and  N_19
REMARK                            x       y       z     vdW  Elec       q    Type
REMARK                         _______ _______ _______ _____ _____    ______ ____
ROOT
ATOM      1  C   UNL     1       2.022  -1.189  -3.648  0.00  0.00    +0.034 C 
ATOM      2  C   UNL     1       2.441  -2.001  -2.421  0.00  0.00    +0.083 C 
ATOM      3  C   UNL     1       2.349  -1.138  -1.184  0.00  0.00    +0.115 C 
ATOM      4  C   UNL     1       2.567   0.188  -1.256  0.00  0.00    +0.046 C 
ATOM      5  C   UNL     1       2.490   1.047  -0.017  0.00  0.00    +0.104 C 
ATOM      6  C   UNL     1       2.598   0.190   1.214  0.00  0.00    +0.098 C 
ATOM      7  C   UNL     1       2.371  -1.144   1.141  0.00  0.00    +0.198 C 
ATOM      8  O   UNL     1       2.043  -1.735  -0.018  0.00  0.00    -0.445 OA
ATOM      9  C   UNL     1       2.870   0.816  -2.480  0.00  0.00    +0.164 C 
ATOM     10  O   UNL     1       3.076   2.013  -2.501  0.00  0.00    -0.292 OA
ATOM     11  C   UNL     1       2.944   0.030  -3.761  0.00  0.00    +0.088 C 
ENDROOT
BRANCH   5  12
ATOM     12  C   UNL     1       1.175   1.783   0.000  0.00  0.00    +0.001 A 
ATOM     13  C   UNL     1      -0.013   1.076   0.008  0.00  0.00    +0.007 A 
ATOM     14  C   UNL     1      -1.219   1.750   0.017  0.00  0.00    +0.000 A 
ATOM     15  C   UNL     1      -1.239   3.133   0.031  0.00  0.00    +0.003 A 
ATOM     16  C   UNL     1      -0.053   3.842   0.023  0.00  0.00    +0.038 A 
ATOM     17  C   UNL     1       1.156   3.167   0.008  0.00  0.00    +0.127 A 
ATOM     18  F   UNL     1       2.316   3.859   0.000  0.00  0.00    -0.205 F 
ENDBRANCH   5  12
BRANCH   1  22
ATOM     19  C   UNL     1       2.392  -3.598  -7.158  0.00  0.00    +0.120 A 
ATOM     20  C   UNL     1       1.163  -3.054  -6.815  0.00  0.00    +0.046 A 
ATOM     21  C   UNL     1       1.046  -2.276  -5.679  0.00  0.00    +0.007 A 
ATOM     22  C   UNL     1       2.153  -2.039  -4.886  0.00  0.00    -0.043 A 
ATOM     23  C   UNL     1       3.380  -2.575  -5.229  0.00  0.00    +0.007 A 
ATOM     24  C   UNL     1       3.501  -3.359  -6.360  0.00  0.00    +0.046 A 
BRANCH  19  26
ATOM     25  C   UNL     1       3.805  -4.890  -8.567  0.00  0.00    +0.277 C 
ATOM     26  O   UNL     1       2.509  -4.363  -8.275  0.00  0.00    -0.495 OA
ENDBRANCH  19  26
ENDBRANCH   1  22
BRANCH   7  27
ATOM     27  N   UNL     1       2.478  -1.907   2.278  0.00  0.00    -0.328 N 
ATOM     28  H   UNL     1       2.318  -2.862   2.238  0.00  0.00    +0.145 HD
ATOM     29  H   UNL     1       2.715  -1.490   3.121  0.00  0.00    +0.145 HD
ENDBRANCH   7  27
BRANCH   6  30
ATOM     30  C   UNL     1       2.942   0.787   2.469  0.00  0.00    +0.101 C 
ATOM     31  N   UNL     1       3.216   1.260   3.465  0.00  0.00    -0.191 NA
ENDBRANCH   6  30
TORSDOF 5
