REMARK  Name = ZINC58990087
REMARK  13 active torsions:
REMARK  status: ('A' for Active; 'I' for Inactive)
REMARK    1  A    between atoms: C_1  and  O_2
REMARK    2  A    between atoms: O_2  and  C_3
REMARK    3  A    between atoms: C_7  and  C_10
REMARK    4  A    between atoms: C_8  and  O_9
REMARK    5  A    between atoms: N_11  and  N_12
REMARK    6  A    between atoms: C_13  and  C_15
REMARK    7  A    between atoms: C_15  and  C_16
REMARK    8  A    between atoms: C_16  and  C_17
REMARK    9  A    between atoms: C_17  and  S_18
REMARK   10  A    between atoms: S_18  and  C_19
REMARK   11  A    between atoms: C_22  and  C_25
REMARK   12  A    between atoms: N_23  and  N_24
REMARK   13  A    between atoms: C_29  and  N_31
REMARK                            x       y       z     vdW  Elec       q    Type
REMARK                         _______ _______ _______ _____ _____    ______ ____
ROOT
ATOM      1  C   UNL     1      -0.251 -10.602   0.549  0.00  0.00    +0.078 C 
ENDROOT
BRANCH   1   2
ATOM      2  C   UNL     1      -0.311  -9.076   0.641  0.00  0.00    +0.020 C 
BRANCH   2   3
ATOM      3  C   UNL     1       0.378  -8.464  -0.580  0.00  0.00    +0.098 C 
BRANCH   3   5
ATOM      4  N   UNL     1       0.866  -6.204  -1.461  0.00  0.00    -0.207 N 
ATOM      5  C   UNL     1       0.318  -6.960  -0.488  0.00  0.00    +0.232 C 
ATOM      6  O   UNL     1      -0.222  -6.431   0.460  0.00  0.00    -0.274 OA
ATOM      7  H   UNL     1       1.298  -6.628  -2.219  0.00  0.00    +0.177 HD
BRANCH   4   9
ATOM      8  C   UNL     1       1.337  -4.079  -2.312  0.00  0.00    +0.142 C 
ATOM      9  N   UNL     1       0.810  -4.807  -1.376  0.00  0.00    -0.188 NA
BRANCH   8  14
ATOM     10  C   UNL     1       0.606  -0.608  -1.056  0.00  0.00    +0.162 A 
ATOM     11  C   UNL     1       1.173   0.161  -2.062  0.00  0.00    +0.049 A 
ATOM     12  C   UNL     1       1.789  -0.446  -3.142  0.00  0.00    +0.004 A 
ATOM     13  C   UNL     1       1.845  -1.821  -3.229  0.00  0.00    +0.013 A 
ATOM     14  C   UNL     1       1.279  -2.609  -2.223  0.00  0.00    +0.040 A 
ATOM     15  C   UNL     1       0.661  -1.994  -1.127  0.00  0.00    +0.167 A 
BRANCH  10  17
ATOM     16  C   UNL     1      -0.017   1.425   0.010  0.00  0.00    +0.277 C 
ATOM     17  O   UNL     1       0.002  -0.004   0.002  0.00  0.00    -0.491 OA
ENDBRANCH  10  17
BRANCH  15  18
ATOM     18  O   UNL     1       0.112  -2.750  -0.141  0.00  0.00    -0.503 OA
ATOM     19  H   UNL     1      -0.817  -2.977  -0.290  0.00  0.00    +0.292 HD
ENDBRANCH  15  18
ENDBRANCH   8  14
ENDBRANCH   4   9
ENDBRANCH   3   5
ENDBRANCH   2   3
ENDBRANCH   1   2
BRANCH   1  20
ATOM     20  S   UNL     1      -1.067 -11.329   1.997  0.00  0.00    -0.084 S 
BRANCH  20  21
ATOM     21  C   UNL     1      -0.916 -13.066   1.745  0.00  0.00    +0.209 A 
ATOM     22  N   UNL     1      -0.330 -13.658   0.728  0.00  0.00    -0.121 NA
ATOM     23  N   UNL     1      -0.400 -14.934   0.861  0.00  0.00    -0.127 NA
ATOM     24  C   UNL     1      -1.034 -15.236   1.970  0.00  0.00    +0.182 A 
ATOM     25  N   UNL     1      -1.380 -14.048   2.572  0.00  0.00    -0.224 N 
BRANCH  24  26
ATOM     26  C   UNL     1      -1.319 -16.594   2.478  0.00  0.00    +0.023 A 
ATOM     27  C   UNL     1      -2.265 -16.781   3.488  0.00  0.00    +0.012 A 
ATOM     28  C   UNL     1      -2.526 -18.052   3.957  0.00  0.00    +0.003 A 
ATOM     29  C   UNL     1      -1.853 -19.139   3.430  0.00  0.00    +0.033 A 
ATOM     30  C   UNL     1      -0.914 -18.961   2.429  0.00  0.00    +0.127 A 
ATOM     31  C   UNL     1      -0.648 -17.696   1.946  0.00  0.00    +0.044 A 
BRANCH  30  32
ATOM     32  N   UNL     1      -0.199 -20.130   1.871  0.00  0.00    +0.056 N 
ATOM     33  O   UNL     1      -0.434 -21.240   2.290  0.00  0.00    -0.126 OA
ATOM     34  O   UNL     1       0.622 -19.976   0.996  0.00  0.00    -0.126 OA
ENDBRANCH  30  32
ENDBRANCH  24  26
BRANCH  25  35
ATOM     35  N   UNL     1      -2.050 -13.885   3.752  0.00  0.00    -0.295 N 
ATOM     36  H   UNL     1      -3.046 -13.847   3.599  0.00  0.00    +0.163 HD
ATOM     37  H   UNL     1      -1.812 -14.615   4.407  0.00  0.00    +0.163 HD
ENDBRANCH  25  35
ENDBRANCH  20  21
ENDBRANCH   1  20
TORSDOF 12
