REMARK  Name = ZINC38995144
REMARK  6 active torsions:
REMARK  status: ('A' for Active; 'I' for Inactive)
REMARK    1  A    between atoms: C_6  and  C_7
REMARK    2  A    between atoms: C_7  and  S_8
REMARK    3  A    between atoms: S_8  and  C_9
REMARK    4  A    between atoms: C_13  and  C_17
REMARK    5  A    between atoms: N_15  and  N_16
REMARK    6  A    between atoms: C_20  and  C_23
REMARK                            x       y       z     vdW  Elec       q    Type
REMARK                         _______ _______ _______ _____ _____    ______ ____
ROOT
ATOM      1  C   UNL     1      -3.378  -2.000  -1.514  0.00  0.00    +0.214 C 
ATOM      2  N   UNL     1      -4.348  -1.243  -0.678  0.00  0.00    -0.228 NA
ATOM      3  N   UNL     1      -5.242  -2.269  -0.134  0.00  0.00    -0.234 NA
ATOM      4  C   UNL     1      -4.495  -3.543  -0.155  0.00  0.00    +0.185 C 
ATOM      5  N   UNL     1      -3.160  -3.244  -0.729  0.00  0.00    -0.197 NA
ATOM      6  H   UNL     1      -4.860  -0.575  -1.235  0.00  0.00    +0.143 HD
ATOM      7  H   UNL     1      -5.531  -2.035   0.804  0.00  0.00    +0.143 HD
ENDROOT
BRANCH   4   8
ATOM      8  C   UNL     1      -4.348  -4.088   1.267  0.00  0.00    +0.187 C 
ATOM      9  C   UNL     1      -5.706  -4.432   1.852  0.00  0.00    +0.034 C 
ATOM     10  C   UNL     1      -5.810  -3.621   2.923  0.00  0.00    +0.091 C 
ATOM     11  N   UNL     1      -4.698  -2.850   3.044  0.00  0.00    -0.154 NA
ATOM     12  N   UNL     1      -3.841  -3.045   2.174  0.00  0.00    -0.176 NA
BRANCH  10  13
ATOM     13  C   UNL     1      -6.975  -3.576   3.841  0.00  0.00    +0.002 A 
ATOM     14  C   UNL     1      -8.066  -4.417   3.627  0.00  0.00    +0.013 A 
ATOM     15  C   UNL     1      -9.147  -4.372   4.484  0.00  0.00    +0.039 A 
ATOM     16  C   UNL     1      -9.149  -3.493   5.554  0.00  0.00    +0.123 A 
ATOM     17  C   UNL     1      -8.067  -2.655   5.770  0.00  0.00    +0.039 A 
ATOM     18  C   UNL     1      -6.979  -2.697   4.922  0.00  0.00    +0.013 A 
ATOM     19  F   UNL     1     -10.210  -3.452   6.390  0.00  0.00    -0.205 F 
ENDBRANCH  10  13
ENDBRANCH   4   8
BRANCH   5  20
ATOM     20  N   UNL     1      -2.701  -4.326  -1.584  0.00  0.00    -0.264 NA
ATOM     21  H   UNL     1      -1.832  -4.086  -2.036  0.00  0.00    +0.137 HD
ATOM     22  H   UNL     1      -2.613  -5.186  -1.063  0.00  0.00    +0.137 HD
ENDBRANCH   5  20
BRANCH   1  23
ATOM     23  S   UNL     1      -1.829  -1.075  -1.697  0.00  0.00    -0.119 S 
BRANCH  23  24
ATOM     24  C   UNL     1      -1.293  -0.775   0.010  0.00  0.00    +0.107 C 
BRANCH  24  30
ATOM     25  C   UNL     1      -0.017   1.378   0.010  0.00  0.00    +0.005 A 
ATOM     26  C   UNL     1       1.171   2.086   0.002  0.00  0.00    +0.015 A 
ATOM     27  C   UNL     1       2.378   1.411  -0.013  0.00  0.00    +0.018 A 
ATOM     28  C   UNL     1       2.396   0.027  -0.021  0.00  0.00    +0.015 A 
ATOM     29  C   UNL     1       1.208  -0.679  -0.013  0.00  0.00    +0.005 A 
ATOM     30  C   UNL     1       0.002  -0.004   0.002  0.00  0.00    -0.037 A 
ATOM     31 BR   UNL     1       4.003   2.378  -0.024  0.00  0.00    -0.050 Br
ENDBRANCH  24  30
ENDBRANCH  23  24
ENDBRANCH   1  23
TORSDOF 6
