REMARK  Name = ZINC49183682
REMARK  6 active torsions:
REMARK  status: ('A' for Active; 'I' for Inactive)
REMARK    1  A    between atoms: C_1  and  C_2
REMARK    2  A    between atoms: C_2  and  N_3
REMARK    3  A    between atoms: N_6  and  N_7
REMARK    4  A    between atoms: C_8  and  C_10
REMARK    5  A    between atoms: C_10  and  N_11
REMARK    6  A    between atoms: C_12  and  C_14
REMARK                            x       y       z     vdW  Elec       q    Type
REMARK                         _______ _______ _______ _____ _____    ______ ____
ROOT
ATOM      1  N   UNL     1       2.034  -1.348   3.408  0.00  0.00    -0.232 N 
ATOM      2  C   UNL     1       2.686  -1.794   4.500  0.00  0.00    +0.246 C 
ATOM      3  O   UNL     1       2.815  -2.986   4.684  0.00  0.00    -0.273 OA
ATOM      4  H   UNL     1       1.931  -0.394   3.260  0.00  0.00    +0.173 HD
ENDROOT
BRANCH   1   8
ATOM      5  N   UNL     1       0.711  -0.489   1.189  0.00  0.00    -0.298 N 
ATOM      6  C   UNL     1       0.854  -1.814   1.394  0.00  0.00    +0.316 C 
ATOM      7  O   UNL     1       0.395  -2.606   0.593  0.00  0.00    -0.251 OA
ATOM      8  N   UNL     1       1.506  -2.260   2.486  0.00  0.00    -0.218 N 
ATOM      9  H   UNL     1       1.077   0.142   1.827  0.00  0.00    +0.150 HD
ATOM     10  H   UNL     1       1.609  -3.213   2.633  0.00  0.00    +0.174 HD
BRANCH   5  12
ATOM     11  C   UNL     1      -0.019   1.526   0.010  0.00  0.00    +0.024 C 
ATOM     12  C   UNL     1       0.002  -0.004   0.002  0.00  0.00    +0.102 C 
ENDBRANCH   5  12
ENDBRANCH   1   8
BRANCH   2  13
ATOM     13  C   UNL     1       3.255  -0.812   5.492  0.00  0.00    +0.202 C 
BRANCH  13  14
ATOM     14  N   UNL     1       3.910  -1.542   6.580  0.00  0.00    -0.300 N 
ATOM     15  C   UNL     1       4.494  -0.866   7.589  0.00  0.00    +0.280 C 
ATOM     16  O   UNL     1       4.477   0.351   7.596  0.00  0.00    -0.267 OA
ATOM     17  H   UNL     1       3.923  -2.512   6.575  0.00  0.00    +0.150 HD
BRANCH  15  18
ATOM     18  C   UNL     1       5.149  -1.596   8.678  0.00  0.00    +0.191 A 
ATOM     19  C   UNL     1       5.771  -1.037   9.758  0.00  0.00    +0.056 A 
ATOM     20  C   UNL     1       6.252  -2.098  10.540  0.00  0.00    +0.058 A 
ATOM     21  C   UNL     1       5.908  -3.245   9.911  0.00  0.00    +0.171 A 
ATOM     22  O   UNL     1       5.238  -2.938   8.792  0.00  0.00    -0.444 OA
ATOM     23 BR   UNL     1       6.300  -4.993  10.514  0.00  0.00    -0.008 Br
ENDBRANCH  15  18
ENDBRANCH  13  14
ENDBRANCH   2  13
TORSDOF 5
