REMARK  Name = ZINC56418107
REMARK  13 active torsions:
REMARK  status: ('A' for Active; 'I' for Inactive)
REMARK    1  A    between atoms: C_1  and  C_2
REMARK    2  A    between atoms: C_2  and  C_27
REMARK    3  A    between atoms: C_4  and  N_10
REMARK    4  A    between atoms: C_6  and  C_8
REMARK    5  A    between atoms: C_6  and  C_9
REMARK    6  A    between atoms: N_13  and  C_14
REMARK    7  A    between atoms: C_14  and  C_15
REMARK    8  A    between atoms: C_16  and  O_25
REMARK    9  A    between atoms: C_18  and  O_23
REMARK   10  A    between atoms: C_20  and  O_21
REMARK   11  A    between atoms: O_21  and  C_22
REMARK   12  A    between atoms: O_23  and  C_24
REMARK   13  A    between atoms: O_25  and  C_26
REMARK                            x       y       z     vdW  Elec       q    Type
REMARK                         _______ _______ _______ _____ _____    ______ ____
ROOT
ATOM      1  N   UNL     1       2.615  -0.819  -2.626  0.00  0.00    -0.297 N 
ATOM      2  C   UNL     1       3.770  -0.334  -3.123  0.00  0.00    +0.300 C 
ATOM      3  O   UNL     1       4.376   0.532  -2.522  0.00  0.00    -0.253 OA
ATOM      4  N   UNL     1       4.255  -0.809  -4.288  0.00  0.00    -0.295 N 
ATOM      5  H   UNL     1       2.133  -1.510  -3.106  0.00  0.00    +0.151 HD
ATOM      6  H   UNL     1       3.772  -1.500  -4.768  0.00  0.00    +0.151 HD
ENDROOT
BRANCH   1  10
ATOM      7  C   UNL     1      -0.019   1.528   0.010  0.00  0.00    -0.010 C 
ATOM      8  C   UNL     1       0.002  -0.004   0.002  0.00  0.00    -0.072 C 
ATOM      9  C   UNL     1       0.573  -0.505  -1.321  0.00  0.00    +0.009 C 
ATOM     10  C   UNL     1       2.088  -0.301  -1.357  0.00  0.00    +0.072 C 
ATOM     11  C   UNL     1       2.703  -1.086  -0.198  0.00  0.00    +0.009 C 
ATOM     12  C   UNL     1       2.147  -0.590   1.133  0.00  0.00    -0.072 C 
ATOM     13  N   UNL     1       0.697  -0.529   1.164  0.00  0.00    +0.386 N 
ATOM     14  C   UNL     1       2.769   0.766   1.481  0.00  0.00    -0.010 C 
ATOM     15  C   UNL     1       2.600  -1.589   2.223  0.00  0.00    -0.010 C 
ATOM     16  C   UNL     1      -1.468  -0.478   0.079  0.00  0.00    -0.010 C 
ATOM     17  H   UNL     1       0.416   0.021   1.982  0.00  0.00    -0.084 HD
ATOM     18  H   UNL     1       0.341  -1.472   1.351  0.00  0.00    -0.084 HD
ENDBRANCH   1  10
BRANCH   4  19
ATOM     19  C   UNL     1       5.510  -0.282  -4.829  0.00  0.00    +0.148 C 
BRANCH  19  20
ATOM     20  C   UNL     1       5.827  -0.976  -6.129  0.00  0.00    +0.053 A 
ATOM     21  C   UNL     1       6.579  -2.140  -6.129  0.00  0.00    +0.132 A 
ATOM     22  C   UNL     1       6.871  -2.778  -7.325  0.00  0.00    +0.091 A 
ATOM     23  C   UNL     1       6.409  -2.251  -8.522  0.00  0.00    +0.127 A 
ATOM     24  C   UNL     1       5.656  -1.087  -8.523  0.00  0.00    +0.091 A 
ATOM     25  C   UNL     1       5.361  -0.451  -7.326  0.00  0.00    +0.132 A 
BRANCH  25  26
ATOM     26  O   UNL     1       4.619   0.687  -7.326  0.00  0.00    -0.495 OA
ATOM     27  C   UNL     1       4.172   1.170  -8.594  0.00  0.00    +0.277 C 
ENDBRANCH  25  26
BRANCH  23  28
ATOM     28  O   UNL     1       6.696  -2.876  -9.695  0.00  0.00    -0.495 OA
ATOM     29  C   UNL     1       6.188  -2.277 -10.889  0.00  0.00    +0.277 C 
ENDBRANCH  23  28
BRANCH  21  30
ATOM     30  O   UNL     1       7.031  -2.657  -4.956  0.00  0.00    -0.495 OA
ATOM     31  C   UNL     1       7.800  -3.859  -5.030  0.00  0.00    +0.277 C 
ENDBRANCH  21  30
ENDBRANCH  19  20
ENDBRANCH   4  19
TORSDOF 6
