REMARK  Name = ZINC31900849
REMARK  10 active torsions:
REMARK  status: ('A' for Active; 'I' for Inactive)
REMARK    1  A    between atoms: C_1  and  C_2
REMARK    2  A    between atoms: C_2  and  N_3
REMARK    3  A    between atoms: N_3  and  C_4
REMARK    4  A    between atoms: N_3  and  C_6
REMARK    5  A    between atoms: C_4  and  C_5
REMARK    6  A    between atoms: C_9  and  C_13
REMARK    7  A    between atoms: C_11  and  N_12
REMARK    8  A    between atoms: C_13  and  C_14
REMARK    9  A    between atoms: C_14  and  C_15
REMARK   10  A    between atoms: C_22  and  C_24
REMARK                            x       y       z     vdW  Elec       q    Type
REMARK                         _______ _______ _______ _____ _____    ______ ____
ROOT
ATOM      1  C   UNL     1      -0.228   0.453   0.011  0.00  0.00    +0.051 A 
ATOM      2  C   UNL     1      -1.101   1.520  -0.136  0.00  0.00    +0.025 A 
ATOM      3  C   UNL     1      -0.608   2.785  -0.401  0.00  0.00    +0.005 A 
ATOM      4  C   UNL     1       0.754   2.989  -0.521  0.00  0.00    -0.045 A 
ATOM      5  C   UNL     1       1.631   1.931  -0.377  0.00  0.00    +0.028 A 
ATOM      6  C   UNL     1       1.146   0.659  -0.111  0.00  0.00    +0.046 A 
ENDROOT
BRANCH   6   7
ATOM      7  N   UNL     1       2.033  -0.415   0.035  0.00  0.00    -0.357 N 
ATOM      8  H   UNL     1       3.116  -0.250  -0.061  0.00  0.00    +0.142 HD
ATOM      9  H   UNL     1       1.646  -1.423   0.246  0.00  0.00    +0.142 HD
ENDBRANCH   6   7
BRANCH   1  10
ATOM     10  N   UNL     1      -0.724  -0.829   0.279  0.00  0.00    -0.329 N 
BRANCH  10  12
ATOM     11  C   UNL     1      -0.508  -0.811   2.718  0.00  0.00    +0.024 C 
ATOM     12  C   UNL     1      -1.481  -0.847   1.538  0.00  0.00    +0.102 C 
ENDBRANCH  10  12
BRANCH  10  13
ATOM     13  C   UNL     1      -1.546  -1.319  -0.836  0.00  0.00    +0.102 C 
ATOM     14  C   UNL     1      -1.736  -2.831  -0.703  0.00  0.00    +0.024 C 
ENDBRANCH  10  13
ENDBRANCH   1  10
BRANCH   4  15
ATOM     15  C   UNL     1       1.284   4.370  -0.811  0.00  0.00    +0.044 C 
BRANCH  15  16
ATOM     16  C   UNL     1       1.548   5.101   0.506  0.00  0.00    +0.100 C 
BRANCH  16  17
ATOM     17  C   UNL     1       2.078   6.482   0.216  0.00  0.00    +0.216 C 
ATOM     18  O   UNL     1       2.229   6.846  -0.931  0.00  0.00    -0.276 OA
ATOM     19  N   UNL     1       2.384   7.314   1.232  0.00  0.00    -0.299 N 
ATOM     20  C   UNL     1       2.323   6.849   2.624  0.00  0.00    +0.108 C 
ATOM     21  C   UNL     1       1.434   7.806   3.425  0.00  0.00    +0.019 C 
ATOM     22  C   UNL     1       1.955   9.236   3.262  0.00  0.00    +0.003 C 
ATOM     23  C   UNL     1       1.892   9.638   1.787  0.00  0.00    +0.022 C 
ATOM     24  C   UNL     1       2.791   8.700   0.968  0.00  0.00    +0.073 C 
ATOM     25  C   UNL     1       2.632   9.007  -0.523  0.00  0.00    +0.028 C 
ENDBRANCH  16  17
ENDBRANCH  15  16
ENDBRANCH   4  15
TORSDOF 7
