REMARK  Name = ZINC57994086
REMARK  10 active torsions:
REMARK  status: ('A' for Active; 'I' for Inactive)
REMARK    1  A    between atoms: C_1  and  N_2
REMARK    2  A    between atoms: N_2  and  C_3
REMARK    3  A    between atoms: C_5  and  C_10
REMARK    4  A    between atoms: C_10  and  N_11
REMARK    5  A    between atoms: N_14  and  C_15
REMARK    6  A    between atoms: C_19  and  C_21
REMARK    7  A    between atoms: C_22  and  C_23
REMARK    8  A    between atoms: C_27  and  C_29
REMARK    9  A    between atoms: C_29  and  O_31
REMARK   10  A    between atoms: O_31  and  C_32
REMARK                            x       y       z     vdW  Elec       q    Type
REMARK                         _______ _______ _______ _____ _____    ______ ____
ROOT
ATOM      1  C   UNL     1       3.505  -4.205   2.445  0.00  0.00    +0.036 A 
ATOM      2  C   UNL     1       4.139  -4.636   1.285  0.00  0.00    +0.023 A 
ATOM      3  C   UNL     1       5.379  -5.243   1.354  0.00  0.00    +0.003 A 
ATOM      4  C   UNL     1       5.997  -5.426   2.574  0.00  0.00    +0.017 A 
ATOM      5  C   UNL     1       5.368  -4.996   3.746  0.00  0.00    +0.027 A 
ATOM      6  C   UNL     1       4.118  -4.378   3.675  0.00  0.00    +0.040 A 
ENDROOT
BRANCH   1  10
ATOM      7  N   UNL     1       0.767  -1.934   3.079  0.00  0.00    -0.295 N 
ATOM      8  C   UNL     1       1.937  -2.590   3.214  0.00  0.00    +0.304 C 
ATOM      9  O   UNL     1       2.710  -2.277   4.099  0.00  0.00    -0.252 OA
ATOM     10  N   UNL     1       2.249  -3.592   2.369  0.00  0.00    -0.269 N 
ATOM     11  H   UNL     1       0.150  -2.183   2.373  0.00  0.00    +0.151 HD
ATOM     12  H   UNL     1       1.604  -3.888   1.708  0.00  0.00    +0.156 HD
BRANCH   7  13
ATOM     13  C   UNL     1       0.427  -0.845   3.998  0.00  0.00    +0.144 C 
BRANCH  13  18
ATOM     14  C   UNL     1      -1.861  -3.389   4.107  0.00  0.00    +0.130 C 
ATOM     15  N   UNL     1      -2.003  -2.098   4.784  0.00  0.00    -0.323 N 
ATOM     16  C   UNL     1      -2.057  -2.041   6.247  0.00  0.00    +0.130 C 
ATOM     17  C   UNL     1      -2.087  -0.928   4.039  0.00  0.00    +0.103 A 
ATOM     18  C   UNL     1      -0.923  -0.283   3.634  0.00  0.00    +0.008 A 
ATOM     19  C   UNL     1      -1.021   0.881   2.893  0.00  0.00    +0.010 A 
ATOM     20  C   UNL     1      -2.285   1.363   2.581  0.00  0.00    +0.018 A 
ATOM     21  C   UNL     1      -3.399   0.672   3.015  0.00  0.00    +0.084 A 
ATOM     22  N   UNL     1      -3.275  -0.439   3.716  0.00  0.00    -0.349 N 
ATOM     23  H   UNL     1      -4.074  -0.907   4.006  0.00  0.00    +0.167 HD
ENDBRANCH  13  18
ENDBRANCH   7  13
ENDBRANCH   1  10
BRANCH   5  24
ATOM     24  C   UNL     1       6.006  -5.184   5.014  0.00  0.00    -0.061 C 
ATOM     25  C   UNL     1       6.530  -5.338   6.054  0.00  0.00    -0.061 C 
BRANCH  25  26
ATOM     26  C   UNL     1       7.168  -5.526   7.322  0.00  0.00    +0.026 A 
ATOM     27  C   UNL     1       8.425  -6.135   7.391  0.00  0.00    +0.017 A 
ATOM     28  C   UNL     1       9.041  -6.316   8.612  0.00  0.00    +0.002 A 
ATOM     29  C   UNL     1       8.422  -5.899   9.774  0.00  0.00    +0.015 A 
ATOM     30  C   UNL     1       7.166  -5.289   9.721  0.00  0.00    +0.060 A 
ATOM     31  C   UNL     1       6.540  -5.097   8.491  0.00  0.00    +0.031 A 
BRANCH  30  32
ATOM     32  C   UNL     1       6.506  -4.844  10.965  0.00  0.00    +0.339 C 
ATOM     33  O   UNL     1       5.414  -4.314  10.918  0.00  0.00    -0.245 OA
BRANCH  32  34
ATOM     34  O   UNL     1       7.115  -5.025  12.153  0.00  0.00    -0.464 OA
ATOM     35  C   UNL     1       6.419  -4.571  13.315  0.00  0.00    +0.280 C 
ENDBRANCH  32  34
ENDBRANCH  30  32
ENDBRANCH  25  26
ENDBRANCH   5  24
TORSDOF 7
