REMARK  Name = ZINC03898639
REMARK  7 active torsions:
REMARK  status: ('A' for Active; 'I' for Inactive)
REMARK    1  A    between atoms: C_1  and  C_2
REMARK    2  A    between atoms: C_4  and  O_25
REMARK    3  A    between atoms: C_6  and  O_24
REMARK    4  A    between atoms: C_8  and  O_23
REMARK    5  A    between atoms: C_10  and  N_13
REMARK    6  A    between atoms: N_13  and  C_14
REMARK    7  A    between atoms: C_19  and  N_20
REMARK                            x       y       z     vdW  Elec       q    Type
REMARK                         _______ _______ _______ _____ _____    ______ ____
ROOT
ATOM      1  C   UNL     1       0.506   1.408   1.139  0.00  0.00    +0.041 C 
ATOM      2  C   UNL     1       0.923   0.973  -0.268  0.00  0.00    +0.149 C 
ATOM      3  C   UNL     1       2.368   1.405  -0.528  0.00  0.00    +0.174 C 
ATOM      4  C   UNL     1       2.798   0.913  -1.914  0.00  0.00    +0.178 C 
ATOM      5  C   UNL     1       2.625  -0.608  -1.980  0.00  0.00    +0.192 C 
ATOM      6  C   UNL     1       1.170  -0.962  -1.663  0.00  0.00    +0.235 C 
ATOM      7  O   UNL     1       0.826  -0.449  -0.374  0.00  0.00    -0.351 OA
ENDROOT
BRANCH   6   8
ATOM      8  N   UNL     1       0.291  -0.371  -2.675  0.00  0.00    -0.315 N 
ATOM      9  H   UNL     1       0.478   0.515  -3.022  0.00  0.00    +0.149 HD
BRANCH   8  10
ATOM     10  C   UNL     1      -0.816  -1.084  -3.140  0.00  0.00    +0.060 A 
ATOM     11  C   UNL     1      -1.155  -2.301  -2.561  0.00  0.00    +0.025 A 
ATOM     12  C   UNL     1      -2.250  -3.003  -3.023  0.00  0.00    +0.002 A 
ATOM     13  C   UNL     1      -3.010  -2.497  -4.062  0.00  0.00    +0.002 A 
ATOM     14  C   UNL     1      -2.675  -1.286  -4.641  0.00  0.00    +0.034 A 
ATOM     15  C   UNL     1      -1.584  -0.576  -4.180  0.00  0.00    +0.147 A 
BRANCH  15  16
ATOM     16  N   UNL     1      -1.230   0.722  -4.796  0.00  0.00    +0.058 N 
ATOM     17  O   UNL     1      -0.820   1.634  -4.102  0.00  0.00    -0.126 OA
ATOM     18  O   UNL     1      -1.350   0.878  -5.998  0.00  0.00    -0.126 OA
ENDBRANCH  15  16
ENDBRANCH   8  10
ENDBRANCH   6   8
BRANCH   5  19
ATOM     19  O   UNL     1       2.954  -1.069  -3.291  0.00  0.00    -0.385 OA
ATOM     20  H   UNL     1       2.863  -2.025  -3.406  0.00  0.00    +0.210 HD
ENDBRANCH   5  19
BRANCH   4  21
ATOM     21  O   UNL     1       1.986   1.530  -2.915  0.00  0.00    -0.386 OA
ATOM     22  H   UNL     1       2.200   1.258  -3.818  0.00  0.00    +0.210 HD
ENDBRANCH   4  21
BRANCH   3  23
ATOM     23  O   UNL     1       3.223   0.839   0.466  0.00  0.00    -0.387 OA
ATOM     24  H   UNL     1       3.005   1.104   1.370  0.00  0.00    +0.210 HD
ENDBRANCH   3  23
TORSDOF 6
