REMARK  Name = ZINC43737071
REMARK  9 active torsions:
REMARK  status: ('A' for Active; 'I' for Inactive)
REMARK    1  A    between atoms: C_1  and  C_2
REMARK    2  A    between atoms: C_2  and  C_4
REMARK    3  A    between atoms: C_4  and  O_41
REMARK    4  A    between atoms: C_9  and  C_40
REMARK    5  A    between atoms: N_21  and  O_22
REMARK    6  A    between atoms: O_22  and  C_23
REMARK    7  A    between atoms: C_23  and  C_24
REMARK    8  A    between atoms: N_26  and  C_27
REMARK    9  A    between atoms: C_38  and  C_39
REMARK                            x       y       z     vdW  Elec       q    Type
REMARK                         _______ _______ _______ _____ _____    ______ ____
ROOT
ATOM      1  C   UNL     1      -0.207  -0.895  -1.331  0.00  0.00    +0.129 C 
ATOM      2  C   UNL     1      -1.565  -1.488  -1.756  0.00  0.00    +0.043 C 
ATOM      3  C   UNL     1      -1.435  -3.020  -1.624  0.00  0.00    +0.008 C 
ATOM      4  C   UNL     1       0.080  -3.302  -1.795  0.00  0.00    +0.002 C 
ATOM      5  C   UNL     1       0.739  -2.080  -1.147  0.00  0.00    +0.007 C 
ATOM      6  C   UNL     1       2.162  -1.833  -1.580  0.00  0.00    +0.010 C 
ATOM      7  C   UNL     1       2.341  -1.945  -3.095  0.00  0.00    +0.005 C 
ATOM      8  C   UNL     1       1.896  -3.343  -3.529  0.00  0.00    +0.002 C 
ATOM      9  C   UNL     1       0.397  -3.474  -3.275  0.00  0.00    -0.003 C 
ATOM     10  C   UNL     1      -0.385  -2.487  -4.137  0.00  0.00    +0.008 C 
ATOM     11  C   UNL     1      -0.150  -2.813  -5.617  0.00  0.00    +0.031 C 
ATOM     12  C   UNL     1       1.344  -2.788  -5.883  0.00  0.00    -0.062 C 
ATOM     13  C   UNL     1       1.779  -2.026  -6.879  0.00  0.00    +0.026 C 
ATOM     14  C   UNL     1       3.212  -1.990  -7.216  0.00  0.00    +0.080 C 
ATOM     15  N   UNL     1       3.724  -1.040  -7.931  0.00  0.00    -0.089 NA
ATOM     16  C   UNL     1       4.053  -3.145  -6.707  0.00  0.00    +0.059 C 
ATOM     17  C   UNL     1       3.724  -3.348  -5.230  0.00  0.00    +0.017 C 
ATOM     18  C   UNL     1       2.243  -3.594  -4.996  0.00  0.00    -0.007 C 
ATOM     19  C   UNL     1       1.986  -5.077  -5.294  0.00  0.00    +0.016 C 
ATOM     20  C   UNL     1       0.798  -2.363   0.374  0.00  0.00    +0.015 C 
ENDROOT
BRANCH   1  22
ATOM     21  C   UNL     1       0.585   0.936   0.361  0.00  0.00    +0.089 C 
ATOM     22  C   UNL     1      -0.370  -0.167  -0.014  0.00  0.00    +0.162 C 
ATOM     23  O   UNL     1      -1.266  -0.471   0.736  0.00  0.00    -0.295 OA
ENDBRANCH   1  22
BRANCH   1  24
ATOM     24  O   UNL     1       0.278   0.016  -2.315  0.00  0.00    -0.381 OA
ATOM     25  H   UNL     1      -0.301   0.776  -2.467  0.00  0.00    +0.211 HD
ENDBRANCH   1  24
BRANCH  15  26
ATOM     26  O   UNL     1       2.901   0.006  -8.414  0.00  0.00    -0.384 OA
BRANCH  26  27
ATOM     27  C   UNL     1       3.599   0.985  -9.187  0.00  0.00    +0.358 C 
BRANCH  27  28
ATOM     28  C   UNL     1       2.631   2.045  -9.646  0.00  0.00    +0.254 C 
ATOM     29  O   UNL     1       1.460   1.970  -9.342  0.00  0.00    -0.272 OA
ATOM     30  N   UNL     1       3.067   3.076 -10.396  0.00  0.00    -0.301 N 
ATOM     31  H   UNL     1       4.004   3.136 -10.640  0.00  0.00    +0.150 HD
BRANCH  30  32
ATOM     32  C   UNL     1       2.127   4.107 -10.843  0.00  0.00    +0.159 C 
ATOM     33  C   UNL     1       2.882   5.410 -11.112  0.00  0.00    +0.032 C 
ATOM     34  C   UNL     1       1.955   6.605 -10.982  0.00  0.00    +0.004 C 
ATOM     35  C   UNL     1       0.877   6.663 -12.050  0.00  0.00    +0.019 C 
ATOM     36  C   UNL     1      -0.113   5.509 -11.888  0.00  0.00    +0.104 C 
ATOM     37  N   UNL     1       0.411   4.335 -12.606  0.00  0.00    -0.314 N 
ATOM     38  C   UNL     1       1.456   3.662 -12.125  0.00  0.00    +0.233 C 
ATOM     39  O   UNL     1       1.874   2.691 -12.721  0.00  0.00    -0.274 OA
ATOM     40  H   UNL     1      -0.009   4.048 -13.432  0.00  0.00    +0.149 HD
ENDBRANCH  30  32
ENDBRANCH  27  28
ENDBRANCH  26  27
ENDBRANCH  15  26
TORSDOF 6
