REMARK  Name = ZINC62406621
REMARK  8 active torsions:
REMARK  status: ('A' for Active; 'I' for Inactive)
REMARK    1  A    between atoms: C_1  and  O_2
REMARK    2  A    between atoms: O_2  and  C_3
REMARK    3  A    between atoms: C_3  and  C_4
REMARK    4  A    between atoms: C_4  and  N_5
REMARK    5  A    between atoms: C_8  and  C_10
REMARK    6  A    between atoms: C_10  and  N_11
REMARK    7  A    between atoms: N_14  and  C_15
REMARK    8  A    between atoms: C_17  and  C_23
REMARK                            x       y       z     vdW  Elec       q    Type
REMARK                         _______ _______ _______ _____ _____    ______ ____
ROOT
ATOM      1  N   UNL     1       2.589  -5.827   2.753  0.00  0.00    -0.299 N 
ATOM      2  C   UNL     1       3.409  -6.883   2.577  0.00  0.00    +0.304 C 
ATOM      3  O   UNL     1       3.393  -7.497   1.528  0.00  0.00    -0.253 OA
ATOM      4  N   UNL     1       4.246  -7.257   3.565  0.00  0.00    -0.265 N 
ATOM      5  H   UNL     1       2.602  -5.338   3.590  0.00  0.00    +0.150 HD
ATOM      6  H   UNL     1       4.313  -6.724   4.372  0.00  0.00    +0.157 HD
ENDROOT
BRANCH   4   7
ATOM      7  C   UNL     1       5.022  -8.417   3.424  0.00  0.00    +0.100 A 
ATOM      8  C   UNL     1       6.386  -8.350   3.495  0.00  0.00    +0.042 A 
ATOM      9  C   UNL     1       7.138  -9.525   3.352  0.00  0.00    +0.073 A 
ATOM     10  C   UNL     1       6.513 -10.707   3.145  0.00  0.00    +0.098 A 
ATOM     11  N   UNL     1       5.157 -10.775   3.073  0.00  0.00    -0.327 N 
ATOM     12  H   UNL     1       4.728 -11.632   2.925  0.00  0.00    +0.168 HD
ATOM     13  C   UNL     1       4.403  -9.668   3.213  0.00  0.00    +0.270 A 
ATOM     14  O   UNL     1       3.187  -9.746   3.151  0.00  0.00    -0.266 OA
BRANCH   9  15
ATOM     15  C   UNL     1       8.642  -9.471   3.427  0.00  0.00    +0.419 C 
ATOM     16  F   UNL     1       9.164 -10.758   3.256  0.00  0.00    -0.166 F 
ATOM     17  F   UNL     1       9.129  -8.632   2.419  0.00  0.00    -0.166 F 
ATOM     18  F   UNL     1       9.029  -8.973   4.676  0.00  0.00    -0.166 F 
ENDBRANCH   9  15
ENDBRANCH   4   7
BRANCH   1  19
ATOM     19  C   UNL     1       1.679  -5.420   1.680  0.00  0.00    +0.107 C 
BRANCH  19  23
ATOM     20  N   UNL     1      -0.156  -2.307   1.087  0.00  0.00    +0.381 N 
ATOM     21  C   UNL     1       1.263  -1.932   1.314  0.00  0.00    -0.078 C 
ATOM     22  C   UNL     1       1.788  -2.982   2.316  0.00  0.00    -0.016 C 
ATOM     23  C   UNL     1       0.866  -4.206   2.134  0.00  0.00    -0.012 C 
ATOM     24  C   UNL     1      -0.138  -3.792   1.036  0.00  0.00    -0.074 C 
ATOM     25  H   UNL     1      -0.734  -1.987   1.850  0.00  0.00    -0.082 HD
BRANCH  20  26
ATOM     26  C   UNL     1      -0.636  -1.756  -0.187  0.00  0.00    -0.050 C 
BRANCH  26  27
ATOM     27  C   UNL     1      -0.764  -0.236  -0.069  0.00  0.00    +0.141 C 
BRANCH  27  29
ATOM     28  C   UNL     1       0.521   1.762   0.251  0.00  0.00    +0.193 C 
ATOM     29  O   UNL     1       0.529   0.338   0.128  0.00  0.00    -0.385 OA
ENDBRANCH  27  29
ENDBRANCH  26  27
ENDBRANCH  20  26
ENDBRANCH  19  23
ENDBRANCH   1  19
TORSDOF 7
