REMARK  Name = ZINC23841453
REMARK  10 active torsions:
REMARK  status: ('A' for Active; 'I' for Inactive)
REMARK    1  A    between atoms: C_1  and  C_2
REMARK    2  A    between atoms: C_7  and  C_8
REMARK    3  A    between atoms: C_8  and  N_9
REMARK    4  A    between atoms: N_9  and  C_10
REMARK    5  A    between atoms: N_9  and  C_11
REMARK    6  A    between atoms: C_11  and  N_12
REMARK    7  A    between atoms: C_15  and  C_20
REMARK    8  A    between atoms: C_20  and  C_21
REMARK    9  A    between atoms: C_21  and  C_22
REMARK   10  A    between atoms: C_21  and  C_23
REMARK                            x       y       z     vdW  Elec       q    Type
REMARK                         _______ _______ _______ _____ _____    ______ ____
ROOT
ATOM      1  N   UNL     1      -1.318   2.039   0.278  0.00  0.00    -0.211 N 
ATOM      2  C   UNL     1      -0.966   3.337   0.195  0.00  0.00    +0.244 C 
ATOM      3  O   UNL     1      -1.705   4.297   0.191  0.00  0.00    -0.273 OA
ATOM      4  C   UNL     1       0.547   3.345   0.100  0.00  0.00    +0.161 C 
ATOM      5  N   UNL     1       0.906   1.917   0.152  0.00  0.00    -0.288 N 
ATOM      6  C   UNL     1      -0.248   1.235   0.259  0.00  0.00    +0.310 C 
ATOM      7  O   UNL     1      -0.313   0.023   0.326  0.00  0.00    -0.252 OA
ATOM      8  H   UNL     1       1.962   1.613   0.102  0.00  0.00    +0.151 HD
ENDROOT
BRANCH   1   9
ATOM      9  C   UNL     1      -2.701   1.566   0.381  0.00  0.00    +0.205 C 
BRANCH   9  10
ATOM     10  N   UNL     1      -3.085   1.480   1.796  0.00  0.00    -0.285 NA
ATOM     11  C   UNL     1      -2.588   0.237   2.402  0.00  0.00    +0.106 C 
BRANCH  10  12
ATOM     12  C   UNL     1      -4.541   1.598   1.955  0.00  0.00    +0.121 C 
BRANCH  12  19
ATOM     13  C   UNL     1      -4.265   4.172   3.236  0.00  0.00    +0.044 C 
ATOM     14  C   UNL     1      -4.744   2.983   4.029  0.00  0.00    -0.046 A 
ATOM     15  C   UNL     1      -5.052   3.125   5.369  0.00  0.00    +0.003 A 
ATOM     16  C   UNL     1      -5.492   2.035   6.096  0.00  0.00    +0.000 A 
ATOM     17  C   UNL     1      -5.624   0.803   5.483  0.00  0.00    +0.000 A 
ATOM     18  C   UNL     1      -5.321   0.662   4.142  0.00  0.00    +0.005 A 
ATOM     19  C   UNL     1      -4.876   1.752   3.416  0.00  0.00    -0.030 A 
ENDBRANCH  12  19
ENDBRANCH  10  12
ENDBRANCH   9  10
ENDBRANCH   1   9
BRANCH   4  20
ATOM     20  C   UNL     1       1.157   4.096   1.286  0.00  0.00    +0.034 C 
BRANCH  20  21
ATOM     21  C   UNL     1       0.871   5.593   1.143  0.00  0.00    -0.015 C 
ATOM     22  C   UNL     1       1.350   6.325   2.397  0.00  0.00    +0.007 C 
ATOM     23  C   UNL     1       1.609   6.139  -0.081  0.00  0.00    +0.007 C 
ENDBRANCH  20  21
ENDBRANCH   4  20
TORSDOF 6
