REMARK  Name = ZINC13142292
REMARK  14 active torsions:
REMARK  status: ('A' for Active; 'I' for Inactive)
REMARK    1  A    between atoms: C_1  and  C_2
REMARK    2  A    between atoms: C_2  and  C_3
REMARK    3  A    between atoms: C_3  and  C_4
REMARK    4  A    between atoms: C_4  and  S_5
REMARK    5  A    between atoms: S_5  and  C_6
REMARK    6  A    between atoms: C_6  and  S_26
REMARK    7  A    between atoms: C_7  and  C_24
REMARK    8  A    between atoms: C_9  and  C_23
REMARK    9  A    between atoms: C_10  and  C_17
REMARK   10  A    between atoms: C_12  and  C_15
REMARK   11  A    between atoms: S_26  and  C_27
REMARK   12  A    between atoms: C_27  and  C_28
REMARK   13  A    between atoms: C_28  and  C_29
REMARK   14  A    between atoms: C_29  and  C_30
REMARK                            x       y       z     vdW  Elec       q    Type
REMARK                         _______ _______ _______ _____ _____    ______ ____
ROOT
ATOM      1  C   UNL     1       0.803   1.676   2.342  0.00  0.00    +0.157 C 
ATOM      2  C   UNL     1      -0.570   1.631   1.668  0.00  0.00    +0.146 C 
ATOM      3  C   UNL     1      -1.438   0.444   1.970  0.00  0.00    +0.017 C 
ATOM      4  C   UNL     1      -2.335   0.180   1.008  0.00  0.00    -0.017 C 
ATOM      5  C   UNL     1      -1.265   1.693  -0.682  0.00  0.00    +0.113 C 
ATOM      6  C   UNL     1      -0.084   1.374   0.203  0.00  0.00    +0.156 C 
ATOM      7  C   UNL     1       1.153   2.197   0.121  0.00  0.00    +0.092 C 
ATOM      8  N   UNL     1       1.684   2.724  -1.027  0.00  0.00    -0.347 N 
ATOM      9  C   UNL     1      -3.262  -0.998   1.164  0.00  0.00    +0.058 C 
ATOM     10  H   UNL     1       1.331   2.458  -1.890  0.00  0.00    +0.143 HD
ATOM     11  H   UNL     1       2.412   3.362  -0.976  0.00  0.00    +0.143 HD
ATOM     12  N   UNL     1      -2.506   0.980  -0.169  0.00  0.00    -0.401 NA
ATOM     13  H   UNL     1      -3.215   1.692   0.039  0.00  0.00    +0.124 HD
ATOM     14  H   UNL     1      -2.848   0.365  -0.916  0.00  0.00    +0.124 HD
ATOM     15  N   UNL     1       1.663   2.343   1.323  0.00  0.00    -0.351 N 
ATOM     16  H   UNL     1       2.533   2.846   1.532  0.00  0.00    +0.163 HD
ENDROOT
BRANCH   5  17
ATOM     17  C   UNL     1      -1.513   3.180  -0.694  0.00  0.00    -0.027 A 
ATOM     18  C   UNL     1      -2.686   3.689  -0.169  0.00  0.00    +0.005 A 
ATOM     19  C   UNL     1      -2.912   5.052  -0.175  0.00  0.00    +0.000 A 
ATOM     20  C   UNL     1      -1.969   5.906  -0.717  0.00  0.00    +0.000 A 
ATOM     21  C   UNL     1      -0.799   5.397  -1.248  0.00  0.00    +0.000 A 
ATOM     22  C   UNL     1      -0.571   4.034  -1.236  0.00  0.00    +0.005 A 
ENDBRANCH   5  17
BRANCH   6  23
ATOM     23  C   UNL     1       0.267  -0.048   0.053  0.00  0.00    +0.081 C 
ATOM     24  N   UNL     1       0.537  -1.145  -0.063  0.00  0.00    -0.195 NA
ENDBRANCH   6  23
BRANCH   2  25
ATOM     25  C   UNL     1      -1.294   2.905   1.806  0.00  0.00    +0.080 C 
ATOM     26  N   UNL     1      -1.854   3.888   1.913  0.00  0.00    -0.195 NA
ENDBRANCH   2  25
BRANCH   1  27
ATOM     27  S   UNL     1       1.403   0.000   2.690  0.00  0.00    -0.120 S 
BRANCH  27  28
ATOM     28  C   UNL     1       3.151   0.051   2.206  0.00  0.00    +0.072 C 
BRANCH  28  29
ATOM     29  C   UNL     1       3.819  -1.278   2.567  0.00  0.00    +0.010 C 
BRANCH  29  31
ATOM     30  C   UNL     1       5.960  -2.564   2.520  0.00  0.00    +0.004 C 
ATOM     31  C   UNL     1       5.293  -1.235   2.159  0.00  0.00    -0.003 C 
ENDBRANCH  29  31
ENDBRANCH  28  29
ENDBRANCH  27  28
ENDBRANCH   1  27
BRANCH   1  32
ATOM     32  S   UNL     1       0.745   2.663   3.863  0.00  0.00    -0.120 S 
BRANCH  32  33
ATOM     33  C   UNL     1       2.396   2.456   4.584  0.00  0.00    +0.072 C 
BRANCH  33  34
ATOM     34  C   UNL     1       2.447   3.148   5.948  0.00  0.00    +0.010 C 
BRANCH  34  35
ATOM     35  C   UNL     1       3.840   2.973   6.556  0.00  0.00    -0.003 C 
ATOM     36  C   UNL     1       3.892   3.665   7.920  0.00  0.00    +0.004 C 
ENDBRANCH  34  35
ENDBRANCH  33  34
ENDBRANCH  32  33
ENDBRANCH   1  32
TORSDOF 11
