REMARK  Name = ZINC04889908
REMARK  11 active torsions:
REMARK  status: ('A' for Active; 'I' for Inactive)
REMARK    1  A    between atoms: C_1  and  C_2
REMARK    2  A    between atoms: C_2  and  C_3
REMARK    3  A    between atoms: C_2  and  C_4
REMARK    4  A    between atoms: C_2  and  N_5
REMARK    5  A    between atoms: C_6  and  C_8
REMARK    6  A    between atoms: C_8  and  O_9
REMARK    7  A    between atoms: O_9  and  C_10
REMARK    8  A    between atoms: C_10  and  C_12
REMARK    9  A    between atoms: C_13  and  N_26
REMARK   10  A    between atoms: C_14  and  C_17
REMARK   11  A    between atoms: N_19  and  C_20
REMARK                            x       y       z     vdW  Elec       q    Type
REMARK                         _______ _______ _______ _____ _____    ______ ____
ROOT
ATOM      1  C   UNL     1       6.144   0.060  -3.670  0.00  0.00    +0.137 A 
ATOM      2  C   UNL     1       6.995  -0.265  -4.729  0.00  0.00    +0.078 A 
ATOM      3  C   UNL     1       8.266   0.293  -4.610  0.00  0.00    +0.156 A 
ATOM      4  N   UNL     1       8.551   1.041  -3.565  0.00  0.00    -0.203 NA
ATOM      5  S   UNL     1       7.204   1.086  -2.671  0.00  0.00    +0.021 S 
ENDROOT
BRANCH   3   6
ATOM      6  C   UNL     1       9.285   0.045  -5.646  0.00  0.00    +0.265 C 
ATOM      7  O   UNL     1       8.990  -0.564  -6.657  0.00  0.00    -0.268 OA
ATOM      8  N   UNL     1      10.544   0.494  -5.474  0.00  0.00    -0.307 N 
ATOM      9  H   UNL     1      10.780   0.980  -4.668  0.00  0.00    +0.149 HD
BRANCH   8  10
ATOM     10  C   UNL     1      11.557   0.249  -6.504  0.00  0.00    +0.073 C 
ATOM     11  C   UNL     1      12.177  -1.133  -6.290  0.00  0.00    +0.022 C 
ATOM     12  C   UNL     1      13.235  -1.390  -7.365  0.00  0.00    +0.002 C 
ATOM     13  C   UNL     1      14.326  -0.322  -7.272  0.00  0.00    +0.000 C 
ATOM     14  C   UNL     1      13.706   1.061  -7.486  0.00  0.00    +0.002 C 
ATOM     15  C   UNL     1      12.648   1.317  -6.411  0.00  0.00    +0.022 C 
ENDBRANCH   8  10
ENDBRANCH   3   6
BRANCH   2  16
ATOM     16  N   UNL     1       6.611  -1.065  -5.796  0.00  0.00    -0.355 N 
ATOM     17  H   UNL     1       5.739  -1.491  -5.794  0.00  0.00    +0.142 HD
ATOM     18  H   UNL     1       7.214  -1.198  -6.544  0.00  0.00    +0.142 HD
ENDBRANCH   2  16
BRANCH   1  19
ATOM     19  C   UNL     1       4.753  -0.332  -3.445  0.00  0.00    +0.350 C 
ATOM     20  O   UNL     1       4.186  -1.047  -4.249  0.00  0.00    -0.244 OA
BRANCH  19  21
ATOM     21  O   UNL     1       4.100   0.100  -2.347  0.00  0.00    -0.451 OA
BRANCH  21  22
ATOM     22  C   UNL     1       2.744  -0.321  -2.191  0.00  0.00    +0.328 C 
BRANCH  22  24
ATOM     23  N   UNL     1       0.910  -0.011  -0.560  0.00  0.00    -0.308 N 
ATOM     24  C   UNL     1       2.182   0.255  -0.916  0.00  0.00    +0.251 C 
ATOM     25  O   UNL     1       2.875   0.957  -0.211  0.00  0.00    -0.272 OA
ATOM     26  H   UNL     1       0.355  -0.573  -1.124  0.00  0.00    +0.149 HD
BRANCH  23  28
ATOM     27  C   UNL     1       0.419   2.077   0.616  0.00  0.00    +0.031 C 
ATOM     28  C   UNL     1       0.364   0.549   0.678  0.00  0.00    +0.026 C 
ATOM     29  C   UNL     1       1.191   0.057   1.868  0.00  0.00    +0.031 C 
ATOM     30  C   UNL     1      -1.089   0.098   0.846  0.00  0.00    +0.031 C 
ENDBRANCH  23  28
ENDBRANCH  22  24
ENDBRANCH  21  22
ENDBRANCH  19  21
ENDBRANCH   1  19
TORSDOF 8
