REMARK  Name = ZINC67593264
REMARK  9 active torsions:
REMARK  status: ('A' for Active; 'I' for Inactive)
REMARK    1  A    between atoms: C_1  and  O_2
REMARK    2  A    between atoms: O_2  and  C_3
REMARK    3  A    between atoms: C_5  and  C_12
REMARK    4  A    between atoms: C_7  and  O_10
REMARK    5  A    between atoms: C_8  and  O_9
REMARK    6  A    between atoms: O_10  and  C_11
REMARK    7  A    between atoms: C_12  and  N_13
REMARK    8  A    between atoms: C_14  and  C_16
REMARK    9  A    between atoms: C_16  and  C_17
REMARK                            x       y       z     vdW  Elec       q    Type
REMARK                         _______ _______ _______ _____ _____    ______ ____
ROOT
ATOM      1  N   UNL     1       3.802   0.664  -3.902  0.00  0.00    -0.311 N 
ATOM      2  C   UNL     1       4.556   1.403  -4.740  0.00  0.00    +0.215 C 
ATOM      3  O   UNL     1       4.076   1.836  -5.766  0.00  0.00    -0.276 OA
ATOM      4  H   UNL     1       4.186   0.318  -3.082  0.00  0.00    +0.149 HD
ENDROOT
BRANCH   1   5
ATOM      5  C   UNL     1       2.402   0.386  -4.230  0.00  0.00    +0.139 C 
BRANCH   5   8
ATOM      6  C   UNL     1       0.606  -0.608  -1.056  0.00  0.00    +0.165 A 
ATOM      7  C   UNL     1       1.173   0.160  -2.063  0.00  0.00    +0.054 A 
ATOM      8  C   UNL     1       1.787  -0.452  -3.139  0.00  0.00    -0.023 A 
ATOM      9  C   UNL     1       1.839  -1.831  -3.217  0.00  0.00    +0.054 A 
ATOM     10  C   UNL     1       1.275  -2.606  -2.215  0.00  0.00    +0.165 A 
ATOM     11  C   UNL     1       0.661  -1.994  -1.128  0.00  0.00    +0.201 A 
BRANCH   6  13
ATOM     12  C   UNL     1      -0.017   1.425   0.010  0.00  0.00    +0.277 C 
ATOM     13  O   UNL     1       0.002  -0.004   0.002  0.00  0.00    -0.491 OA
ENDBRANCH   6  13
BRANCH  11  14
ATOM     14  O   UNL     1       0.111  -2.751  -0.140  0.00  0.00    -0.501 OA
ATOM     15  H   UNL     1      -0.817  -2.978  -0.289  0.00  0.00    +0.292 HD
ENDBRANCH  11  14
BRANCH  10  16
ATOM     16  O   UNL     1       1.326  -3.963  -2.293  0.00  0.00    -0.491 OA
ATOM     17  C   UNL     1       1.977  -4.523  -3.435  0.00  0.00    +0.277 C 
ENDBRANCH  10  16
ENDBRANCH   5   8
ENDBRANCH   1   5
BRANCH   2  18
ATOM     18  C   UNL     1       5.997   1.689  -4.403  0.00  0.00    +0.119 C 
BRANCH  18  19
ATOM     19  C   UNL     1       6.621   2.540  -5.511  0.00  0.00    +0.146 C 
ATOM     20  C   UNL     1       8.026   2.924  -5.125  0.00  0.00    +0.231 C 
ATOM     21  O   UNL     1       8.213   4.022  -4.646  0.00  0.00    -0.274 OA
ATOM     22  N   UNL     1       9.070   2.117  -5.284  0.00  0.00    -0.284 N 
ATOM     23  C   UNL     1       9.073   0.877  -5.916  0.00  0.00    +0.047 A 
ATOM     24  C   UNL     1      10.139   0.009  -5.703  0.00  0.00    +0.024 A 
ATOM     25  C   UNL     1      10.161  -1.230  -6.312  0.00  0.00    +0.002 A 
ATOM     26  C   UNL     1       9.124  -1.624  -7.138  0.00  0.00    +0.001 A 
ATOM     27  C   UNL     1       8.059  -0.770  -7.361  0.00  0.00    +0.016 A 
ATOM     28  C   UNL     1       8.035   0.476  -6.757  0.00  0.00    +0.030 A 
ATOM     29  S   UNL     1       6.683   1.582  -7.056  0.00  0.00    -0.110 S 
ATOM     30  H   UNL     1       9.916   2.423  -4.922  0.00  0.00    +0.155 HD
ENDBRANCH  18  19
ENDBRANCH   2  18
TORSDOF 7
