REMARK  Name = ZINC16400198
REMARK  6 active torsions:
REMARK  status: ('A' for Active; 'I' for Inactive)
REMARK    1  A    between atoms: C_6  and  C_7
REMARK    2  A    between atoms: C_8  and  C_9
REMARK    3  A    between atoms: N_11  and  C_12
REMARK    4  A    between atoms: C_12  and  N_14
REMARK    5  A    between atoms: N_14  and  C_15
REMARK    6  A    between atoms: C_20  and  C_21
REMARK                            x       y       z     vdW  Elec       q    Type
REMARK                         _______ _______ _______ _____ _____    ______ ____
ROOT
ATOM      1  C   UNL     1       1.242  -1.990   0.215  0.00  0.00    +0.141 C 
ATOM      2  S   UNL     1      -0.206  -2.840   0.547  0.00  0.00    -0.018 S 
ENDROOT
BRANCH   1   5
ATOM      3  C   UNL     1       0.111   0.037   0.468  0.00  0.00    +0.242 C 
ATOM      4  O   UNL     1      -0.919  -0.568   0.705  0.00  0.00    -0.270 OA
ATOM      5  N   UNL     1       1.246  -0.642   0.211  0.00  0.00    -0.264 N 
ATOM      6  H   UNL     1       2.067  -0.160   0.022  0.00  0.00    +0.157 HD
BRANCH   3   8
ATOM      7  C   UNL     1      -1.022   2.179   0.717  0.00  0.00    +0.013 C 
ATOM      8  C   UNL     1       0.116   1.499   0.464  0.00  0.00    +0.068 C 
BRANCH   7  14
ATOM      9  C   UNL     1       0.167   4.348   0.453  0.00  0.00    +0.009 A 
ATOM     10  C   UNL     1       0.163   5.726   0.446  0.00  0.00    +0.020 A 
ATOM     11  C   UNL     1      -1.008   6.420   0.705  0.00  0.00    +0.041 A 
ATOM     12  C   UNL     1      -2.183   5.736   0.968  0.00  0.00    +0.020 A 
ATOM     13  C   UNL     1      -2.196   4.357   0.973  0.00  0.00    +0.009 A 
ATOM     14  C   UNL     1      -1.018   3.650   0.712  0.00  0.00    -0.025 A 
ATOM     15 CL   UNL     1      -1.002   8.156   0.702  0.00  0.00    -0.084 Cl
ENDBRANCH   7  14
ENDBRANCH   3   8
ENDBRANCH   1   5
BRANCH   1  16
ATOM     16  N   UNL     1       2.378  -2.668  -0.043  0.00  0.00    -0.296 N 
ATOM     17  H   UNL     1       3.181  -2.189  -0.299  0.00  0.00    +0.154 HD
BRANCH  16  18
ATOM     18  C   UNL     1       2.397  -4.056   0.059  0.00  0.00    +0.047 A 
ATOM     19  C   UNL     1       1.390  -4.813  -0.526  0.00  0.00    +0.025 A 
ATOM     20  C   UNL     1       1.411  -6.189  -0.425  0.00  0.00    +0.022 A 
ATOM     21  C   UNL     1       2.435  -6.827   0.259  0.00  0.00    +0.042 A 
ATOM     22  C   UNL     1       3.443  -6.092   0.847  0.00  0.00    +0.037 A 
ATOM     23  C   UNL     1       3.438  -4.698   0.748  0.00  0.00    +0.086 A 
ATOM     24 CL   UNL     1       2.447  -8.559   0.377  0.00  0.00    -0.084 Cl
BRANCH  23  25
ATOM     25  C   UNL     1       4.516  -3.907   1.367  0.00  0.00    +0.388 C 
ATOM     26  O   UNL     1       4.457  -2.693   1.365  0.00  0.00    -0.241 OA
ATOM     27  O   UNL     1       5.567  -4.529   1.936  0.00  0.00    -0.241 OA
ENDBRANCH  23  25
ENDBRANCH  16  18
ENDBRANCH   1  16
TORSDOF 6
