REMARK  Name = ZINC64044355
REMARK  7 active torsions:
REMARK  status: ('A' for Active; 'I' for Inactive)
REMARK    1  A    between atoms: C_1  and  C_2
REMARK    2  A    between atoms: C_4  and  C_35
REMARK    3  A    between atoms: C_5  and  N_9
REMARK    4  A    between atoms: C_6  and  C_8
REMARK    5  A    between atoms: C_10  and  O_34
REMARK    6  A    between atoms: C_13  and  O_33
REMARK    7  A    between atoms: C_14  and  C_18
REMARK                            x       y       z     vdW  Elec       q    Type
REMARK                         _______ _______ _______ _____ _____    ______ ____
ROOT
ATOM      1  N   UNL     1      -0.127  -4.293  -0.019  0.00  0.00    -0.225 N 
ATOM      2  C   UNL     1      -1.325  -5.119   0.032  0.00  0.00    +0.338 C 
ATOM      3  N   UNL     1      -1.044  -6.462   0.512  0.00  0.00    -0.204 NA
ATOM      4  C   UNL     1       0.114  -7.000   0.500  0.00  0.00    +0.200 C 
ATOM      5  C   UNL     1       1.335  -6.297  -0.014  0.00  0.00    +0.179 C 
ATOM      6  C   UNL     1       1.107  -4.812  -0.055  0.00  0.00    +0.237 C 
ATOM      7  O   UNL     1       2.062  -4.067  -0.118  0.00  0.00    -0.274 OA
ENDROOT
BRANCH   5   8
ATOM      8  C   UNL     1       1.647  -6.791  -1.428  0.00  0.00    +0.101 C 
ATOM      9  C   UNL     1       2.953  -6.163  -1.918  0.00  0.00    +0.124 C 
ATOM     10  C   UNL     1       3.099  -6.568  -3.381  0.00  0.00    -0.036 C 
ATOM     11  C   UNL     1       4.291  -7.135  -3.496  0.00  0.00    -0.001 A 
ATOM     12  C   UNL     1       5.027  -7.645  -4.664  0.00  0.00    +0.010 A 
ATOM     13  C   UNL     1       6.248  -8.188  -4.414  0.00  0.00    +0.001 A 
ATOM     14  C   UNL     1       6.804  -8.274  -3.134  0.00  0.00    +0.002 A 
ATOM     15  C   UNL     1       6.201  -7.825  -2.004  0.00  0.00    +0.026 A 
ATOM     16  C   UNL     1       4.914  -7.228  -2.139  0.00  0.00    +0.043 A 
ATOM     17  N   UNL     1       4.127  -6.692  -1.226  0.00  0.00    -0.376 N 
ATOM     18  C   UNL     1       1.972  -6.386  -4.369  0.00  0.00    +0.048 C 
ATOM     19  C   UNL     1       0.710  -6.951  -3.690  0.00  0.00    +0.085 C 
ATOM     20  N   UNL     1       0.567  -6.389  -2.343  0.00  0.00    -0.310 NA
ATOM     21  H   UNL     1      -0.338  -6.609  -1.954  0.00  0.00    +0.122 HD
ATOM     22  H   UNL     1       4.287  -6.657  -0.270  0.00  0.00    +0.160 HD
ENDBRANCH   5   8
BRANCH   1  27
ATOM     23  C   UNL     1      -0.713   1.350  -0.089  0.00  0.00    +0.044 C 
ATOM     24  C   UNL     1      -0.557  -0.149  -0.070  0.00  0.00    -0.050 A 
ATOM     25  C   UNL     1      -0.529  -0.855  -1.259  0.00  0.00    +0.008 A 
ATOM     26  C   UNL     1      -0.386  -2.228  -1.246  0.00  0.00    -0.028 A 
ATOM     27  C   UNL     1      -0.271  -2.901  -0.036  0.00  0.00    +0.046 A 
ATOM     28  C   UNL     1      -0.300  -2.190   1.156  0.00  0.00    -0.028 A 
ATOM     29  C   UNL     1      -0.437  -0.816   1.135  0.00  0.00    +0.008 A 
ATOM     30  C   UNL     1      -0.175  -2.916   2.471  0.00  0.00    +0.046 C 
ATOM     31  C   UNL     1      -0.356  -2.997  -2.542  0.00  0.00    +0.046 C 
ENDBRANCH   1  27
BRANCH   4  32
ATOM     32  O   UNL     1       0.244  -8.258   0.971  0.00  0.00    -0.495 OA
ATOM     33  H   UNL     1      -0.583  -8.648   1.286  0.00  0.00    +0.293 HD
ENDBRANCH   4  32
BRANCH   2  34
ATOM     34  O   UNL     1      -1.886  -5.204  -1.280  0.00  0.00    -0.356 OA
ATOM     35  H   UNL     1      -2.689  -5.739  -1.329  0.00  0.00    +0.214 HD
ENDBRANCH   2  34
TORSDOF 4
