REMARK  Name = ZINC46842508
REMARK  12 active torsions:
REMARK  status: ('A' for Active; 'I' for Inactive)
REMARK    1  A    between atoms: C_1  and  C_2
REMARK    2  A    between atoms: C_2  and  C_4
REMARK    3  A    between atoms: C_7  and  S_10
REMARK    4  A    between atoms: S_10  and  N_13
REMARK    5  A    between atoms: N_13  and  C_14
REMARK    6  A    between atoms: N_13  and  C_15
REMARK    7  A    between atoms: C_15  and  C_16
REMARK    8  A    between atoms: N_18  and  C_19
REMARK    9  A    between atoms: C_25  and  C_27
REMARK   10  A    between atoms: C_27  and  C_28
REMARK   11  A    between atoms: C_27  and  C_29
REMARK   12  A    between atoms: C_27  and  C_30
REMARK                            x       y       z     vdW  Elec       q    Type
REMARK                         _______ _______ _______ _____ _____    ______ ____
ROOT
ATOM      1  C   UNL     1       0.677  -0.356  -4.046  0.00  0.00    +0.229 C 
ATOM      2  O   UNL     1       0.630  -0.187  -2.846  0.00  0.00    -0.274 OA
ATOM      3  N   UNL     1       1.685   0.179  -4.763  0.00  0.00    -0.311 N 
ATOM      4  H   UNL     1       1.723   0.044  -5.723  0.00  0.00    +0.149 HD
ENDROOT
BRANCH   3   5
ATOM      5  C   UNL     1       2.725   0.964  -4.092  0.00  0.00    +0.076 C 
ATOM      6  C   UNL     1       2.254   2.413  -3.945  0.00  0.00    +0.041 C 
ATOM      7  C   UNL     1       3.329   3.222  -3.212  0.00  0.00    +0.109 C 
ATOM      8  N   UNL     1       4.604   3.072  -3.927  0.00  0.00    -0.301 N 
ATOM      9  C   UNL     1       5.104   1.718  -4.202  0.00  0.00    +0.109 C 
ATOM     10  C   UNL     1       4.009   0.925  -4.923  0.00  0.00    +0.041 C 
ATOM     11  C   UNL     1       5.301   4.155  -4.323  0.00  0.00    +0.221 C 
ATOM     12  O   UNL     1       6.395   4.020  -4.830  0.00  0.00    -0.275 OA
BRANCH  11  13
ATOM     13  C   UNL     1       4.722   5.534  -4.136  0.00  0.00    +0.039 C 
ATOM     14  C   UNL     1       5.688   6.574  -4.707  0.00  0.00    +0.020 C 
ATOM     15  C   UNL     1       3.381   5.627  -4.867  0.00  0.00    +0.020 C 
ATOM     16  C   UNL     1       4.510   5.800  -2.644  0.00  0.00    +0.020 C 
ENDBRANCH  11  13
ENDBRANCH   3   5
BRANCH   1  17
ATOM     17  C   UNL     1      -0.392  -1.163  -4.737  0.00  0.00    +0.204 C 
BRANCH  17  18
ATOM     18  N   UNL     1      -1.366  -1.630  -3.747  0.00  0.00    -0.171 NA
ATOM     19  C   UNL     1      -1.115  -2.864  -2.998  0.00  0.00    +0.132 C 
BRANCH  18  20
ATOM     20  S   UNL     1      -2.751  -0.764  -3.476  0.00  0.00    +0.061 S 
ATOM     21  O   UNL     1      -3.704  -1.676  -2.947  0.00  0.00    -0.153 OA
ATOM     22  O   UNL     1      -2.994  -0.006  -4.653  0.00  0.00    -0.153 OA
BRANCH  20  26
ATOM     23  C   UNL     1      -1.844   2.215  -0.183  0.00  0.00    +0.017 A 
ATOM     24  C   UNL     1      -1.640   2.564  -1.522  0.00  0.00    +0.013 A 
ATOM     25  C   UNL     1      -1.918   1.652  -2.518  0.00  0.00    +0.029 A 
ATOM     26  C   UNL     1      -2.398   0.394  -2.196  0.00  0.00    +0.106 A 
ATOM     27  C   UNL     1      -2.603   0.042  -0.873  0.00  0.00    +0.029 A 
ATOM     28  C   UNL     1      -2.324   0.941   0.135  0.00  0.00    +0.013 A 
BRANCH  23  30
ATOM     29  C   UNL     1      -1.031   4.555   0.539  0.00  0.00    +0.091 C 
ATOM     30  C   UNL     1      -1.549   3.183   0.886  0.00  0.00    +0.160 C 
ATOM     31  O   UNL     1      -1.722   2.875   2.046  0.00  0.00    -0.292 OA
ENDBRANCH  23  30
ENDBRANCH  20  26
ENDBRANCH  18  20
ENDBRANCH  17  18
ENDBRANCH   1  17
TORSDOF 7
