REMARK  Name = ZINC06811310
REMARK  7 active torsions:
REMARK  status: ('A' for Active; 'I' for Inactive)
REMARK    1  A    between atoms: C_1  and  C_2
REMARK    2  A    between atoms: C_2  and  O_3
REMARK    3  A    between atoms: O_3  and  C_4
REMARK    4  A    between atoms: C_7  and  N_10
REMARK    5  A    between atoms: C_11  and  C_13
REMARK    6  A    between atoms: C_19  and  C_25
REMARK    7  A    between atoms: C_21  and  C_24
REMARK                            x       y       z     vdW  Elec       q    Type
REMARK                         _______ _______ _______ _____ _____    ______ ____
ROOT
ATOM      1  N   UNL     1       2.393  -2.780  -0.036  0.00  0.00    -0.279 N 
ATOM      2  C   UNL     1       1.217  -2.121  -0.019  0.00  0.00    +0.284 C 
ATOM      3  O   UNL     1       0.172  -2.742  -0.003  0.00  0.00    -0.266 OA
ATOM      4  H   UNL     1       3.224  -2.287  -0.116  0.00  0.00    +0.155 HD
ENDROOT
BRANCH   2   5
ATOM      5  C   UNL     1       1.199  -0.640  -0.019  0.00  0.00    +0.194 A 
ATOM      6  C   UNL     1       0.002  -0.004  -0.002  0.00  0.00    +0.103 A 
ATOM      7  C   UNL     1      -0.018   1.466  -0.003  0.00  0.00    +0.193 A 
ATOM      8  O   UNL     1      -1.064   2.091   0.007  0.00  0.00    -0.287 OA
ATOM      9  C   UNL     1       1.290   2.150  -0.022  0.00  0.00    +0.064 A 
ATOM     10  C   UNL     1       1.381   3.541  -0.024  0.00  0.00    +0.018 A 
ATOM     11  C   UNL     1       2.611   4.139  -0.042  0.00  0.00    -0.049 A 
ATOM     12  C   UNL     1       3.766   3.369  -0.059  0.00  0.00    +0.010 A 
ATOM     13  C   UNL     1       3.695   1.993  -0.058  0.00  0.00    -0.007 A 
ATOM     14  C   UNL     1       2.455   1.363  -0.039  0.00  0.00    +0.142 A 
ATOM     15  O   UNL     1       2.366   0.019  -0.037  0.00  0.00    -0.450 OA
ATOM     16  C   UNL     1       4.959   1.172  -0.077  0.00  0.00    +0.047 C 
ATOM     17  C   UNL     1       2.713   5.643  -0.044  0.00  0.00    +0.044 C 
ENDBRANCH   2   5
BRANCH   1  21
ATOM     18  C   UNL     1       2.455  -6.938   0.255  0.00  0.00    +0.121 A 
ATOM     19  C   UNL     1       1.425  -6.306  -0.427  0.00  0.00    +0.047 A 
ATOM     20  C   UNL     1       1.404  -4.929  -0.524  0.00  0.00    +0.027 A 
ATOM     21  C   UNL     1       2.413  -4.176   0.062  0.00  0.00    +0.034 A 
ATOM     22  C   UNL     1       3.446  -4.810   0.741  0.00  0.00    +0.027 A 
ATOM     23  C   UNL     1       3.464  -6.187   0.841  0.00  0.00    +0.047 A 
BRANCH  18  24
ATOM     24  O   UNL     1       2.476  -8.294   0.349  0.00  0.00    -0.492 OA
BRANCH  24  26
ATOM     25  C   UNL     1       3.418 -10.401   1.066  0.00  0.00    +0.048 C 
ATOM     26  C   UNL     1       3.565  -8.878   1.066  0.00  0.00    +0.225 C 
ENDBRANCH  24  26
ENDBRANCH  18  24
ENDBRANCH   1  21
TORSDOF 4
