REMARK  Name = ZINC59825673
REMARK  7 active torsions:
REMARK  status: ('A' for Active; 'I' for Inactive)
REMARK    1  A    between atoms: C_1  and  C_2
REMARK    2  A    between atoms: C_6  and  N_26
REMARK    3  A    between atoms: C_7  and  S_8
REMARK    4  A    between atoms: S_8  and  N_11
REMARK    5  A    between atoms: N_11  and  C_12
REMARK    6  A    between atoms: N_15  and  C_18
REMARK    7  A    between atoms: C_18  and  C_19
REMARK                            x       y       z     vdW  Elec       q    Type
REMARK                         _______ _______ _______ _____ _____    ______ ____
ROOT
ATOM      1  N   UNL     1       0.181   1.271   2.929  0.00  0.00    -0.187 NA
ATOM      2  H   UNL     1      -0.318   2.100   2.996  0.00  0.00    +0.148 HD
ENDROOT
BRANCH   1   3
ATOM      3  C   UNL     1       0.037   0.244   3.963  0.00  0.00    +0.073 C 
ATOM      4  C   UNL     1      -1.183  -0.627   3.654  0.00  0.00    +0.002 C 
ATOM      5  C   UNL     1      -1.374  -1.647   4.779  0.00  0.00    -0.077 C 
ATOM      6  N   UNL     1      -1.583  -0.944   6.050  0.00  0.00    +0.382 N 
ATOM      7  C   UNL     1      -0.388  -0.163   6.390  0.00  0.00    -0.077 C 
ATOM      8  C   UNL     1      -0.159   0.914   5.327  0.00  0.00    +0.002 C 
ATOM      9  H   UNL     1      -2.376  -0.325   5.965  0.00  0.00    -0.081 HD
BRANCH   6  10
ATOM     10  C   UNL     1      -1.843  -1.925   7.113  0.00  0.00    -0.043 C 
BRANCH  10  11
ATOM     11  C   UNL     1      -2.179  -1.202   8.392  0.00  0.00    -0.064 A 
ATOM     12  C   UNL     1      -1.172  -0.852   9.272  0.00  0.00    +0.003 A 
ATOM     13  C   UNL     1      -1.479  -0.190  10.446  0.00  0.00    +0.020 A 
ATOM     14  C   UNL     1      -2.795   0.123  10.739  0.00  0.00    +0.041 A 
ATOM     15  C   UNL     1      -3.802  -0.227   9.857  0.00  0.00    +0.020 A 
ATOM     16  C   UNL     1      -3.493  -0.885   8.682  0.00  0.00    +0.003 A 
ATOM     17 CL   UNL     1      -3.181   0.955  12.213  0.00  0.00    -0.084 Cl
ENDBRANCH  10  11
ENDBRANCH   6  10
ENDBRANCH   1   3
BRANCH   1  18
ATOM     18  S   UNL     1       1.196   1.017   1.645  0.00  0.00    +0.061 S 
ATOM     19  O   UNL     1       2.432   0.572   2.186  0.00  0.00    -0.153 OA
ATOM     20  O   UNL     1       1.097   2.167   0.816  0.00  0.00    -0.153 OA
BRANCH  18  27
ATOM     21  C   UNL     1       2.449  -1.732   1.519  0.00  0.00    +0.046 C 
ATOM     22  C   UNL     1       1.182  -1.552   0.723  0.00  0.00    -0.022 A 
ATOM     23  C   UNL     1       0.663  -2.610   0.002  0.00  0.00    +0.005 A 
ATOM     24  C   UNL     1      -0.499  -2.445  -0.728  0.00  0.00    +0.003 A 
ATOM     25  C   UNL     1      -1.142  -1.221  -0.736  0.00  0.00    +0.035 A 
ATOM     26  C   UNL     1      -0.623  -0.163  -0.014  0.00  0.00    +0.153 A 
ATOM     27  C   UNL     1       0.537  -0.330   0.720  0.00  0.00    +0.138 A 
BRANCH  26  28
ATOM     28  N   UNL     1      -1.311   1.148  -0.023  0.00  0.00    +0.058 N 
ATOM     29  O   UNL     1      -1.815   1.559  -1.042  0.00  0.00    -0.126 OA
ATOM     30  O   UNL     1      -1.369   1.807   0.989  0.00  0.00    -0.126 OA
ENDBRANCH  26  28
ENDBRANCH  18  27
ENDBRANCH   1  18
TORSDOF 6
