REMARK  Name = ZINC61951194
REMARK  5 active torsions:
REMARK  status: ('A' for Active; 'I' for Inactive)
REMARK    1  A    between atoms: C_1  and  N_2
REMARK    2  A    between atoms: N_2  and  C_3
REMARK    3  A    between atoms: N_2  and  C_12
REMARK    4  A    between atoms: C_3  and  C_4
REMARK    5  A    between atoms: C_16  and  C_18
REMARK                            x       y       z     vdW  Elec       q    Type
REMARK                         _______ _______ _______ _____ _____    ______ ____
ROOT
ATOM      1  C   UNL     1       0.162  -0.412  -1.269  0.00  0.00    +0.030 A 
ATOM      2  C   UNL     1       0.125  -1.781  -1.508  0.00  0.00    +0.023 A 
ATOM      3  C   UNL     1       0.232  -2.266  -2.798  0.00  0.00    +0.002 A 
ATOM      4  C   UNL     1       0.376  -1.393  -3.858  0.00  0.00    +0.011 A 
ATOM      5  C   UNL     1       0.413  -0.017  -3.629  0.00  0.00    +0.014 A 
ATOM      6  C   UNL     1       0.301   0.472  -2.328  0.00  0.00    +0.034 A 
ENDROOT
BRANCH   5   7
ATOM      7  C   UNL     1       0.568   0.920  -4.764  0.00  0.00    +0.094 C 
ATOM      8  N   UNL     1       1.240   0.545  -5.850  0.00  0.00    -0.387 N 
ATOM      9  N   UNL     1       0.035   2.138  -4.698  0.00  0.00    -0.345 N 
ATOM     10  H   UNL     1       1.341   1.159  -6.594  0.00  0.00    +0.157 HD
ATOM     11  H   UNL     1      -0.454   2.412  -3.907  0.00  0.00    +0.144 HD
ATOM     12  H   UNL     1       0.136   2.752  -5.442  0.00  0.00    +0.144 HD
ATOM     13  H   UNL     1       1.628  -0.343  -5.898  0.00  0.00    +0.157 HD
ENDBRANCH   5   7
BRANCH   1  15
ATOM     14  C   UNL     1      -0.036   1.515   0.277  0.00  0.00    +0.129 C 
ATOM     15  N   UNL     1       0.054   0.073   0.036  0.00  0.00    -0.329 N 
BRANCH  15  16
ATOM     16  C   UNL     1       0.030  -0.861   1.165  0.00  0.00    +0.141 C 
BRANCH  16  17
ATOM     17  C   UNL     1       1.443  -1.206   1.562  0.00  0.00    -0.016 A 
ATOM     18  C   UNL     1       2.021  -2.377   1.108  0.00  0.00    +0.009 A 
ATOM     19  C   UNL     1       3.316  -2.694   1.471  0.00  0.00    +0.039 A 
ATOM     20  C   UNL     1       4.036  -1.838   2.288  0.00  0.00    +0.124 A 
ATOM     21  C   UNL     1       3.456  -0.666   2.742  0.00  0.00    +0.054 A 
ATOM     22  C   UNL     1       2.162  -0.348   2.374  0.00  0.00    +0.025 A 
ATOM     23 BR   UNL     1       1.371   1.257   2.987  0.00  0.00    -0.050 Br
ATOM     24  F   UNL     1       5.302  -2.148   2.643  0.00  0.00    -0.205 F 
ENDBRANCH  16  17
ENDBRANCH  15  16
ENDBRANCH   1  15
TORSDOF 4
