REMARK  Name = ZINC20756601
REMARK  8 active torsions:
REMARK  status: ('A' for Active; 'I' for Inactive)
REMARK    1  A    between atoms: C_1  and  C_2
REMARK    2  A    between atoms: C_2  and  O_3
REMARK    3  A    between atoms: O_3  and  C_4
REMARK    4  A    between atoms: C_7  and  N_10
REMARK    5  A    between atoms: C_13  and  C_19
REMARK    6  A    between atoms: C_26  and  O_27
REMARK    7  A    between atoms: O_27  and  C_28
REMARK    8  A    between atoms: N_34  and  C_35
REMARK                            x       y       z     vdW  Elec       q    Type
REMARK                         _______ _______ _______ _____ _____    ______ ____
ROOT
ATOM      1  N   UNL     1       4.227  -0.002  -0.030  0.00  0.00    -0.256 N 
ATOM      2  C   UNL     1       2.888   0.080  -0.159  0.00  0.00    +0.265 A 
ATOM      3  O   UNL     1       2.364  -0.098  -1.245  0.00  0.00    -0.267 OA
ATOM      4  C   UNL     1       2.100   0.376   0.967  0.00  0.00    +0.072 A 
ATOM      5  C   UNL     1       2.711   0.564   2.172  0.00  0.00    +0.258 A 
ATOM      6  N   UNL     1       4.076   0.466   2.260  0.00  0.00    -0.302 N 
ATOM      7  C   UNL     1       4.811   0.187   1.168  0.00  0.00    +0.168 A 
ATOM      8  S   UNL     1       6.513   0.070   1.304  0.00  0.00    -0.012 S 
ATOM      9  O   UNL     1       1.977   0.844   3.270  0.00  0.00    -0.267 OA
ATOM     10  H   UNL     1       4.577   0.616   3.227  0.00  0.00    +0.171 HD
ENDROOT
BRANCH   4  11
ATOM     11  C   UNL     1       0.602   0.479   0.846  0.00  0.00    +0.008 C 
ATOM     12  C   UNL     1       0.038  -0.873   0.493  0.00  0.00    -0.008 A 
ATOM     13  C   UNL     1      -0.960  -1.022  -0.447  0.00  0.00    -0.040 A 
ATOM     14  C   UNL     1      -1.454  -2.285  -0.738  0.00  0.00    +0.053 A 
ATOM     15  C   UNL     1      -0.950  -3.403  -0.094  0.00  0.00    +0.170 A 
ATOM     16  C   UNL     1       0.059  -3.257   0.852  0.00  0.00    +0.208 A 
ATOM     17  C   UNL     1       0.550  -1.992   1.143  0.00  0.00    +0.167 A 
ATOM     18  O   UNL     1       0.383  -4.491   1.340  0.00  0.00    -0.449 OA
ATOM     19  C   UNL     1      -0.718  -5.347   0.981  0.00  0.00    +0.467 C 
ATOM     20  O   UNL     1      -1.260  -4.728  -0.201  0.00  0.00    -0.452 OA
ATOM     21  C   UNL     1      -1.537   0.160  -1.182  0.00  0.00    +0.017 C 
ATOM     22  C   UNL     1      -1.182   1.454  -0.449  0.00  0.00    -0.073 C 
ATOM     23  N   UNL     1       0.267   1.462  -0.190  0.00  0.00    +0.386 N 
ATOM     24  C   UNL     1       0.727   2.804   0.189  0.00  0.00    -0.095 C 
ATOM     25  H   UNL     1       0.790   1.179  -1.115  0.00  0.00    -0.081 HD
BRANCH  17  26
ATOM     26  O   UNL     1       1.536  -1.845   2.068  0.00  0.00    -0.491 OA
ATOM     27  C   UNL     1       1.130  -1.644   3.423  0.00  0.00    +0.277 C 
ENDBRANCH  17  26
ENDBRANCH   4  11
BRANCH   1  31
ATOM     28  C   UNL     1       6.579  -0.863  -3.366  0.00  0.00    +0.121 A 
ATOM     29  C   UNL     1       6.088  -1.894  -2.579  0.00  0.00    +0.047 A 
ATOM     30  C   UNL     1       5.310  -1.610  -1.474  0.00  0.00    +0.030 A 
ATOM     31  C   UNL     1       5.018  -0.291  -1.151  0.00  0.00    +0.052 A 
ATOM     32  C   UNL     1       5.505   0.741  -1.943  0.00  0.00    +0.030 A 
ATOM     33  C   UNL     1       6.288   0.455  -3.044  0.00  0.00    +0.047 A 
BRANCH  28  34
ATOM     34  O   UNL     1       7.345  -1.143  -4.453  0.00  0.00    -0.492 OA
BRANCH  34  36
ATOM     35  C   UNL     1       8.655  -0.542  -6.393  0.00  0.00    +0.048 C 
ATOM     36  C   UNL     1       7.817  -0.033  -5.219  0.00  0.00    +0.225 C 
ENDBRANCH  34  36
ENDBRANCH  28  34
ENDBRANCH   1  31
TORSDOF 5
