REMARK  Name = ZINC36092869
REMARK  8 active torsions:
REMARK  status: ('A' for Active; 'I' for Inactive)
REMARK    1  A    between atoms: C_1  and  C_2
REMARK    2  A    between atoms: C_7  and  N_12
REMARK    3  A    between atoms: C_9  and  C_11
REMARK    4  A    between atoms: C_13  and  C_15
REMARK    5  A    between atoms: C_15  and  C_16
REMARK    6  A    between atoms: C_16  and  N_17
REMARK    7  A    between atoms: C_24  and  O_30
REMARK    8  A    between atoms: O_30  and  C_31
REMARK                            x       y       z     vdW  Elec       q    Type
REMARK                         _______ _______ _______ _____ _____    ______ ____
ROOT
ATOM      1  N   UNL     1       2.161  -6.150   5.656  0.00  0.00    -0.286 N 
ATOM      2  C   UNL     1       3.323  -6.817   5.508  0.00  0.00    +0.279 A 
ATOM      3  O   UNL     1       3.780  -7.015   4.397  0.00  0.00    -0.265 OA
ATOM      4  C   UNL     1       4.008  -7.287   6.658  0.00  0.00    +0.129 A 
ATOM      5  C   UNL     1       3.456  -7.042   7.902  0.00  0.00    +0.079 A 
ATOM      6  C   UNL     1       4.361  -7.629   8.890  0.00  0.00    +0.027 A 
ATOM      7  C   UNL     1       4.346  -7.705  10.286  0.00  0.00    +0.057 A 
ATOM      8  C   UNL     1       5.375  -8.344  10.947  0.00  0.00    +0.121 A 
ATOM      9  C   UNL     1       6.425  -8.911  10.229  0.00  0.00    +0.047 A 
ATOM     10  C   UNL     1       6.452  -8.843   8.855  0.00  0.00    +0.030 A 
ATOM     11  C   UNL     1       5.423  -8.203   8.168  0.00  0.00    +0.049 A 
ATOM     12  N   UNL     1       5.192  -7.986   6.826  0.00  0.00    -0.349 N 
ATOM     13  H   UNL     1       5.772  -8.280   6.106  0.00  0.00    +0.166 HD
ATOM     14  N   UNL     1       2.261  -6.352   7.992  0.00  0.00    -0.333 N 
ATOM     15  C   UNL     1       1.645  -5.918   6.875  0.00  0.00    +0.161 A 
ATOM     16  S   UNL     1       0.170  -5.059   7.012  0.00  0.00    -0.013 S 
ATOM     17  H   UNL     1       1.867  -6.176   8.861  0.00  0.00    +0.168 HD
ENDROOT
BRANCH   8  18
ATOM     18  O   UNL     1       5.364  -8.420  12.305  0.00  0.00    -0.495 OA
ATOM     19  C   UNL     1       6.459  -9.095  12.926  0.00  0.00    +0.277 C 
ENDBRANCH   8  18
BRANCH   1  20
ATOM     20  C   UNL     1       1.453  -5.665   4.469  0.00  0.00    +0.136 C 
BRANCH  20  21
ATOM     21  C   UNL     1       1.936  -4.254   4.128  0.00  0.00    +0.117 C 
BRANCH  21  23
ATOM     22  N   UNL     1       1.471  -2.526   2.420  0.00  0.00    -0.312 N 
ATOM     23  C   UNL     1       1.207  -3.754   2.907  0.00  0.00    +0.215 C 
ATOM     24  O   UNL     1       0.382  -4.458   2.364  0.00  0.00    -0.276 OA
ATOM     25  H   UNL     1       2.131  -1.963   2.855  0.00  0.00    +0.149 HD
BRANCH  22  31
ATOM     26  C   UNL     1      -0.019   1.526   0.010  0.00  0.00    +0.008 C 
ATOM     27  C   UNL     1       0.002  -0.004   0.002  0.00  0.00    -0.009 C 
ATOM     28  C   UNL     1       0.718  -0.497  -1.257  0.00  0.00    +0.003 C 
ATOM     29  C   UNL     1       0.739  -2.027  -1.265  0.00  0.00    +0.002 C 
ATOM     30  C   UNL     1       1.479  -2.534  -0.026  0.00  0.00    +0.022 C 
ATOM     31  C   UNL     1       0.763  -2.041   1.233  0.00  0.00    +0.076 C 
ATOM     32  C   UNL     1       0.742  -0.511   1.242  0.00  0.00    +0.009 C 
ATOM     33  C   UNL     1       0.026  -0.018   2.500  0.00  0.00    +0.009 C 
ENDBRANCH  22  31
ENDBRANCH  21  23
ENDBRANCH  20  21
ENDBRANCH   1  20
TORSDOF 5
