REMARK  Name = ZINC48554274
REMARK  5 active torsions:
REMARK  status: ('A' for Active; 'I' for Inactive)
REMARK    1  A    between atoms: C_1  and  C_2
REMARK    2  A    between atoms: C_5  and  S_8
REMARK    3  A    between atoms: N_6  and  N_7
REMARK    4  A    between atoms: S_8  and  C_9
REMARK    5  A    between atoms: C_12  and  N_16
REMARK                            x       y       z     vdW  Elec       q    Type
REMARK                         _______ _______ _______ _____ _____    ______ ____
ROOT
ATOM      1  S   UNL     1       0.059  -3.580   1.560  0.00  0.00    -0.048 S 
ENDROOT
BRANCH   1   2
ATOM      2  C   UNL     1       0.076  -4.957   0.461  0.00  0.00    +0.017 A 
ATOM      3  C   UNL     1       0.154  -4.753  -0.911  0.00  0.00    +0.017 A 
ATOM      4  C   UNL     1       0.167  -5.834  -1.769  0.00  0.00    +0.035 A 
ATOM      5  C   UNL     1       0.103  -7.121  -1.265  0.00  0.00    +0.139 A 
ATOM      6  C   UNL     1       0.025  -7.328   0.101  0.00  0.00    +0.045 A 
ATOM      7  C   UNL     1       0.018  -6.251   0.966  0.00  0.00    +0.031 A 
ATOM      8  I   UNL     1      -0.072  -9.279   0.859  0.00  0.00    -0.041 I 
BRANCH   5   9
ATOM      9  N   UNL     1       0.117  -8.278  -2.188  0.00  0.00    +0.057 N 
ATOM     10  O   UNL     1       0.184  -8.098  -3.382  0.00  0.00    -0.126 OA
ATOM     11  O   UNL     1       0.061  -9.403  -1.748  0.00  0.00    -0.126 OA
ENDBRANCH   5   9
ENDBRANCH   1   2
BRANCH   1  16
ATOM     12  C   UNL     1      -4.580  -1.730   3.374  0.00  0.00    +0.090 C 
ATOM     13  C   UNL     1      -3.542  -2.516   2.616  0.00  0.00    +0.148 A 
ATOM     14  N   UNL     1      -3.771  -3.447   1.734  0.00  0.00    -0.132 NA
ATOM     15  N   UNL     1      -2.660  -3.909   1.281  0.00  0.00    -0.121 NA
ATOM     16  C   UNL     1      -1.654  -3.291   1.855  0.00  0.00    +0.213 A 
ATOM     17  N   UNL     1      -2.186  -2.379   2.721  0.00  0.00    -0.228 N 
BRANCH  17  18
ATOM     18  N   UNL     1      -1.504  -1.512   3.527  0.00  0.00    -0.295 N 
ATOM     19  H   UNL     1      -1.312  -1.928   4.426  0.00  0.00    +0.163 HD
ATOM     20  H   UNL     1      -0.653  -1.199   3.084  0.00  0.00    +0.163 HD
ENDBRANCH  17  18
ENDBRANCH   1  16
TORSDOF 4
