REMARK  Name = ZINC53110301
REMARK  6 active torsions:
REMARK  status: ('A' for Active; 'I' for Inactive)
REMARK    1  A    between atoms: C_1  and  C_2
REMARK    2  A    between atoms: C_7  and  C_9
REMARK    3  A    between atoms: C_7  and  N_11
REMARK    4  A    between atoms: C_9  and  O_10
REMARK    5  A    between atoms: N_11  and  C_12
REMARK    6  A    between atoms: C_15  and  N_19
REMARK                            x       y       z     vdW  Elec       q    Type
REMARK                         _______ _______ _______ _____ _____    ______ ____
ROOT
ATOM      1  N   UNL     1       2.014   1.502   0.955  0.00  0.00    -0.335 N 
ATOM      2  H   UNL     1       2.217   1.981   0.136  0.00  0.00    +0.147 HD
ENDROOT
BRANCH   1   8
ATOM      3  C   UNL     1      -0.179   1.040  -0.152  0.00  0.00    +0.007 C 
ATOM      4  C   UNL     1       0.128  -0.455  -0.044  0.00  0.00    -0.012 C 
ATOM      5  C   UNL     1       0.873  -0.915  -1.298  0.00  0.00    +0.003 C 
ATOM      6  C   UNL     1       2.182  -0.135  -1.429  0.00  0.00    +0.002 C 
ATOM      7  C   UNL     1       3.053  -0.389  -0.196  0.00  0.00    +0.028 C 
ATOM      8  C   UNL     1       2.307   0.071   1.058  0.00  0.00    +0.055 C 
ATOM      9  C   UNL     1       0.998  -0.710   1.188  0.00  0.00    +0.031 C 
BRANCH   8  10
ATOM     10  C   UNL     1       3.178  -0.184   2.290  0.00  0.00    +0.181 C 
BRANCH  10  11
ATOM     11  O   UNL     1       4.365   0.607   2.206  0.00  0.00    -0.393 OA
ATOM     12  H   UNL     1       4.966   0.495   2.956  0.00  0.00    +0.209 HD
ENDBRANCH  10  11
ENDBRANCH   8  10
ENDBRANCH   1   8
BRANCH   1  13
ATOM     13  C   UNL     1       1.442   2.178   2.035  0.00  0.00    +0.042 A 
ATOM     14  C   UNL     1       1.035   1.473   3.161  0.00  0.00    +0.026 A 
ATOM     15  C   UNL     1       0.470   2.144   4.228  0.00  0.00    +0.034 A 
ATOM     16  C   UNL     1       0.309   3.517   4.176  0.00  0.00    +0.127 A 
ATOM     17  C   UNL     1       0.712   4.222   3.058  0.00  0.00    +0.049 A 
ATOM     18  C   UNL     1       1.283   3.558   1.989  0.00  0.00    +0.041 A 
ATOM     19 BR   UNL     1       1.841   4.524   0.462  0.00  0.00    -0.048 Br
BRANCH  16  20
ATOM     20  N   UNL     1      -0.298   4.232   5.321  0.00  0.00    +0.056 N 
ATOM     21  O   UNL     1      -0.651   3.617   6.300  0.00  0.00    -0.126 OA
ATOM     22  O   UNL     1      -0.440   5.432   5.278  0.00  0.00    -0.126 OA
ENDBRANCH  16  20
ENDBRANCH   1  13
TORSDOF 5
