REMARK  Name = ZINC39672069
REMARK  5 active torsions:
REMARK  status: ('A' for Active; 'I' for Inactive)
REMARK    1  A    between atoms: C_5  and  C_7
REMARK    2  A    between atoms: C_10  and  C_12
REMARK    3  A    between atoms: C_16  and  C_25
REMARK    4  A    between atoms: N_27  and  C_28
REMARK    5  A    between atoms: C_28  and  C_29
REMARK                            x       y       z     vdW  Elec       q    Type
REMARK                         _______ _______ _______ _____ _____    ______ ____
ROOT
ATOM      1  C   UNL     1       2.205  -5.077  -1.305  0.00  0.00    +0.282 C 
ATOM      2  O   UNL     1       1.845  -6.171  -0.909  0.00  0.00    -0.267 OA
ATOM      3  N   UNL     1       3.094  -4.985  -2.314  0.00  0.00    -0.294 N 
ATOM      4  C   UNL     1       3.653  -3.755  -2.922  0.00  0.00    +0.121 C 
ATOM      5  C   UNL     1       5.138  -4.089  -3.184  0.00  0.00    +0.100 C 
ATOM      6  C   UNL     1       5.185  -5.623  -3.279  0.00  0.00    -0.004 C 
ATOM      7  C   UNL     1       3.739  -6.091  -3.061  0.00  0.00    +0.115 C 
ATOM      8  C   UNL     1       6.088  -6.192  -2.188  0.00  0.00    -0.010 C 
ATOM      9  C   UNL     1       6.163  -7.714  -2.338  0.00  0.00    -0.082 C 
ATOM     10  N   UNL     1       6.693  -8.051  -3.665  0.00  0.00    +0.379 N 
ATOM     11  C   UNL     1       5.771  -7.581  -4.706  0.00  0.00    -0.082 C 
ATOM     12  C   UNL     1       5.679  -6.053  -4.656  0.00  0.00    -0.010 C 
ATOM     13  H   UNL     1       7.592  -7.610  -3.789  0.00  0.00    -0.086 HD
ATOM     14  H   UNL     1       6.799  -9.052  -3.739  0.00  0.00    -0.086 HD
ENDROOT
BRANCH   1  18
ATOM     15  C   UNL     1       1.308  -1.740  -0.243  0.00  0.00    +0.139 A 
ATOM     16  C   UNL     1       0.536  -2.461   0.624  0.00  0.00    +0.051 A 
ATOM     17  C   UNL     1       0.763  -3.813   0.349  0.00  0.00    +0.055 A 
ATOM     18  C   UNL     1       1.673  -3.862  -0.684  0.00  0.00    +0.190 A 
ATOM     19  O   UNL     1       1.984  -2.595  -1.029  0.00  0.00    -0.450 OA
BRANCH  15  24
ATOM     20  C   UNL     1       0.286   1.867  -0.426  0.00  0.00    +0.001 A 
ATOM     21  C   UNL     1       1.519   2.498  -0.433  0.00  0.00    +0.003 A 
ATOM     22  C   UNL     1       2.684   1.754  -0.378  0.00  0.00    +0.039 A 
ATOM     23  C   UNL     1       2.624   0.374  -0.316  0.00  0.00    +0.134 A 
ATOM     24  C   UNL     1       1.381  -0.267  -0.309  0.00  0.00    +0.052 A 
ATOM     25  C   UNL     1       0.210   0.492  -0.364  0.00  0.00    +0.014 A 
ATOM     26  F   UNL     1       3.762  -0.351  -0.262  0.00  0.00    -0.205 F 
ENDBRANCH  15  24
ENDBRANCH   1  18
BRANCH   5  27
ATOM     27  C   UNL     1       5.994  -3.604  -2.042  0.00  0.00    +0.219 C 
ATOM     28  O   UNL     1       5.537  -3.556  -0.920  0.00  0.00    -0.275 OA
ATOM     29  N   UNL     1       7.268  -3.225  -2.268  0.00  0.00    -0.309 N 
ATOM     30  H   UNL     1       7.633  -3.264  -3.166  0.00  0.00    +0.149 HD
BRANCH  29  31
ATOM     31  C   UNL     1       8.100  -2.755  -1.158  0.00  0.00    +0.161 C 
BRANCH  31  32
ATOM     32  C   UNL     1       9.469  -2.395  -1.674  0.00  0.00    +0.077 A 
ATOM     33  C   UNL     1       9.877  -1.158  -2.031  0.00  0.00    +0.117 A 
ATOM     34  N   UNL     1      11.179  -1.263  -2.440  0.00  0.00    -0.306 N 
ATOM     35  C   UNL     1      12.079  -0.347  -2.901  0.00  0.00    +0.092 A 
ATOM     36  C   UNL     1      13.329  -0.724  -3.243  0.00  0.00    +0.018 A 
ATOM     37  C   UNL     1      13.720  -2.068  -3.129  0.00  0.00    +0.005 A 
ATOM     38  C   UNL     1      12.833  -2.991  -2.671  0.00  0.00    +0.047 A 
ATOM     39  C   UNL     1      11.531  -2.582  -2.317  0.00  0.00    +0.138 A 
ATOM     40  N   UNL     1      10.484  -3.245  -1.848  0.00  0.00    -0.231 NA
ENDBRANCH  31  32
ENDBRANCH  29  31
ENDBRANCH   5  27
TORSDOF 5
