REMARK  Name = ZINC04177665
REMARK  9 active torsions:
REMARK  status: ('A' for Active; 'I' for Inactive)
REMARK    1  A    between atoms: C_1  and  C_2
REMARK    2  A    between atoms: C_2  and  C_3
REMARK    3  A    between atoms: N_5  and  C_6
REMARK    4  A    between atoms: C_6  and  C_8
REMARK    5  A    between atoms: C_6  and  N_12
REMARK    6  A    between atoms: N_12  and  C_13
REMARK    7  A    between atoms: C_13  and  N_15
REMARK    8  A    between atoms: N_15  and  C_16
REMARK    9  A    between atoms: C_17  and  C_25
REMARK                            x       y       z     vdW  Elec       q    Type
REMARK                         _______ _______ _______ _____ _____    ______ ____
ROOT
ATOM      1  N   UNL     1       0.124   5.086   4.708  0.00  0.00    -0.291 N 
ATOM      2  H   UNL     1       0.940   4.892   5.196  0.00  0.00    +0.154 HD
ENDROOT
BRANCH   1   3
ATOM      3  C   UNL     1      -0.314   6.394   4.583  0.00  0.00    +0.084 A 
ATOM      4  C   UNL     1       0.269   7.551   5.084  0.00  0.00    +0.068 A 
ATOM      5  C   UNL     1      -0.396   8.812   4.804  0.00  0.00    -0.023 A 
ATOM      6  C   UNL     1      -1.534   8.716   4.084  0.00  0.00    -0.004 A 
ATOM      7  S   UNL     1      -1.725   6.984   3.769  0.00  0.00    -0.077 S 
ATOM      8  C   UNL     1      -2.428   9.837   3.653  0.00  0.00    +0.043 C 
ATOM      9  C   UNL     1      -2.064  11.087   4.469  0.00  0.00    +0.005 C 
ATOM     10  C   UNL     1      -0.544  11.264   4.447  0.00  0.00    +0.005 C 
ATOM     11  C   UNL     1       0.121  10.165   5.278  0.00  0.00    +0.037 C 
BRANCH   4  12
ATOM     12  C   UNL     1       1.510   7.501   5.862  0.00  0.00    +0.244 C 
ATOM     13  O   UNL     1       2.585   7.583   5.298  0.00  0.00    -0.270 OA
ATOM     14  N   UNL     1       1.460   7.364   7.202  0.00  0.00    -0.325 N 
ATOM     15  H   UNL     1       0.602   7.299   7.651  0.00  0.00    +0.145 HD
ATOM     16  H   UNL     1       2.281   7.332   7.717  0.00  0.00    +0.145 HD
ENDBRANCH   4  12
ENDBRANCH   1   3
BRANCH   1  17
ATOM     17  C   UNL     1      -0.584   4.082   4.153  0.00  0.00    +0.136 C 
ATOM     18  S   UNL     1      -2.024   4.424   3.292  0.00  0.00    -0.019 S 
BRANCH  17  19
ATOM     19  N   UNL     1      -0.158   2.809   4.275  0.00  0.00    -0.305 N 
ATOM     20  H   UNL     1       0.658   2.615   4.762  0.00  0.00    +0.150 HD
BRANCH  19  21
ATOM     21  C   UNL     1      -0.927   1.718   3.671  0.00  0.00    +0.211 C 
BRANCH  21  24
ATOM     22  C   UNL     1      -0.718   1.572   1.248  0.00  0.00    +0.214 C 
ATOM     23  O   UNL     1      -1.714   2.256   1.150  0.00  0.00    -0.276 OA
ATOM     24  N   UNL     1      -0.242   1.246   2.466  0.00  0.00    -0.294 N 
ATOM     25  H   UNL     1       0.555   0.699   2.544  0.00  0.00    +0.151 HD
BRANCH  22  27
ATOM     26  C   UNL     1      -0.753   1.593  -1.232  0.00  0.00    +0.013 C 
ATOM     27  C   UNL     1      -0.013   1.086   0.008  0.00  0.00    +0.092 C 
ENDBRANCH  22  27
ENDBRANCH  21  24
BRANCH  21  28
ATOM     28  C   UNL     1      -1.052   0.567   4.671  0.00  0.00    +0.225 C 
ATOM     29 CL   UNL     1       0.593  -0.028   5.110  0.00  0.00    -0.080 Cl
ATOM     30 CL   UNL     1      -1.895   1.149   6.155  0.00  0.00    -0.080 Cl
ATOM     31 CL   UNL     1      -1.998  -0.775   3.929  0.00  0.00    -0.080 Cl
ENDBRANCH  21  28
ENDBRANCH  19  21
ENDBRANCH  17  19
ENDBRANCH   1  17
TORSDOF 8
