REMARK  Name = ZINC63139039
REMARK  5 active torsions:
REMARK  status: ('A' for Active; 'I' for Inactive)
REMARK    1  A    between atoms: C_4  and  C_7
REMARK    2  A    between atoms: N_26  and  C_29
REMARK    3  A    between atoms: C_29  and  C_30
REMARK    4  A    between atoms: C_30  and  C_31
REMARK    5  A    between atoms: C_31  and  N_32
REMARK                            x       y       z     vdW  Elec       q    Type
REMARK                         _______ _______ _______ _____ _____    ______ ____
ROOT
ATOM      1  C   UNL     1       3.711  -0.707  -0.038  0.00  0.00    +0.133 C 
ATOM      2  C   UNL     1       3.958  -1.297  -1.429  0.00  0.00    +0.131 C 
ATOM      3  C   UNL     1       2.953  -2.427  -1.611  0.00  0.00    -0.034 C 
ATOM      4  C   UNL     1       2.279  -2.156  -2.722  0.00  0.00    -0.001 A 
ATOM      5  C   UNL     1       1.240  -2.906  -3.446  0.00  0.00    +0.010 A 
ATOM      6  C   UNL     1       0.748  -2.317  -4.568  0.00  0.00    +0.001 A 
ATOM      7  C   UNL     1       1.179  -1.072  -5.036  0.00  0.00    +0.002 A 
ATOM      8  C   UNL     1       2.133  -0.316  -4.437  0.00  0.00    +0.026 A 
ATOM      9  C   UNL     1       2.730  -0.832  -3.250  0.00  0.00    +0.043 A 
ATOM     10  N   UNL     1       3.684  -0.327  -2.491  0.00  0.00    -0.375 N 
ATOM     11  C   UNL     1       2.796  -3.539  -0.602  0.00  0.00    +0.065 C 
ATOM     12  C   UNL     1       2.655  -2.866   0.775  0.00  0.00    +0.167 C 
ATOM     13  N   UNL     1       3.671  -1.829   0.927  0.00  0.00    -0.279 N 
ATOM     14  C   UNL     1       4.582  -1.845   1.907  0.00  0.00    +0.234 C 
ATOM     15  O   UNL     1       5.397  -0.947   1.934  0.00  0.00    -0.274 OA
ATOM     16  C   UNL     1       4.667  -2.889   2.970  0.00  0.00    +0.203 C 
ATOM     17  N   UNL     1       3.632  -3.900   2.831  0.00  0.00    -0.291 N 
ATOM     18  C   UNL     1       2.726  -3.901   1.850  0.00  0.00    +0.237 C 
ATOM     19  O   UNL     1       1.908  -4.796   1.831  0.00  0.00    -0.274 OA
ATOM     20  H   UNL     1       4.126   0.530  -2.604  0.00  0.00    +0.160 HD
ENDROOT
BRANCH   1  24
ATOM     21  C   UNL     1      -0.016   1.379   0.010  0.00  0.00    +0.000 A 
ATOM     22  C   UNL     1       1.154   2.048   0.316  0.00  0.00    +0.000 A 
ATOM     23  C   UNL     1       2.360   1.373   0.301  0.00  0.00    +0.005 A 
ATOM     24  C   UNL     1       2.396   0.029  -0.020  0.00  0.00    -0.025 A 
ATOM     25  C   UNL     1       1.226  -0.641  -0.326  0.00  0.00    +0.005 A 
ATOM     26  C   UNL     1       0.020   0.035  -0.312  0.00  0.00    +0.000 A 
ENDBRANCH   1  24
BRANCH  17  27
ATOM     27  C   UNL     1       3.581  -4.980   3.820  0.00  0.00    +0.110 C 
BRANCH  27  28
ATOM     28  C   UNL     1       2.679  -4.564   4.983  0.00  0.00    +0.040 C 
BRANCH  28  29
ATOM     29  C   UNL     1       2.626  -5.692   6.016  0.00  0.00    +0.124 C 
BRANCH  29  30
ATOM     30  N   UNL     1       1.763  -5.294   7.130  0.00  0.00    -0.338 N 
ATOM     31  C   UNL     1       2.152  -4.634   8.264  0.00  0.00    +0.104 A 
ATOM     32  C   UNL     1       1.048  -4.468   9.017  0.00  0.00    +0.101 A 
ATOM     33  N   UNL     1       0.013  -5.013   8.361  0.00  0.00    -0.352 N 
ATOM     34  C   UNL     1       0.432  -5.505   7.228  0.00  0.00    +0.173 A 
ATOM     35  H   UNL     1      -0.904  -5.034   8.678  0.00  0.00    +0.166 HD
ENDBRANCH  29  30
ENDBRANCH  28  29
ENDBRANCH  27  28
ENDBRANCH  17  27
TORSDOF 5
