REMARK  Name = ZINC20276236
REMARK  6 active torsions:
REMARK  status: ('A' for Active; 'I' for Inactive)
REMARK    1  A    between atoms: C_1  and  C_2
REMARK    2  A    between atoms: C_2  and  C_3
REMARK    3  A    between atoms: C_2  and  C_4
REMARK    4  A    between atoms: N_8  and  C_17
REMARK    5  A    between atoms: C_12  and  N_16
REMARK    6  A    between atoms: C_17  and  C_18
REMARK                            x       y       z     vdW  Elec       q    Type
REMARK                         _______ _______ _______ _____ _____    ______ ____
ROOT
ATOM      1  C   UNL     1       1.266  -0.785  -0.749  0.00  0.00    +0.262 C 
ATOM      2  C   UNL     1       2.521  -0.040  -0.371  0.00  0.00    +0.261 C 
ATOM      3  O   UNL     1       3.594  -0.607  -0.384  0.00  0.00    -0.271 OA
ATOM      4  N   UNL     1       2.447   1.261  -0.018  0.00  0.00    -0.261 N 
ATOM      5  C   UNL     1       1.188   1.884   0.024  0.00  0.00    +0.079 A 
ATOM      6  C   UNL     1       1.084   3.264   0.065  0.00  0.00    +0.029 A 
ATOM      7  C   UNL     1      -0.162   3.861   0.107  0.00  0.00    +0.025 A 
ATOM      8  C   UNL     1      -1.310   3.078   0.108  0.00  0.00    +0.028 A 
ATOM      9  C   UNL     1      -1.208   1.694   0.061  0.00  0.00    +0.070 A 
ATOM     10  C   UNL     1       0.038   1.096   0.024  0.00  0.00    +0.145 A 
ATOM     11  O   UNL     1       0.156  -0.259  -0.018  0.00  0.00    -0.477 OA
ENDROOT
BRANCH   1  13
ATOM     12  C   UNL     1      -0.260  -1.384  -2.634  0.00  0.00    +0.011 C 
ATOM     13  C   UNL     1       1.011  -0.624  -2.249  0.00  0.00    +0.033 C 
ATOM     14  C   UNL     1       0.839   0.859  -2.580  0.00  0.00    +0.011 C 
ENDBRANCH   1  13
BRANCH   8  15
ATOM     15  N   UNL     1      -2.569   3.685   0.151  0.00  0.00    -0.358 N 
ATOM     16  H   UNL     1      -3.478   3.066   0.152  0.00  0.00    +0.142 HD
ATOM     17  H   UNL     1      -2.650   4.782   0.184  0.00  0.00    +0.142 HD
ENDBRANCH   8  15
BRANCH   4  18
ATOM     18  C   UNL     1       3.659   2.012   0.317  0.00  0.00    +0.152 C 
BRANCH  18  19
ATOM     19  C   UNL     1       3.851   2.016   1.812  0.00  0.00    +0.005 A 
ATOM     20  C   UNL     1       3.463   3.115   2.555  0.00  0.00    +0.008 A 
ATOM     21  C   UNL     1       3.633   3.117   3.927  0.00  0.00    +0.000 A 
ATOM     22  C   UNL     1       4.201   2.025   4.556  0.00  0.00    +0.003 A 
ATOM     23  C   UNL     1       4.595   0.928   3.814  0.00  0.00    +0.038 A 
ATOM     24  C   UNL     1       4.420   0.922   2.441  0.00  0.00    +0.128 A 
ATOM     25  F   UNL     1       4.805  -0.150   1.714  0.00  0.00    -0.205 F 
ENDBRANCH  18  19
ENDBRANCH   4  18
TORSDOF 4
