REMARK  Name = ZINC50660843
REMARK  6 active torsions:
REMARK  status: ('A' for Active; 'I' for Inactive)
REMARK    1  A    between atoms: C_1  and  C_2
REMARK    2  A    between atoms: N_7  and  S_11
REMARK    3  A    between atoms: C_8  and  C_10
REMARK    4  A    between atoms: S_11  and  C_14
REMARK    5  A    between atoms: C_16  and  N_23
REMARK    6  A    between atoms: C_19  and  N_20
REMARK                            x       y       z     vdW  Elec       q    Type
REMARK                         _______ _______ _______ _____ _____    ______ ____
ROOT
ATOM      1  C   UNL     1       2.480  -3.355  -0.218  0.00  0.00    +0.137 A 
ATOM      2  C   UNL     1       1.627  -3.111  -1.277  0.00  0.00    +0.053 A 
ATOM      3  C   UNL     1       1.978  -3.519  -2.557  0.00  0.00    +0.027 A 
ATOM      4  C   UNL     1       3.186  -4.172  -2.769  0.00  0.00    +0.025 A 
ATOM      5  C   UNL     1       4.034  -4.412  -1.706  0.00  0.00    +0.036 A 
ATOM      6  C   UNL     1       3.684  -3.999  -0.433  0.00  0.00    +0.153 A 
ENDROOT
BRANCH   1   7
ATOM      7  S   UNL     1       2.036  -2.836   1.406  0.00  0.00    +0.063 S 
ATOM      8  O   UNL     1       3.113  -2.043   1.888  0.00  0.00    -0.153 OA
ATOM      9  O   UNL     1       1.577  -3.994   2.091  0.00  0.00    -0.153 OA
BRANCH   7  15
ATOM     10  C   UNL     1       0.149   1.456  -0.537  0.00  0.00    +0.009 C 
ATOM     11  C   UNL     1       0.072  -0.050  -0.278  0.00  0.00    +0.005 C 
ATOM     12  C   UNL     1      -1.382  -0.450  -0.019  0.00  0.00    +0.006 C 
ATOM     13  C   UNL     1      -1.464  -1.961   0.207  0.00  0.00    +0.017 C 
ATOM     14  C   UNL     1      -0.633  -2.335   1.438  0.00  0.00    +0.110 C 
ATOM     15  N   UNL     1       0.733  -1.826   1.259  0.00  0.00    -0.173 NA
ATOM     16  C   UNL     1       0.921  -0.402   0.947  0.00  0.00    +0.080 C 
ATOM     17  C   UNL     1       0.478   0.447   2.140  0.00  0.00    +0.026 C 
ENDBRANCH   7  15
ENDBRANCH   1   7
BRANCH   6  18
ATOM     18  N   UNL     1       4.598  -4.254   0.703  0.00  0.00    +0.058 N 
ATOM     19  O   UNL     1       5.702  -4.704   0.502  0.00  0.00    -0.126 OA
ATOM     20  O   UNL     1       4.241  -4.011   1.832  0.00  0.00    -0.126 OA
ENDBRANCH   6  18
BRANCH   3  21
ATOM     21  N   UNL     1       1.117  -3.275  -3.630  0.00  0.00    -0.358 N 
ATOM     22  H   UNL     1       0.274  -2.820  -3.482  0.00  0.00    +0.142 HD
ATOM     23  H   UNL     1       1.363  -3.561  -4.524  0.00  0.00    +0.142 HD
ENDBRANCH   3  21
TORSDOF 4
