REMARK  Name = ZINC06748295
REMARK  5 active torsions:
REMARK  status: ('A' for Active; 'I' for Inactive)
REMARK    1  A    between atoms: C_5  and  C_7
REMARK    2  A    between atoms: C_7  and  S_8
REMARK    3  A    between atoms: S_8  and  C_9
REMARK    4  A    between atoms: C_20  and  C_22
REMARK    5  A    between atoms: C_26  and  O_28
REMARK                            x       y       z     vdW  Elec       q    Type
REMARK                         _______ _______ _______ _____ _____    ______ ____
ROOT
ATOM      1  C   UNL     1       1.275  -4.553   1.506  0.00  0.00    +0.194 A 
ATOM      2  N   UNL     1       1.275  -5.077   0.289  0.00  0.00    -0.183 NA
ATOM      3  C   UNL     1       1.292  -6.396   0.114  0.00  0.00    +0.280 A 
ATOM      4  O   UNL     1       1.293  -6.926  -1.133  0.00  0.00    -0.265 OA
ATOM      5  C   UNL     1       1.308  -7.218   1.231  0.00  0.00    +0.067 A 
ATOM      6  C   UNL     1       1.306  -6.636   2.493  0.00  0.00    +0.137 A 
ATOM      7  N   UNL     1       1.295  -5.311   2.594  0.00  0.00    -0.206 NA
ATOM      8  N   UNL     1       1.322  -7.437   3.627  0.00  0.00    -0.270 N 
ATOM      9  C   UNL     1       0.980  -8.737   3.550  0.00  0.00    +0.219 C 
ATOM     10  O   UNL     1       1.022  -9.426   4.547  0.00  0.00    -0.275 OA
ATOM     11  C   UNL     1       0.545  -9.346   2.244  0.00  0.00    +0.109 C 
ATOM     12  C   UNL     1       1.326  -8.715   1.089  0.00  0.00    +0.067 C 
ATOM     13  H   UNL     1       1.582  -7.058   4.481  0.00  0.00    +0.156 HD
ENDROOT
BRANCH  12  14
ATOM     14  C   UNL     1       2.751  -9.205   1.118  0.00  0.00    -0.036 A 
ATOM     15  C   UNL     1       3.541  -8.970   2.228  0.00  0.00    +0.004 A 
ATOM     16  C   UNL     1       4.848  -9.418   2.258  0.00  0.00    +0.004 A 
ATOM     17  C   UNL     1       5.369 -10.102   1.176  0.00  0.00    +0.045 A 
ATOM     18  C   UNL     1       4.579 -10.340   0.061  0.00  0.00    +0.117 A 
ATOM     19  C   UNL     1       3.265  -9.894   0.037  0.00  0.00    +0.049 A 
BRANCH  18  20
ATOM     20  O   UNL     1       5.090 -11.012  -1.004  0.00  0.00    -0.507 OA
ATOM     21  H   UNL     1       4.968 -11.971  -0.958  0.00  0.00    +0.292 HD
ENDBRANCH  18  20
ENDBRANCH  12  14
BRANCH   1  22
ATOM     22  S   UNL     1       1.253  -2.800   1.685  0.00  0.00    -0.081 S 
BRANCH  22  23
ATOM     23  C   UNL     1       1.228  -2.186  -0.022  0.00  0.00    +0.115 C 
BRANCH  23  28
ATOM     24  C   UNL     1      -0.017   1.378   0.010  0.00  0.00    +0.000 A 
ATOM     25  C   UNL     1       1.171   2.087   0.002  0.00  0.00    +0.003 A 
ATOM     26  C   UNL     1       2.377   1.414  -0.013  0.00  0.00    +0.038 A 
ATOM     27  C   UNL     1       2.397   0.029  -0.021  0.00  0.00    +0.127 A 
ATOM     28  C   UNL     1       1.208  -0.679  -0.013  0.00  0.00    -0.002 A 
ATOM     29  C   UNL     1       0.002  -0.004   0.002  0.00  0.00    +0.007 A 
ATOM     30  F   UNL     1       3.577  -0.630  -0.036  0.00  0.00    -0.205 F 
ENDBRANCH  23  28
ENDBRANCH  22  23
ENDBRANCH   1  22
TORSDOF 5
