REMARK  Name = ZINC08214844
REMARK  15 active torsions:
REMARK  status: ('A' for Active; 'I' for Inactive)
REMARK    1  A    between atoms: C_1  and  C_2
REMARK    2  A    between atoms: C_2  and  O_4
REMARK    3  A    between atoms: O_4  and  C_5
REMARK    4  A    between atoms: C_10  and  C_49
REMARK    5  A    between atoms: C_13  and  C_32
REMARK    6  A    between atoms: C_21  and  C_27
REMARK    7  A    between atoms: C_23  and  C_26
REMARK    8  A    between atoms: C_33  and  O_45
REMARK    9  A    between atoms: C_36  and  O_41
REMARK   10  A    between atoms: C_38  and  C_39
REMARK   11  A    between atoms: C_38  and  C_40
REMARK   12  A    between atoms: O_41  and  C_42
REMARK   13  A    between atoms: C_42  and  C_44
REMARK   14  A    between atoms: O_45  and  C_46
REMARK   15  A    between atoms: C_46  and  C_48
REMARK                            x       y       z     vdW  Elec       q    Type
REMARK                         _______ _______ _______ _____ _____    ______ ____
ROOT
ATOM      1  C   UNL     1       0.483  -2.822  -1.805  0.00  0.00    +0.186 C 
ATOM      2  C   UNL     1       1.921  -3.333  -1.867  0.00  0.00    +0.050 C 
ATOM      3  C   UNL     1       2.502  -3.486  -3.309  0.00  0.00    +0.011 C 
ATOM      4  C   UNL     1       1.505  -4.096  -4.258  0.00  0.00    +0.012 C 
ATOM      5  C   UNL     1       0.228  -3.284  -4.217  0.00  0.00    +0.011 C 
ATOM      6  C   UNL     1      -0.472  -3.235  -2.922  0.00  0.00    +0.041 C 
ATOM      7  C   UNL     1      -1.588  -2.195  -2.904  0.00  0.00    +0.125 C 
ATOM      8  C   UNL     1      -2.124  -1.481  -1.741  0.00  0.00    +0.260 C 
ATOM      9  O   UNL     1      -2.762  -2.607  -2.124  0.00  0.00    -0.352 OA
ATOM     10  C   UNL     1      -2.951  -0.228  -1.931  0.00  0.00    +0.340 C 
ATOM     11  O   UNL     1      -3.124   0.612  -1.064  0.00  0.00    -0.248 OA
ATOM     12  O   UNL     1      -3.418   0.013  -3.152  0.00  0.00    -0.454 OA
ATOM     13  C   UNL     1      -3.456  -0.984  -4.161  0.00  0.00    +0.218 C 
ATOM     14  C   UNL     1      -2.005  -1.669  -4.224  0.00  0.00    +0.042 C 
ATOM     15  C   UNL     1      -2.038  -2.692  -5.340  0.00  0.00    +0.014 C 
ATOM     16  C   UNL     1      -0.763  -3.565  -5.314  0.00  0.00    +0.006 C 
ATOM     17  C   UNL     1      -1.064  -0.477  -4.691  0.00  0.00    +0.018 C 
ATOM     18  C   UNL     1      -1.133  -4.506  -2.432  0.00  0.00    +0.018 C 
ATOM     19  C   UNL     1       2.147  -4.124  -5.654  0.00  0.00    +0.186 C 
ATOM     20  C   UNL     1       2.449  -2.728  -6.041  0.00  0.00    +0.090 C 
ATOM     21  C   UNL     1       3.728  -2.346  -5.201  0.00  0.00    +0.186 C 
ATOM     22  C   UNL     1       3.359  -2.313  -3.736  0.00  0.00    +0.006 C 
ATOM     23  C   UNL     1       2.677  -0.986  -3.310  0.00  0.00    +0.015 C 
ATOM     24  C   UNL     1       4.644  -2.342  -2.930  0.00  0.00    +0.015 C 
ATOM     25  C   UNL     1       1.278  -5.534  -3.935  0.00  0.00    +0.015 C 
ENDROOT
BRANCH  13  26
ATOM     26  C   UNL     1      -3.752  -0.359  -5.500  0.00  0.00    +0.031 A 
ATOM     27  C   UNL     1      -4.599  -0.882  -6.504  0.00  0.00    +0.048 A 
ATOM     28  C   UNL     1      -4.577  -0.008  -7.526  0.00  0.00    +0.195 A 
ATOM     29  O   UNL     1      -3.766   1.010  -7.196  0.00  0.00    -0.471 OA
ATOM     30  C   UNL     1      -3.268   0.805  -5.966  0.00  0.00    +0.202 A 
ENDBRANCH  13  26
BRANCH   1  31
ATOM     31  O   UNL     1       0.493  -1.365  -1.660  0.00  0.00    -0.461 OA
BRANCH  31  33
ATOM     32  C   UNL     1       0.658   0.613  -0.192  0.00  0.00    +0.136 C 
ATOM     33  C   UNL     1       0.638  -0.877  -0.418  0.00  0.00    +0.304 C 
ATOM     34  O   UNL     1       0.753  -1.632   0.518  0.00  0.00    -0.251 OA
ENDBRANCH  31  33
ENDBRANCH   1  31
BRANCH  21  35
ATOM     35  O   UNL     1       4.140  -0.972  -5.581  0.00  0.00    -0.461 OA
BRANCH  35  36
ATOM     36  C   UNL     1       5.008  -0.856  -6.598  0.00  0.00    +0.304 C 
ATOM     37  O   UNL     1       5.418  -1.845  -7.159  0.00  0.00    -0.251 OA
ATOM     38  C   UNL     1       5.472   0.508  -7.041  0.00  0.00    +0.136 C 
ENDBRANCH  35  36
ENDBRANCH  21  35
BRANCH  19  39
ATOM     39  O   UNL     1       1.256  -4.771  -6.648  0.00  0.00    -0.461 OA
BRANCH  39  40
ATOM     40  C   UNL     1       1.846  -5.410  -7.670  0.00  0.00    +0.304 C 
ATOM     41  O   UNL     1       3.051  -5.440  -7.749  0.00  0.00    -0.251 OA
ATOM     42  C   UNL     1       1.005  -6.091  -8.719  0.00  0.00    +0.136 C 
ENDBRANCH  39  40
ENDBRANCH  19  39
TORSDOF 7
