REMARK  Name = ZINC00135808
REMARK  3 active torsions:
REMARK  status: ('A' for Active; 'I' for Inactive)
REMARK    1  A    between atoms: C_1  and  O_2
REMARK    2  A    between atoms: O_2  and  C_3
REMARK    3  A    between atoms: C_8  and  C_9
REMARK                            x       y       z     vdW  Elec       q    Type
REMARK                         _______ _______ _______ _____ _____    ______ ____
ROOT
ATOM      1  C   UNL     1       0.052  -2.828   0.005  0.00  0.00    +0.191 C 
ATOM      2  N   UNL     1      -1.184  -2.175  -0.461  0.00  0.00    -0.322 N 
ATOM      3  C   UNL     1      -2.306  -2.229   0.367  0.00  0.00    +0.038 A 
ATOM      4  C   UNL     1      -3.304  -1.285   0.301  0.00  0.00    +0.023 A 
ATOM      5  C   UNL     1      -4.412  -1.371   1.141  0.00  0.00    +0.002 A 
ATOM      6  C   UNL     1      -4.540  -2.383   2.045  0.00  0.00    +0.009 A 
ATOM      7  C   UNL     1      -3.541  -3.366   2.144  0.00  0.00    -0.014 A 
ATOM      8  C   UNL     1      -2.413  -3.286   1.295  0.00  0.00    +0.024 A 
ATOM      9  C   UNL     1      -1.398  -4.262   1.381  0.00  0.00    +0.038 A 
ATOM     10  C   UNL     1      -1.518  -5.283   2.295  0.00  0.00    +0.023 A 
ATOM     11  C   UNL     1      -2.633  -5.355   3.127  0.00  0.00    +0.002 A 
ATOM     12  C   UNL     1      -3.628  -4.426   3.063  0.00  0.00    +0.009 A 
ATOM     13  N   UNL     1      -0.298  -4.161   0.529  0.00  0.00    -0.322 N 
ATOM     14  H   UNL     1      -1.216  -1.721  -1.317  0.00  0.00    +0.148 HD
ATOM     15  H   UNL     1       0.221  -4.944   0.288  0.00  0.00    +0.148 HD
ENDROOT
BRANCH   1  21
ATOM     16  C   UNL     1       0.626  -0.618   1.042  0.00  0.00    +0.127 A 
ATOM     17  C   UNL     1       1.202   0.139   2.051  0.00  0.00    +0.046 A 
ATOM     18  C   UNL     1       1.835  -0.488   3.107  0.00  0.00    +0.004 A 
ATOM     19  C   UNL     1       1.895  -1.869   3.158  0.00  0.00    +0.001 A 
ATOM     20  C   UNL     1       1.321  -2.625   2.153  0.00  0.00    +0.011 A 
ATOM     21  C   UNL     1       0.682  -2.003   1.097  0.00  0.00    +0.032 A 
BRANCH  16  23
ATOM     22  C   UNL     1      -0.017   1.425   0.010  0.00  0.00    +0.277 C 
ATOM     23  O   UNL     1       0.002  -0.004   0.002  0.00  0.00    -0.495 OA
ENDBRANCH  16  23
ENDBRANCH   1  21
TORSDOF 2
