REMARK  Name = ZINC26647878
REMARK  18 active torsions:
REMARK  status: ('A' for Active; 'I' for Inactive)
REMARK    1  A    between atoms: C_1  and  C_2
REMARK    2  A    between atoms: C_2  and  C_3
REMARK    3  A    between atoms: C_3  and  C_4
REMARK    4  A    between atoms: C_4  and  N_5
REMARK    5  A    between atoms: C_6  and  N_29
REMARK    6  A    between atoms: C_7  and  N_14
REMARK    7  A    between atoms: N_14  and  C_15
REMARK    8  A    between atoms: C_15  and  C_16
REMARK    9  A    between atoms: C_17  and  C_19
REMARK   10  A    between atoms: C_19  and  N_20
REMARK   11  A    between atoms: N_20  and  C_21
REMARK   12  A    between atoms: N_20  and  C_25
REMARK   13  A    between atoms: C_21  and  C_22
REMARK   14  A    between atoms: C_22  and  C_23
REMARK   15  A    between atoms: C_22  and  C_24
REMARK   16  A    between atoms: C_25  and  C_26
REMARK   17  A    between atoms: C_26  and  C_27
REMARK   18  A    between atoms: C_26  and  C_28
REMARK                            x       y       z     vdW  Elec       q    Type
REMARK                         _______ _______ _______ _____ _____    ______ ____
ROOT
ATOM      1  N   UNL     1       0.485  -0.731   0.546  0.00  0.00    -0.280 N 
ATOM      2  C   UNL     1       0.381  -1.816  -0.292  0.00  0.00    +0.127 A 
ATOM      3  C   UNL     1      -0.788  -2.012  -1.000  0.00  0.00    +0.140 A 
ATOM      4  C   UNL     1      -1.836  -1.085  -0.849  0.00  0.00    +0.277 A 
ATOM      5  O   UNL     1      -2.878  -1.231  -1.466  0.00  0.00    -0.266 OA
ATOM      6  N   UNL     1      -1.681  -0.035  -0.019  0.00  0.00    -0.273 N 
ATOM      7  H   UNL     1      -2.495   0.694   0.104  0.00  0.00    +0.173 HD
ATOM      8  C   UNL     1      -0.537   0.136   0.667  0.00  0.00    +0.331 A 
ATOM      9  O   UNL     1      -0.424   1.092   1.410  0.00  0.00    -0.246 OA
ENDROOT
BRANCH   3  10
ATOM     10  N   UNL     1      -0.927  -3.119  -1.863  0.00  0.00    -0.266 N 
ATOM     11  C   UNL     1      -1.109  -2.923  -3.186  0.00  0.00    +0.203 C 
ATOM     12  O   UNL     1      -1.054  -1.802  -3.647  0.00  0.00    -0.277 OA
BRANCH  10  13
ATOM     13  C   UNL     1      -0.874  -4.480  -1.324  0.00  0.00    +0.110 C 
ATOM     14  C   UNL     1      -2.295  -4.969  -1.034  0.00  0.00    +0.025 C 
ENDBRANCH  10  13
BRANCH  11  15
ATOM     15  C   UNL     1      -1.381  -4.098  -4.091  0.00  0.00    +0.019 C 
BRANCH  15  16
ATOM     16  N   UNL     1      -1.541  -3.625  -5.472  0.00  0.00    +0.386 N 
ATOM     17  H   UNL     1      -2.289  -2.818  -5.469  0.00  0.00    -0.081 HD
BRANCH  16  18
ATOM     18  C   UNL     1      -0.282  -3.071  -5.988  0.00  0.00    -0.075 C 
BRANCH  18  19
ATOM     19  C   UNL     1       0.773  -4.177  -6.052  0.00  0.00    -0.034 C 
ATOM     20  C   UNL     1       0.804  -4.771  -7.462  0.00  0.00    +0.005 C 
ATOM     21  C   UNL     1       2.146  -3.592  -5.715  0.00  0.00    +0.005 C 
ENDBRANCH  18  19
ENDBRANCH  16  18
BRANCH  16  22
ATOM     22  C   UNL     1      -2.039  -4.699  -6.342  0.00  0.00    -0.075 C 
BRANCH  22  23
ATOM     23  C   UNL     1      -2.354  -4.129  -7.726  0.00  0.00    -0.034 C 
ATOM     24  C   UNL     1      -2.815  -5.259  -8.650  0.00  0.00    +0.005 C 
ATOM     25  C   UNL     1      -3.465  -3.084  -7.607  0.00  0.00    +0.005 C 
ENDBRANCH  22  23
ENDBRANCH  16  22
ENDBRANCH  15  16
ENDBRANCH  11  15
ENDBRANCH   3  10
BRANCH   2  26
ATOM     26  N   UNL     1       1.427  -2.699  -0.420  0.00  0.00    -0.343 N 
ATOM     27  H   UNL     1       1.337  -3.565  -1.092  0.00  0.00    +0.144 HD
ATOM     28  H   UNL     1       2.354  -2.539   0.150  0.00  0.00    +0.144 HD
ENDBRANCH   2  26
BRANCH   1  29
ATOM     29  C   UNL     1       1.717  -0.514   1.308  0.00  0.00    +0.128 C 
BRANCH  29  30
ATOM     30  C   UNL     1       1.611  -1.221   2.661  0.00  0.00    +0.021 C 
BRANCH  30  32
ATOM     31  C   UNL     1       2.793  -1.701   4.809  0.00  0.00    +0.004 C 
ATOM     32  C   UNL     1       2.899  -0.995   3.456  0.00  0.00    -0.002 C 
ENDBRANCH  30  32
ENDBRANCH  29  30
ENDBRANCH   1  29
TORSDOF 12
