REMARK  Name = ZINC63064026
REMARK  4 active torsions:
REMARK  status: ('A' for Active; 'I' for Inactive)
REMARK    1  A    between atoms: C_1  and  N_2
REMARK    2  A    between atoms: C_4  and  S_7
REMARK    3  A    between atoms: S_7  and  N_10
REMARK    4  A    between atoms: C_16  and  O_20
REMARK                            x       y       z     vdW  Elec       q    Type
REMARK                         _______ _______ _______ _____ _____    ______ ____
ROOT
ATOM      1  N   UNL     1       2.035  -3.248  -1.578  0.00  0.00    -0.199 N 
ATOM      2  C   UNL     1       2.916  -2.490  -2.477  0.00  0.00    +0.132 C 
ATOM      3  C   UNL     1       3.715  -3.501  -3.311  0.00  0.00    +0.025 C 
ATOM      4  C   UNL     1       4.597  -4.326  -2.374  0.00  0.00    +0.039 C 
ATOM      5  C   UNL     1       3.779  -4.898  -1.246  0.00  0.00    -0.021 A 
ATOM      6  C   UNL     1       2.558  -4.350  -0.886  0.00  0.00    +0.096 A 
ATOM      7  C   UNL     1       1.831  -4.897   0.170  0.00  0.00    +0.140 A 
ATOM      8  C   UNL     1       2.330  -5.987   0.861  0.00  0.00    +0.047 A 
ATOM      9  C   UNL     1       3.550  -6.531   0.502  0.00  0.00    +0.004 A 
ATOM     10  C   UNL     1       4.268  -5.993  -0.552  0.00  0.00    +0.006 A 
ENDROOT
BRANCH   1  11
ATOM     11  S   UNL     1       0.452  -2.804  -1.378  0.00  0.00    +0.078 S 
ATOM     12  O   UNL     1      -0.273  -3.995  -1.105  0.00  0.00    -0.150 OA
ATOM     13  O   UNL     1       0.131  -1.948  -2.467  0.00  0.00    -0.150 OA
BRANCH  11  17
ATOM     14  C   UNL     1       0.456   1.265   1.948  0.00  0.00    +0.172 C 
ATOM     15  N   UNL     1       0.376  -0.103   1.431  0.00  0.00    -0.273 N 
ATOM     16  C   UNL     1       0.506  -0.472   0.139  0.00  0.00    +0.136 A 
ATOM     17  C   UNL     1       0.368  -1.817   0.079  0.00  0.00    +0.146 A 
ATOM     18  C   UNL     1       0.144  -2.285   1.378  0.00  0.00    +0.163 A 
ATOM     19  N   UNL     1       0.155  -1.259   2.190  0.00  0.00    -0.178 NA
ENDBRANCH  11  17
ENDBRANCH   1  11
BRANCH   7  20
ATOM     20  O   UNL     1       0.631  -4.360   0.520  0.00  0.00    -0.505 OA
ATOM     21  H   UNL     1      -0.119  -4.956   0.392  0.00  0.00    +0.292 HD
ENDBRANCH   7  20
TORSDOF 3
