REMARK  Name = ZINC31822628
REMARK  8 active torsions:
REMARK  status: ('A' for Active; 'I' for Inactive)
REMARK    1  A    between atoms: C_1  and  C_2
REMARK    2  A    between atoms: C_3  and  C_27
REMARK    3  A    between atoms: C_7  and  N_26
REMARK    4  A    between atoms: C_9  and  S_11
REMARK    5  A    between atoms: S_11  and  C_12
REMARK    6  A    between atoms: C_12  and  C_13
REMARK    7  A    between atoms: N_15  and  C_16
REMARK    8  A    between atoms: N_20  and  C_21
REMARK                            x       y       z     vdW  Elec       q    Type
REMARK                         _______ _______ _______ _____ _____    ______ ____
ROOT
ATOM      1  S   UNL     1      -1.568  -0.916   0.710  0.00  0.00    -0.077 S 
ENDROOT
BRANCH   1  10
ATOM      2  C   UNL     1       4.875   1.633   0.875  0.00  0.00    +0.045 C 
ATOM      3  C   UNL     1       3.480   2.198   0.804  0.00  0.00    -0.028 A 
ATOM      4  C   UNL     1       3.288   3.524   0.756  0.00  0.00    -0.008 A 
ATOM      5  S   UNL     1       1.513   3.685   0.684  0.00  0.00    -0.073 S 
ATOM      6  C   UNL     1       1.079   1.966   0.721  0.00  0.00    +0.115 A 
ATOM      7  C   UNL     1       2.328   1.312   0.788  0.00  0.00    +0.050 A 
ATOM      8  C   UNL     1       2.275  -0.109   0.830  0.00  0.00    +0.129 A 
ATOM      9  N   UNL     1       1.099  -0.714   0.804  0.00  0.00    -0.207 NA
ATOM     10  C   UNL     1      -0.041  -0.037   0.741  0.00  0.00    +0.191 A 
ATOM     11  N   UNL     1      -0.053   1.289   0.699  0.00  0.00    -0.214 NA
ATOM     12  C   UNL     1       4.324   4.618   0.761  0.00  0.00    +0.052 C 
BRANCH   8  13
ATOM     13  N   UNL     1       3.441  -0.850   0.897  0.00  0.00    -0.343 N 
ATOM     14  H   UNL     1       3.393  -1.948   0.929  0.00  0.00    +0.144 HD
ATOM     15  H   UNL     1       4.415  -0.341   0.918  0.00  0.00    +0.144 HD
ENDBRANCH   8  13
ENDBRANCH   1  10
BRANCH   1  16
ATOM     16  C   UNL     1      -0.953  -2.616   0.786  0.00  0.00    +0.173 C 
BRANCH  16  17
ATOM     17  C   UNL     1      -2.117  -3.573   0.771  0.00  0.00    +0.229 C 
ATOM     18  O   UNL     1      -3.251  -3.147   0.715  0.00  0.00    -0.275 OA
ATOM     19  N   UNL     1      -1.898  -4.902   0.821  0.00  0.00    -0.270 N 
ATOM     20  H   UNL     1      -0.869  -5.288   0.872  0.00  0.00    +0.156 HD
BRANCH  19  21
ATOM     21  C   UNL     1      -2.976  -5.787   0.807  0.00  0.00    +0.123 A 
ATOM     22  C   UNL     1      -4.293  -5.450   0.746  0.00  0.00    +0.065 A 
ATOM     23  C   UNL     1      -5.038  -6.632   0.753  0.00  0.00    +0.136 A 
ATOM     24  N   UNL     1      -4.208  -7.641   0.816  0.00  0.00    -0.178 NA
ATOM     25  N   UNL     1      -2.901  -7.137   0.846  0.00  0.00    -0.247 N 
BRANCH  25  26
ATOM     26  C   UNL     1      -1.672  -7.932   0.911  0.00  0.00    +0.109 C 
ATOM     27  C   UNL     1      -1.603  -8.898  -0.290  0.00  0.00    +0.027 C 
ATOM     28  C   UNL     1      -0.970 -10.185   0.296  0.00  0.00    +0.002 C 
ATOM     29  C   UNL     1      -1.607 -10.270   1.705  0.00  0.00    +0.002 C 
ATOM     30  C   UNL     1      -1.674  -8.803   2.179  0.00  0.00    +0.027 C 
ENDBRANCH  25  26
ENDBRANCH  19  21
ENDBRANCH  16  17
ENDBRANCH   1  16
TORSDOF 6
