REMARK  Name = ZINC51151411
REMARK  3 active torsions:
REMARK  status: ('A' for Active; 'I' for Inactive)
REMARK    1  A    between atoms: C_1  and  C_2
REMARK    2  A    between atoms: C_7  and  C_8
REMARK    3  A    between atoms: N_20  and  N_21
REMARK                            x       y       z     vdW  Elec       q    Type
REMARK                         _______ _______ _______ _____ _____    ______ ____
ROOT
ATOM      1  C   UNL     1       0.242   0.017   2.478  0.00  0.00    +0.181 A 
ATOM      2  N   UNL     1       0.467  -0.664   3.597  0.00  0.00    -0.209 NA
ATOM      3  C   UNL     1       0.577  -0.067   4.771  0.00  0.00    +0.145 A 
ATOM      4  C   UNL     1       0.451   1.349   4.843  0.00  0.00    +0.052 A 
ATOM      5  C   UNL     1       0.537   2.214   6.029  0.00  0.00    -0.025 A 
ATOM      6  C   UNL     1       0.382   3.534   5.831  0.00  0.00    -0.004 A 
ATOM      7  S   UNL     1       0.119   3.712   4.082  0.00  0.00    -0.073 S 
ATOM      8  C   UNL     1       0.215   2.004   3.619  0.00  0.00    +0.114 A 
ATOM      9  N   UNL     1       0.122   1.338   2.486  0.00  0.00    -0.219 NA
ATOM     10  C   UNL     1       0.484   4.317   7.113  0.00  0.00    +0.043 C 
ATOM     11  C   UNL     1       0.299   3.263   8.227  0.00  0.00    +0.010 C 
ATOM     12  C   UNL     1       0.776   1.977   7.523  0.00  0.00    +0.037 C 
ATOM     13  N   UNL     1       0.811  -0.809   5.916  0.00  0.00    -0.267 N 
ATOM     14  H   UNL     1       0.891  -0.364   6.774  0.00  0.00    +0.167 HD
ENDROOT
BRANCH   1  21
ATOM     15  C   UNL     1      -0.535   1.448   0.087  0.00  0.00    +0.046 C 
ATOM     16  C   UNL     1      -0.246  -0.031   0.039  0.00  0.00    -0.021 A 
ATOM     17  C   UNL     1      -0.343  -0.726  -1.154  0.00  0.00    +0.007 A 
ATOM     18  C   UNL     1      -0.068  -2.086  -1.152  0.00  0.00    +0.020 A 
ATOM     19  C   UNL     1       0.293  -2.703   0.032  0.00  0.00    +0.111 A 
ATOM     20  N   UNL     1       0.378  -2.018   1.153  0.00  0.00    -0.252 NA
ATOM     21  C   UNL     1       0.128  -0.715   1.193  0.00  0.00    +0.111 A 
ENDBRANCH   1  21
BRANCH  13  22
ATOM     22  N   UNL     1       0.930  -2.167   5.837  0.00  0.00    -0.255 NA
ATOM     23  H   UNL     1       1.098  -2.569   6.747  0.00  0.00    +0.140 HD
ATOM     24  H   UNL     1       0.115  -2.577   5.406  0.00  0.00    +0.140 HD
ENDBRANCH  13  22
TORSDOF 2
