REMARK  Name = ZINC67468482
REMARK  12 active torsions:
REMARK  status: ('A' for Active; 'I' for Inactive)
REMARK    1  A    between atoms: C_1  and  C_2
REMARK    2  A    between atoms: C_5  and  N_9
REMARK    3  A    between atoms: C_7  and  C_8
REMARK    4  A    between atoms: C_10  and  C_12
REMARK    5  A    between atoms: N_14  and  N_15
REMARK    6  A    between atoms: N_18  and  C_19
REMARK    7  A    between atoms: C_19  and  C_20
REMARK    8  A    between atoms: C_20  and  S_21
REMARK    9  A    between atoms: S_21  and  C_22
REMARK   10  A    between atoms: C_22  and  C_23
REMARK   11  A    between atoms: C_22  and  C_24
REMARK   12  A    between atoms: C_22  and  C_25
REMARK                            x       y       z     vdW  Elec       q    Type
REMARK                         _______ _______ _______ _____ _____    ______ ____
ROOT
ATOM      1  C   UNL     1      -0.131  -6.327  -1.187  0.00  0.00    +0.315 C 
ATOM      2  O   UNL     1      -0.118  -6.936  -0.138  0.00  0.00    -0.264 OA
ATOM      3  N   UNL     1      -0.230  -6.996  -2.353  0.00  0.00    -0.225 N 
ATOM      4  H   UNL     1      -0.241  -6.510  -3.192  0.00  0.00    +0.173 HD
ENDROOT
BRANCH   3   5
ATOM      5  N   UNL     1      -0.316  -8.395  -2.353  0.00  0.00    -0.218 N 
ATOM      6  C   UNL     1      -0.415  -9.063  -3.519  0.00  0.00    +0.316 C 
ATOM      7  O   UNL     1      -0.490 -10.277  -3.519  0.00  0.00    -0.251 OA
ATOM      8  N   UNL     1      -0.430  -8.387  -4.685  0.00  0.00    -0.297 N 
ATOM      9  H   UNL     1      -0.305  -8.881  -1.514  0.00  0.00    +0.174 HD
ATOM     10  H   UNL     1      -0.370  -7.419  -4.685  0.00  0.00    +0.150 HD
BRANCH   8  11
ATOM     11  C   UNL     1      -0.537  -9.114  -5.952  0.00  0.00    +0.116 C 
BRANCH  11  12
ATOM     12  C   UNL     1      -0.532  -8.118  -7.114  0.00  0.00    +0.088 C 
BRANCH  12  13
ATOM     13  S   UNL     1      -0.665  -9.018  -8.683  0.00  0.00    -0.153 S 
BRANCH  13  14
ATOM     14  C   UNL     1      -0.646  -7.712  -9.941  0.00  0.00    +0.008 C 
ATOM     15  C   UNL     1       0.661  -6.923  -9.838  0.00  0.00    +0.022 C 
ATOM     16  C   UNL     1      -0.753  -8.342 -11.332  0.00  0.00    +0.022 C 
ATOM     17  C   UNL     1      -1.830  -6.769  -9.716  0.00  0.00    +0.022 C 
ENDBRANCH  13  14
ENDBRANCH  12  13
ENDBRANCH  11  12
ENDBRANCH   8  11
ENDBRANCH   3   5
BRANCH   1  19
ATOM     18  N   UNL     1       0.059  -4.168  -0.021  0.00  0.00    -0.278 N 
ATOM     19  C   UNL     1      -0.039  -4.837  -1.187  0.00  0.00    +0.305 C 
ATOM     20  O   UNL     1      -0.053  -4.228  -2.237  0.00  0.00    -0.265 OA
ATOM     21  H   UNL     1       0.148  -4.656   0.812  0.00  0.00    +0.155 HD
BRANCH  18  26
ATOM     22  C   UNL     1      -0.040   1.502   0.012  0.00  0.00    +0.044 C 
ATOM     23  C   UNL     1      -0.014  -0.004   0.003  0.00  0.00    -0.047 A 
ATOM     24  C   UNL     1       0.749  -0.686   0.934  0.00  0.00    +0.005 A 
ATOM     25  C   UNL     1       0.775  -2.067   0.929  0.00  0.00    +0.023 A 
ATOM     26  C   UNL     1       0.035  -2.771  -0.013  0.00  0.00    +0.034 A 
ATOM     27  C   UNL     1      -0.730  -2.083  -0.946  0.00  0.00    +0.027 A 
ATOM     28  C   UNL     1      -0.756  -0.702  -0.932  0.00  0.00    -0.046 A 
ATOM     29  C   UNL     1      -1.590   0.046  -1.940  0.00  0.00    +0.044 C 
ENDBRANCH  18  26
ENDBRANCH   1  19
TORSDOF 7
