REMARK  Name = ZINC64684320
REMARK  9 active torsions:
REMARK  status: ('A' for Active; 'I' for Inactive)
REMARK    1  A    between atoms: C_1  and  N_2
REMARK    2  A    between atoms: C_3  and  C_29
REMARK    3  A    between atoms: C_7  and  S_9
REMARK    4  A    between atoms: S_9  and  C_10
REMARK    5  A    between atoms: C_10  and  C_11
REMARK    6  A    between atoms: N_13  and  CA_14
REMARK    7  A    between atoms: CA_14  and  CB_16
REMARK    8  A    between atoms: CA_14  and  C_26
REMARK    9  A    between atoms: CB_16  and  CG_17
REMARK                            x       y       z     vdW  Elec       q    Type
REMARK                         _______ _______ _______ _____ _____    ______ ____
ROOT
ATOM      1  C   UNK A   0      -2.297  -2.806   2.836  0.00  0.00    +0.224 C 
ATOM      2  O   UNK A   0      -2.260  -2.346   3.957  0.00  0.00    -0.275 OA
ATOM      3  N   TRP A   1      -3.195  -3.763   2.530  0.00  0.00    -0.301 N 
ATOM      4  H   TRP A   1      -3.225  -4.131   1.633  0.00  0.00    +0.150 HD
ENDROOT
BRANCH   1   5
ATOM      5  C   UNK A   0      -1.339  -2.308   1.785  0.00  0.00    +0.167 C 
BRANCH   5   6
ATOM      6  S   UNK A   0      -0.266  -1.032   2.500  0.00  0.00    -0.116 S 
BRANCH   6  12
ATOM      7  C   UNK A   0      -0.032   1.452   0.022  0.00  0.00    +0.109 C 
ATOM      8  N   UNK A   0      -0.001  -0.017   0.005  0.00  0.00    -0.260 NA
ATOM      9  C   UNK A   0       0.691  -0.521  -1.210  0.00  0.00    +0.171 C 
ATOM     10  N   UNK A   0       1.136  -1.877  -0.797  0.00  0.00    -0.233 NA
ATOM     11  N   UNK A   0       1.533  -1.722   0.605  0.00  0.00    -0.229 NA
ATOM     12  C   UNK A   0       0.812  -0.543   1.126  0.00  0.00    +0.200 C 
ATOM     13  H   UNK A   0       0.388  -2.548  -0.889  0.00  0.00    +0.143 HD
ATOM     14  H   UNK A   0       1.308  -2.549   1.138  0.00  0.00    +0.143 HD
BRANCH   9  15
ATOM     15  C   UNK A   0      -0.264  -0.600  -2.374  0.00  0.00    -0.015 A 
ATOM     16  C   UNK A   0       0.042   0.034  -3.563  0.00  0.00    +0.006 A 
ATOM     17  C   UNK A   0      -0.834  -0.038  -4.630  0.00  0.00    +0.000 A 
ATOM     18  C   UNK A   0      -2.016  -0.745  -4.508  0.00  0.00    +0.000 A 
ATOM     19  C   UNK A   0      -2.321  -1.379  -3.318  0.00  0.00    +0.000 A 
ATOM     20  C   UNK A   0      -1.444  -1.311  -2.253  0.00  0.00    +0.006 A 
ENDBRANCH   9  15
ENDBRANCH   6  12
ENDBRANCH   5   6
ENDBRANCH   1   5
BRANCH   3  21
ATOM     21  CA  TRP A   1      -4.126  -4.248   3.551  0.00  0.00    +0.190 C 
BRANCH  21  22
ATOM     22  C   TRP A   1      -3.463  -5.332   4.362  0.00  0.00    +0.376 C 
ATOM     23  O   TRP A   1      -3.773  -5.495   5.530  0.00  0.00    -0.244 OA
ATOM     24  OXT TRP A   1      -2.618  -6.045   3.849  0.00  0.00    -0.244 OA
ENDBRANCH  21  22
BRANCH  21  25
ATOM     25  CB  TRP A   1      -5.378  -4.810   2.875  0.00  0.00    +0.067 C 
BRANCH  25  26
ATOM     26  CG  TRP A   1      -6.108  -3.699   2.166  0.00  0.00    -0.039 C 
ATOM     27  CD2 TRP A   1      -6.002  -3.359   0.861  0.00  0.00    -0.001 A 
ATOM     28  CE3 TRP A   1      -5.204  -3.901  -0.246  0.00  0.00    +0.010 A 
ATOM     29  CZ3 TRP A   1      -5.312  -3.337  -1.470  0.00  0.00    +0.001 A 
ATOM     30  CH2 TRP A   1      -6.164  -2.250  -1.708  0.00  0.00    +0.002 A 
ATOM     31  CZ2 TRP A   1      -6.928  -1.697  -0.742  0.00  0.00    +0.026 A 
ATOM     32  CE2 TRP A   1      -6.894  -2.211   0.583  0.00  0.00    +0.043 A 
ATOM     33  NE1 TRP A   1      -7.527  -1.854   1.674  0.00  0.00    -0.380 N 
ATOM     34  CD1 TRP A   1      -7.112  -2.741   2.767  0.00  0.00    +0.144 C 
ATOM     35  HE1 TRP A   1      -8.166  -1.128   1.746  0.00  0.00    +0.160 HD
ENDBRANCH  25  26
ENDBRANCH  21  25
ENDBRANCH   3  21
TORSDOF 8
