REMARK  Name = ZINC19462080
REMARK  8 active torsions:
REMARK  status: ('A' for Active; 'I' for Inactive)
REMARK    1  A    between atoms: C_1  and  C_2
REMARK    2  A    between atoms: C_9  and  N_14
REMARK    3  A    between atoms: C_15  and  C_17
REMARK    4  A    between atoms: C_17  and  C_18
REMARK    5  A    between atoms: C_17  and  C_19
REMARK    6  A    between atoms: C_17  and  N_20
REMARK    7  A    between atoms: N_20  and  S_21
REMARK    8  A    between atoms: S_21  and  C_24
REMARK                            x       y       z     vdW  Elec       q    Type
REMARK                         _______ _______ _______ _____ _____    ______ ____
ROOT
ATOM      1  N   UNL     1       2.084  -4.476   0.035  0.00  0.00    -0.284 N 
ATOM      2  C   UNL     1       3.388  -4.655  -0.254  0.00  0.00    +0.238 C 
ATOM      3  O   UNL     1       4.213  -3.864   0.151  0.00  0.00    -0.273 OA
ATOM      4  H   UNL     1       1.344  -5.230  -0.271  0.00  0.00    +0.155 HD
ENDROOT
BRANCH   1  12
ATOM      5  C   UNL     1       0.640   1.592   4.616  0.00  0.00    +0.062 C 
ATOM      6  C   UNL     1       0.872   0.162   4.122  0.00  0.00    +0.256 C 
ATOM      7  C   UNL     1       2.338  -0.173   4.226  0.00  0.00    +0.258 C 
ATOM      8  O   UNL     1       3.024   0.355   5.075  0.00  0.00    -0.271 OA
ATOM      9  N   UNL     1       2.882  -1.068   3.373  0.00  0.00    -0.279 N 
ATOM     10  C   UNL     1       2.074  -1.642   2.382  0.00  0.00    +0.077 A 
ATOM     11  C   UNL     1       2.486  -2.776   1.703  0.00  0.00    +0.050 A 
ATOM     12  C   UNL     1       1.671  -3.329   0.725  0.00  0.00    +0.035 A 
ATOM     13  C   UNL     1       0.446  -2.745   0.429  0.00  0.00    +0.027 A 
ATOM     14  C   UNL     1       0.034  -1.613   1.107  0.00  0.00    +0.049 A 
ATOM     15  C   UNL     1       0.843  -1.059   2.084  0.00  0.00    +0.143 A 
ATOM     16  O   UNL     1       0.450   0.055   2.760  0.00  0.00    -0.478 OA
ATOM     17  H   UNL     1       3.946  -1.336   3.462  0.00  0.00    +0.155 HD
ENDBRANCH   1  12
BRANCH   2  18
ATOM     18  C   UNL     1       3.821  -5.838  -1.081  0.00  0.00    +0.110 C 
ATOM     19  C   UNL     1       3.689  -5.498  -2.567  0.00  0.00    +0.039 C 
ATOM     20  C   UNL     1       5.278  -6.177  -0.763  0.00  0.00    +0.039 C 
BRANCH  18  21
ATOM     21  N   UNL     1       2.972  -6.990  -0.767  0.00  0.00    -0.175 NA
ATOM     22  H   UNL     1       2.054  -7.172  -1.346  0.00  0.00    +0.149 HD
BRANCH  21  23
ATOM     23  S   UNL     1       3.250  -7.874   0.606  0.00  0.00    +0.066 S 
ATOM     24  O   UNL     1       2.189  -8.814   0.706  0.00  0.00    -0.153 OA
ATOM     25  O   UNL     1       4.615  -8.268   0.565  0.00  0.00    -0.153 OA
BRANCH  23  26
ATOM     26  C   UNL     1       3.082  -6.778   1.974  0.00  0.00    +0.142 A 
ATOM     27  C   UNL     1       1.989  -6.521   2.734  0.00  0.00    +0.036 A 
ATOM     28  C   UNL     1       2.092  -5.614   3.772  0.00  0.00    +0.010 A 
ATOM     29  C   UNL     1       3.280  -5.000   3.993  0.00  0.00    +0.047 A 
ATOM     30  S   UNL     1       4.306  -5.710   2.716  0.00  0.00    -0.077 S 
ENDBRANCH  23  26
ENDBRANCH  21  23
ENDBRANCH  18  21
ENDBRANCH   2  18
TORSDOF 5
