REMARK  Name = ZINC04944366
REMARK  6 active torsions:
REMARK  status: ('A' for Active; 'I' for Inactive)
REMARK    1  A    between atoms: C_1  and  O_2
REMARK    2  A    between atoms: O_2  and  C_3
REMARK    3  A    between atoms: C_6  and  C_9
REMARK    4  A    between atoms: C_21  and  S_23
REMARK    5  A    between atoms: S_23  and  C_24
REMARK    6  A    between atoms: C_24  and  C_25
REMARK                            x       y       z     vdW  Elec       q    Type
REMARK                         _______ _______ _______ _____ _____    ______ ____
ROOT
ATOM      1  C   UNL     1       0.002  -0.004   0.002  0.00  0.00    +0.066 C 
ATOM      2  C   UNL     1      -0.019   1.526   0.010  0.00  0.00    +0.109 C 
ATOM      3  C   UNL     1       1.390   2.055  -0.000  0.00  0.00    +0.219 C 
ATOM      4  O   UNL     1       1.641   3.079  -0.600  0.00  0.00    -0.275 OA
ATOM      5  N   UNL     1       2.376   1.406   0.647  0.00  0.00    -0.270 N 
ATOM      6  C   UNL     1       2.119   0.226   1.323  0.00  0.00    +0.137 A 
ATOM      7  C   UNL     1       0.972  -0.498   1.041  0.00  0.00    +0.065 A 
ATOM      8  C   UNL     1       0.730  -1.688   1.733  0.00  0.00    +0.258 A 
ATOM      9  O   UNL     1      -0.271  -2.348   1.506  0.00  0.00    -0.267 OA
ATOM     10  N   UNL     1       1.628  -2.092   2.657  0.00  0.00    -0.302 N 
ATOM     11  H   UNL     1       1.475  -2.941   3.164  0.00  0.00    +0.171 HD
ATOM     12  C   UNL     1       2.741  -1.346   2.899  0.00  0.00    +0.172 A 
ATOM     13  N   UNL     1       2.973  -0.224   2.249  0.00  0.00    -0.208 NA
ATOM     14  H   UNL     1       3.275   1.770   0.640  0.00  0.00    +0.156 HD
ENDROOT
BRANCH   1  18
ATOM     15  C   UNL     1       1.215  -1.391  -3.854  0.00  0.00    +0.120 A 
ATOM     16  C   UNL     1      -0.027  -1.745  -3.347  0.00  0.00    +0.046 A 
ATOM     17  C   UNL     1      -0.417  -1.296  -2.100  0.00  0.00    +0.008 A 
ATOM     18  C   UNL     1       0.430  -0.493  -1.358  0.00  0.00    -0.039 A 
ATOM     19  C   UNL     1       1.666  -0.134  -1.863  0.00  0.00    +0.008 A 
ATOM     20  C   UNL     1       2.062  -0.586  -3.107  0.00  0.00    +0.046 A 
BRANCH  15  22
ATOM     21  C   UNL     1       2.893  -1.429  -5.538  0.00  0.00    +0.277 C 
ATOM     22  O   UNL     1       1.601  -1.833  -5.080  0.00  0.00    -0.495 OA
ENDBRANCH  15  22
ENDBRANCH   1  18
BRANCH  12  23
ATOM     23  S   UNL     1       3.898  -1.893   4.110  0.00  0.00    -0.075 S 
BRANCH  23  24
ATOM     24  C   UNL     1       5.119  -0.561   4.003  0.00  0.00    +0.165 C 
BRANCH  24  25
ATOM     25  C   UNL     1       6.210  -0.818   4.957  0.00  0.00    -0.094 C 
ATOM     26  C   UNL     1       7.081  -1.022   5.718  0.00  0.00    +0.004 C 
ENDBRANCH  24  25
ENDBRANCH  23  24
ENDBRANCH  12  23
TORSDOF 5
