REMARK  Name = ZINC40569206
REMARK  15 active torsions:
REMARK  status: ('A' for Active; 'I' for Inactive)
REMARK    1  A    between atoms: C_1  and  C_2
REMARK    2  A    between atoms: C_2  and  C_3
REMARK    3  A    between atoms: C_3  and  C_4
REMARK    4  A    between atoms: N_10  and  C_11
REMARK    5  A    between atoms: C_11  and  C_12
REMARK    6  A    between atoms: C_12  and  O_13
REMARK    7  A    between atoms: C_14  and  C_22
REMARK    8  A    between atoms: C_16  and  C_20
REMARK    9  A    between atoms: C_17  and  N_19
REMARK   10  A    between atoms: C_24  and  O_32
REMARK   11  A    between atoms: C_25  and  O_30
REMARK   12  A    between atoms: C_27  and  O_28
REMARK   13  A    between atoms: O_28  and  C_29
REMARK   14  A    between atoms: O_30  and  C_31
REMARK   15  A    between atoms: O_32  and  C_33
REMARK                            x       y       z     vdW  Elec       q    Type
REMARK                         _______ _______ _______ _____ _____    ______ ____
ROOT
ATOM      1  C   UNL     1      -1.289  -1.834   0.126  0.00  0.00    +0.026 A 
ATOM      2  C   UNL     1      -1.449  -2.303   1.381  0.00  0.00    +0.068 A 
ATOM      3  C   UNL     1      -1.593  -3.689   1.598  0.00  0.00    +0.141 A 
ATOM      4  C   UNL     1      -1.568  -4.541   0.514  0.00  0.00    +0.072 A 
ATOM      5  C   UNL     1      -1.399  -4.008  -0.771  0.00  0.00    +0.259 A 
ATOM      6  O   UNL     1      -1.375  -4.750  -1.740  0.00  0.00    -0.267 OA
ATOM      7  N   UNL     1      -1.270  -2.679  -0.938  0.00  0.00    -0.310 N 
ATOM      8  C   UNL     1      -1.720  -6.026   0.699  0.00  0.00    +0.107 C 
ATOM      9  C   UNL     1      -1.488  -6.394   2.138  0.00  0.00    +0.098 C 
ATOM     10  C   UNL     1      -1.518  -5.459   3.116  0.00  0.00    +0.199 C 
ATOM     11  O   UNL     1      -1.754  -4.162   2.852  0.00  0.00    -0.441 OA
ENDROOT
BRANCH   8  12
ATOM     12  C   UNL     1      -3.112  -6.439   0.298  0.00  0.00    +0.011 A 
ATOM     13  C   UNL     1      -4.207  -5.901   0.949  0.00  0.00    +0.057 A 
ATOM     14  C   UNL     1      -5.487  -6.279   0.582  0.00  0.00    +0.162 A 
ATOM     15  C   UNL     1      -5.673  -7.202  -0.444  0.00  0.00    +0.165 A 
ATOM     16  C   UNL     1      -4.575  -7.740  -1.095  0.00  0.00    +0.095 A 
ATOM     17  C   UNL     1      -3.294  -7.355  -0.728  0.00  0.00    +0.128 A 
BRANCH  17  18
ATOM     18  O   UNL     1      -2.217  -7.879  -1.370  0.00  0.00    -0.495 OA
ATOM     19  C   UNL     1      -2.478  -8.816  -2.416  0.00  0.00    +0.277 C 
ENDBRANCH  17  18
BRANCH  15  20
ATOM     20  O   UNL     1      -6.929  -7.575  -0.805  0.00  0.00    -0.491 OA
ATOM     21  C   UNL     1      -7.044  -8.526  -1.865  0.00  0.00    +0.277 C 
ENDBRANCH  15  20
BRANCH  14  22
ATOM     22  O   UNL     1      -6.564  -5.749   1.223  0.00  0.00    -0.491 OA
ATOM     23  C   UNL     1      -6.300  -4.808   2.266  0.00  0.00    +0.277 C 
ENDBRANCH  14  22
ENDBRANCH   8  12
BRANCH  10  24
ATOM     24  N   UNL     1      -1.301  -5.846   4.415  0.00  0.00    -0.328 N 
ATOM     25  H   UNL     1      -1.130  -6.778   4.621  0.00  0.00    +0.145 HD
ATOM     26  H   UNL     1      -1.319  -5.187   5.127  0.00  0.00    +0.145 HD
ENDBRANCH  10  24
BRANCH   9  27
ATOM     27  C   UNL     1      -1.232  -7.761   2.481  0.00  0.00    +0.101 C 
ATOM     28  N   UNL     1      -1.030  -8.845   2.752  0.00  0.00    -0.191 NA
ENDBRANCH   9  27
BRANCH   1  29
ATOM     29  C   UNL     1      -1.135  -0.352  -0.100  0.00  0.00    +0.053 C 
BRANCH  29  31
ATOM     30  C   UNL     1      -2.369   1.792  -0.457  0.00  0.00    +0.004 C 
ATOM     31  C   UNL     1      -2.512   0.273  -0.337  0.00  0.00    +0.003 C 
ENDBRANCH  29  31
ENDBRANCH   1  29
BRANCH   7  32
ATOM     32  C   UNL     1      -1.100  -2.135  -2.288  0.00  0.00    +0.153 C 
BRANCH  32  33
ATOM     33  C   UNL     1       0.392  -2.003  -2.600  0.00  0.00    +0.177 C 
BRANCH  33  34
ATOM     34  O   UNL     1       0.987  -3.302  -2.643  0.00  0.00    -0.393 OA
ATOM     35  H   UNL     1       1.934  -3.295  -2.836  0.00  0.00    +0.209 HD
ENDBRANCH  33  34
ENDBRANCH  32  33
ENDBRANCH   7  32
TORSDOF 11
