REMARK  Name = ZINC55166967
REMARK  8 active torsions:
REMARK  status: ('A' for Active; 'I' for Inactive)
REMARK    1  A    between atoms: C_1  and  C_2
REMARK    2  A    between atoms: C_2  and  C_3
REMARK    3  A    between atoms: C_2  and  C_4
REMARK    4  A    between atoms: C_2  and  C_5
REMARK    5  A    between atoms: C_8  and  C_11
REMARK    6  A    between atoms: C_11  and  N_12
REMARK    7  A    between atoms: N_12  and  C_13
REMARK    8  A    between atoms: C_14  and  C_16
REMARK                            x       y       z     vdW  Elec       q    Type
REMARK                         _______ _______ _______ _____ _____    ______ ____
ROOT
ATOM      1  N   UNL     1       2.400  -0.839  -5.935  0.00  0.00    -0.294 N 
ATOM      2  C   UNL     1       3.151   0.358  -6.322  0.00  0.00    +0.133 C 
ATOM      3  C   UNL     1       1.423  -1.310  -6.735  0.00  0.00    +0.286 C 
ATOM      4  O   UNL     1       0.736  -2.244  -6.370  0.00  0.00    -0.267 OA
ENDROOT
BRANCH   3   5
ATOM      5  C   UNL     1       1.187  -0.691  -8.057  0.00  0.00    +0.238 A 
ATOM      6  N   UNL     1       0.173  -0.983  -8.887  0.00  0.00    -0.190 NA
ATOM      7  C   UNL     1       0.264  -0.250  -9.972  0.00  0.00    +0.209 A 
ATOM      8  N   UNL     1       1.357   0.539  -9.855  0.00  0.00    -0.246 N 
ATOM      9  H   UNL     1       1.677   1.187 -10.502  0.00  0.00    +0.192 HD
ATOM     10  N   UNL     1       1.933   0.241  -8.609  0.00  0.00    -0.146 NA
ATOM     11  N   UNL     1      -0.605  -0.279 -11.047  0.00  0.00    -0.328 N 
ATOM     12  H   UNL     1      -1.365  -0.881 -11.040  0.00  0.00    +0.145 HD
ATOM     13  H   UNL     1      -0.455   0.303 -11.808  0.00  0.00    +0.145 HD
ENDBRANCH   3   5
BRANCH   1  14
ATOM     14  C   UNL     1       2.712  -1.524  -4.678  0.00  0.00    +0.143 C 
BRANCH  14  18
ATOM     15  C   UNL     1       0.330   0.113  -1.533  0.00  0.00    -0.042 A 
ATOM     16  C   UNL     1      -0.140  -0.958  -2.270  0.00  0.00    +0.004 A 
ATOM     17  C   UNL     1       0.630  -1.488  -3.288  0.00  0.00    +0.005 A 
ATOM     18  C   UNL     1       1.871  -0.946  -3.569  0.00  0.00    -0.030 A 
ATOM     19  C   UNL     1       2.341   0.125  -2.832  0.00  0.00    +0.005 A 
ATOM     20  C   UNL     1       1.568   0.657  -1.817  0.00  0.00    +0.004 A 
BRANCH  15  22
ATOM     21  C   UNL     1      -0.813   2.159  -0.724  0.00  0.00    +0.015 C 
ATOM     22  C   UNL     1      -0.511   0.690  -0.423  0.00  0.00    -0.013 C 
ATOM     23  C   UNL     1       0.251   0.587   0.900  0.00  0.00    +0.015 C 
ATOM     24  C   UNL     1      -1.823  -0.090  -0.318  0.00  0.00    +0.015 C 
ENDBRANCH  15  22
ENDBRANCH  14  18
ENDBRANCH   1  14
TORSDOF 4
