REMARK  Name = ZINC38791250
REMARK  6 active torsions:
REMARK  status: ('A' for Active; 'I' for Inactive)
REMARK    1  A    between atoms: C_1  and  C_2
REMARK    2  A    between atoms: C_5  and  O_8
REMARK    3  A    between atoms: O_8  and  C_9
REMARK    4  A    between atoms: C_12  and  N_15
REMARK    5  A    between atoms: C_16  and  C_18
REMARK    6  A    between atoms: C_23  and  C_25
REMARK                            x       y       z     vdW  Elec       q    Type
REMARK                         _______ _______ _______ _____ _____    ______ ____
ROOT
ATOM      1  N   UNL     1      -0.254  -6.928   4.737  0.00  0.00    -0.282 N 
ATOM      2  C   UNL     1      -0.120  -8.270   4.739  0.00  0.00    +0.247 C 
ATOM      3  O   UNL     1      -0.021  -8.874   3.687  0.00  0.00    -0.270 OA
ATOM      4  H   UNL     1      -0.419  -6.456   5.567  0.00  0.00    +0.155 HD
ENDROOT
BRANCH   2   5
ATOM      5  C   UNL     1      -0.093  -8.975   5.965  0.00  0.00    +0.051 C 
ATOM      6  H   UNL     1       0.110 -11.572   7.755  0.00  0.00    +0.170 HD
ATOM      7  C   UNL     1       0.040 -10.306   6.121  0.00  0.00    +0.098 C 
ATOM      8  N   UNL     1       0.028 -10.662   7.432  0.00  0.00    -0.269 N 
ATOM      9  N   UNL     1      -0.122  -9.538   8.255  0.00  0.00    -0.228 N 
ATOM     10  C   UNL     1      -0.203  -8.378   7.351  0.00  0.00    +0.129 C 
ATOM     11  C   UNL     1       0.954  -7.412   7.611  0.00  0.00    +0.035 C 
ATOM     12  C   UNL     1      -0.177  -9.520   9.648  0.00  0.00    +0.158 A 
ATOM     13  C   UNL     1      -0.071 -10.727  10.367  0.00  0.00    +0.052 A 
ATOM     14  C   UNL     1      -0.125 -10.709  11.725  0.00  0.00    +0.075 A 
ATOM     15  C   UNL     1      -0.286  -9.478  12.393  0.00  0.00    +0.265 A 
ATOM     16  O   UNL     1      -0.336  -9.442  13.613  0.00  0.00    -0.266 OA
ATOM     17  N   UNL     1      -0.384  -8.340  11.676  0.00  0.00    -0.241 N 
ATOM     18  H   UNL     1      -0.495  -7.490  12.131  0.00  0.00    +0.192 HD
ATOM     19  N   UNL     1      -0.321  -8.380  10.279  0.00  0.00    -0.154 NA
ENDBRANCH   2   5
BRANCH   1  23
ATOM     20  C   UNL     1       0.040  -4.811   1.157  0.00  0.00    +0.129 A 
ATOM     21  C   UNL     1      -0.697  -4.292   2.212  0.00  0.00    +0.048 A 
ATOM     22  C   UNL     1      -0.795  -4.992   3.397  0.00  0.00    +0.027 A 
ATOM     23  C   UNL     1      -0.156  -6.218   3.534  0.00  0.00    +0.034 A 
ATOM     24  C   UNL     1       0.582  -6.737   2.479  0.00  0.00    +0.027 A 
ATOM     25  C   UNL     1       0.675  -6.037   1.292  0.00  0.00    +0.048 A 
BRANCH  20  26
ATOM     26  O   UNL     1       0.136  -4.120  -0.010  0.00  0.00    -0.456 OA
BRANCH  26  31
ATOM     27  C   UNL     1       2.763  -6.593  -4.335  0.00  0.00    +0.044 C 
ATOM     28  C   UNL     1       2.060  -5.931  -3.178  0.00  0.00    -0.050 A 
ATOM     29  C   UNL     1       2.604  -4.801  -2.595  0.00  0.00    +0.007 A 
ATOM     30  C   UNL     1       1.961  -4.193  -1.534  0.00  0.00    +0.046 A 
ATOM     31  C   UNL     1       0.770  -4.717  -1.054  0.00  0.00    +0.128 A 
ATOM     32  C   UNL     1       0.226  -5.851  -1.640  0.00  0.00    +0.046 A 
ATOM     33  C   UNL     1       0.870  -6.452  -2.705  0.00  0.00    +0.007 A 
ENDBRANCH  26  31
ENDBRANCH  20  26
ENDBRANCH   1  23
TORSDOF 4
