REMARK  Name = ZINC03438035
REMARK  6 active torsions:
REMARK  status: ('A' for Active; 'I' for Inactive)
REMARK    1  A    between atoms: C_1  and  C_2
REMARK    2  A    between atoms: C_4  and  C_11
REMARK    3  A    between atoms: C_7  and  N_8
REMARK    4  A    between atoms: N_13  and  C_14
REMARK    5  A    between atoms: C_14  and  C_15
REMARK    6  A    between atoms: C_15  and  C_16
REMARK                            x       y       z     vdW  Elec       q    Type
REMARK                         _______ _______ _______ _____ _____    ______ ____
ROOT
ATOM      1  C   UNL     1       0.059   1.569  -2.525  0.00  0.00    +0.244 C 
ATOM      2  O   UNL     1       1.160   1.094  -2.728  0.00  0.00    -0.270 OA
ATOM      3  N   UNL     1      -0.354   1.794  -1.262  0.00  0.00    -0.311 N 
ATOM      4  H   UNL     1      -1.233   2.172  -1.100  0.00  0.00    +0.149 HD
ENDROOT
BRANCH   1   8
ATOM      5  C   UNL     1      -0.772   1.726  -7.443  0.00  0.00    +0.046 C 
ATOM      6  C   UNL     1      -1.230   1.975  -6.029  0.00  0.00    -0.020 A 
ATOM      7  C   UNL     1      -0.399   1.666  -4.971  0.00  0.00    +0.018 A 
ATOM      8  C   UNL     1      -0.825   1.898  -3.663  0.00  0.00    +0.037 A 
ATOM      9  C   UNL     1      -2.092   2.437  -3.433  0.00  0.00    +0.015 A 
ATOM     10  C   UNL     1      -2.910   2.747  -4.499  0.00  0.00    +0.034 A 
ATOM     11  C   UNL     1      -2.482   2.514  -5.794  0.00  0.00    +0.129 A 
BRANCH  11  12
ATOM     12  N   UNL     1      -3.368   2.843  -6.933  0.00  0.00    +0.057 N 
ATOM     13  O   UNL     1      -4.077   3.832  -6.887  0.00  0.00    -0.126 OA
ATOM     14  O   UNL     1      -3.388   2.125  -7.917  0.00  0.00    -0.126 OA
ENDBRANCH  11  12
ENDBRANCH   1   8
BRANCH   3  15
ATOM     15  C   UNL     1       0.522   1.468  -0.135  0.00  0.00    +0.109 C 
BRANCH  15  16
ATOM     16  C   UNL     1      -0.183   1.818   1.177  0.00  0.00    +0.055 C 
BRANCH  16  17
ATOM     17  C   UNL     1       0.719   1.482   2.337  0.00  0.00    -0.027 A 
ATOM     18  C   UNL     1       1.446   2.480   2.959  0.00  0.00    +0.006 A 
ATOM     19  C   UNL     1       2.273   2.173   4.023  0.00  0.00    +0.020 A 
ATOM     20  C   UNL     1       2.373   0.866   4.467  0.00  0.00    +0.042 A 
ATOM     21  C   UNL     1       1.645  -0.133   3.845  0.00  0.00    +0.040 A 
ATOM     22  C   UNL     1       0.814   0.176   2.784  0.00  0.00    +0.046 A 
ATOM     23 CL   UNL     1      -0.105  -1.076   2.007  0.00  0.00    -0.083 Cl
ATOM     24 CL   UNL     1       3.412   0.480   5.803  0.00  0.00    -0.083 Cl
ENDBRANCH  16  17
ENDBRANCH  15  16
ENDBRANCH   3  15
TORSDOF 5
