REMARK  Name = ZINC12889473
REMARK  14 active torsions:
REMARK  status: ('A' for Active; 'I' for Inactive)
REMARK    1  A    between atoms: CD1_1  and  CG_2
REMARK    2  A    between atoms: CG_2  and  CD2_3
REMARK    3  A    between atoms: CG_2  and  CB_4
REMARK    4  A    between atoms: CB_4  and  CA_5
REMARK    5  A    between atoms: CA_5  and  C_7
REMARK    6  A    between atoms: CA_5  and  N_9
REMARK    7  A    between atoms: C_10  and  CA_12
REMARK    8  A    between atoms: CA_12  and  CB_14
REMARK    9  A    between atoms: CA_12  and  N_17
REMARK   10  A    between atoms: CB_14  and  CG1_15
REMARK   11  A    between atoms: CB_14  and  CG2_16
REMARK   12  A    between atoms: C_18  and  C_20
REMARK   13  A    between atoms: C_22  and  C_35
REMARK   14  A    between atoms: C_22  and  C_36
REMARK                            x       y       z     vdW  Elec       q    Type
REMARK                         _______ _______ _______ _____ _____    ______ ____
ROOT
ATOM      1  N   VAL A   1      -6.773   1.450  -1.925  0.00  0.00    -0.302 N 
ATOM      2  C   UNK A   0      -5.508   1.702  -1.536  0.00  0.00    +0.236 C 
ATOM      3  O   UNK A   0      -4.621   0.923  -1.816  0.00  0.00    -0.274 OA
ATOM      4  H   VAL A   1      -7.482   2.073  -1.702  0.00  0.00    +0.150 HD
ENDROOT
BRANCH   2   5
ATOM      5  C   UNK A   0      -5.194   2.951  -0.753  0.00  0.00    +0.179 C 
ATOM      6  C   UNK A   0      -5.236   4.162  -1.715  0.00  0.00    +0.040 C 
ATOM      7  S   UNK A   0      -3.614   4.969  -1.365  0.00  0.00    -0.125 S 
ATOM      8  C   UNK A   0      -3.269   4.093   0.230  0.00  0.00    +0.167 C 
ATOM      9  N   UNK A   0      -3.902   2.776  -0.089  0.00  0.00    -0.269 N 
ATOM     10  C   UNK A   0      -3.033   1.837   0.343  0.00  0.00    +0.249 C 
ATOM     11  O   UNK A   0      -3.322   0.688   0.615  0.00  0.00    -0.270 OA
ATOM     12  C   UNK A   0      -1.679   2.417   0.436  0.00  0.00    +0.043 A 
ATOM     13  C   UNK A   0      -1.799   3.809   0.351  0.00  0.00    -0.005 A 
ATOM     14  C   UNK A   0      -0.677   4.604   0.399  0.00  0.00    +0.007 A 
ATOM     15  C   UNK A   0       0.574   4.029   0.549  0.00  0.00    +0.000 A 
ATOM     16  C   UNK A   0       0.701   2.655   0.652  0.00  0.00    +0.001 A 
ATOM     17  C   UNK A   0      -0.416   1.848   0.598  0.00  0.00    +0.013 A 
ATOM     18  C   UNK A   0      -5.317   3.703  -3.172  0.00  0.00    +0.025 C 
ATOM     19  C   UNK A   0      -6.399   5.095  -1.372  0.00  0.00    +0.025 C 
ENDBRANCH   2   5
BRANCH   1  20
ATOM     20  CA  VAL A   1      -7.078   0.236  -2.687  0.00  0.00    +0.161 C 
BRANCH  20  22
ATOM     21  N   VAL A   1      -8.517  -0.243  -4.640  0.00  0.00    -0.301 N 
ATOM     22  C   VAL A   1      -8.325   0.455  -3.503  0.00  0.00    +0.234 C 
ATOM     23  O   VAL A   1      -9.157   1.259  -3.138  0.00  0.00    -0.274 OA
ATOM     24  H   VAL A   1      -7.891  -0.939  -4.894  0.00  0.00    +0.150 HD
BRANCH  21  25
ATOM     25  CA  VAL A   1      -9.672   0.050  -5.493  0.00  0.00    +0.186 C 
BRANCH  25  26
ATOM     26  C   VAL A   1     -10.872  -0.713  -4.994  0.00  0.00    +0.376 C 
ATOM     27  O   VAL A   1     -10.773  -1.427  -4.024  0.00  0.00    -0.244 OA
ATOM     28  OXT VAL A   1     -12.051  -0.598  -5.625  0.00  0.00    -0.244 OA
ENDBRANCH  25  26
BRANCH  25  29
ATOM     29  CB  VAL A   1      -9.363  -0.370  -6.932  0.00  0.00    +0.037 C 
BRANCH  29  31
ATOM     30  CD1 VAL A   1      -7.832  -0.010  -8.873  0.00  0.00    +0.007 C 
ATOM     31  CG  VAL A   1      -8.225   0.491  -7.482  0.00  0.00    -0.015 C 
ATOM     32  CD2 VAL A   1      -8.687   1.947  -7.576  0.00  0.00    +0.007 C 
ENDBRANCH  29  31
ENDBRANCH  25  29
ENDBRANCH  21  25
ENDBRANCH  20  22
BRANCH  20  33
ATOM     33  CB  VAL A   1      -7.299  -0.929  -1.720  0.00  0.00    +0.012 C 
ATOM     34  CG1 VAL A   1      -8.546  -0.662  -0.875  0.00  0.00    +0.009 C 
ATOM     35  CG2 VAL A   1      -7.490  -2.222  -2.516  0.00  0.00    +0.009 C 
ENDBRANCH  20  33
ENDBRANCH   1  20
TORSDOF 8
