REMARK  Name = ZINC11966021
REMARK  7 active torsions:
REMARK  status: ('A' for Active; 'I' for Inactive)
REMARK    1  A    between atoms: C_1  and  C_2
REMARK    2  A    between atoms: C_5  and  C_11
REMARK    3  A    between atoms: C_11  and  C_12
REMARK    4  A    between atoms: C_25  and  C_26
REMARK    5  A    between atoms: C_25  and  N_66
REMARK    6  A    between atoms: C_26  and  C_27
REMARK    7  A    between atoms: C_27  and  C_28
REMARK                            x       y       z     vdW  Elec       q    Type
REMARK                         _______ _______ _______ _____ _____    ______ ____
ROOT
ATOM      1  C   UNL     1      -1.137   0.516   2.382  0.00  0.00    +0.218 C 
ATOM      2  O   UNL     1      -1.605   0.814   1.304  0.00  0.00    -0.276 OA
ATOM      3  N   UNL     1       0.061  -0.099   2.450  0.00  0.00    -0.298 N 
ATOM      4  C   UNL     1       0.618  -0.516   3.745  0.00  0.00    +0.108 C 
ATOM      5  C   UNL     1       2.029   0.063   3.886  0.00  0.00    +0.019 C 
ATOM      6  C   UNL     1       2.870  -0.347   2.675  0.00  0.00    +0.005 C 
ATOM      7  C   UNL     1       2.240   0.225   1.401  0.00  0.00    -0.007 C 
ATOM      8  C   UNL     1       0.836  -0.365   1.232  0.00  0.00    +0.076 C 
ATOM      9  C   UNL     1       0.146   0.280   0.030  0.00  0.00    +0.004 C 
ATOM     10  C   UNL     1       0.110   1.799   0.215  0.00  0.00    -0.077 C 
ATOM     11  C   UNL     1       2.140   1.746   1.533  0.00  0.00    -0.074 C 
ATOM     12  N   UNL     1       1.497   2.297   0.323  0.00  0.00    +0.380 N 
ATOM     13  H   UNL     1       2.026   1.992  -0.503  0.00  0.00    -0.082 HD
ENDROOT
BRANCH   1  14
ATOM     14  C   UNL     1      -1.894   0.832   3.647  0.00  0.00    +0.118 C 
BRANCH  14  18
ATOM     15  C   UNL     1      -5.099   3.810   3.381  0.00  0.00    +0.028 C 
ATOM     16  C   UNL     1      -5.295   2.535   4.204  0.00  0.00    +0.071 C 
ATOM     17  C   UNL     1      -3.928   1.951   4.578  0.00  0.00    +0.044 C 
ATOM     18  C   UNL     1      -3.212   1.524   3.292  0.00  0.00    +0.082 C 
ATOM     19  N   UNL     1      -4.068   0.596   2.551  0.00  0.00    -0.323 N 
ATOM     20  C   UNL     1      -5.404   0.656   2.641  0.00  0.00    +0.131 C 
ATOM     21  S   UNL     1      -6.341  -0.453   1.734  0.00  0.00    -0.019 S 
ATOM     22  N   UNL     1      -6.037   1.552   3.414  0.00  0.00    -0.324 N 
ATOM     23  H   UNL     1      -3.659  -0.077   1.984  0.00  0.00    +0.148 HD
ATOM     24  H   UNL     1      -7.006   1.548   3.450  0.00  0.00    +0.148 HD
ENDBRANCH  14  18
ENDBRANCH   1  14
BRANCH  12  25
ATOM     25  C   UNL     1       1.500   3.774   0.377  0.00  0.00    -0.079 C 
BRANCH  25  26
ATOM     26  C   UNL     1       0.808   4.266   1.649  0.00  0.00    -0.014 C 
BRANCH  26  27
ATOM     27  C   UNL     1       0.827   5.796   1.681  0.00  0.00    +0.033 C 
BRANCH  27  28
ATOM     28  C   UNL     1       0.144   6.281   2.934  0.00  0.00    -0.047 A 
ATOM     29  C   UNL     1      -1.215   6.534   2.927  0.00  0.00    +0.003 A 
ATOM     30  C   UNL     1      -1.841   6.974   4.078  0.00  0.00    +0.000 A 
ATOM     31  C   UNL     1      -1.107   7.170   5.233  0.00  0.00    +0.000 A 
ATOM     32  C   UNL     1       0.253   6.923   5.238  0.00  0.00    +0.000 A 
ATOM     33  C   UNL     1       0.879   6.478   4.088  0.00  0.00    +0.003 A 
ENDBRANCH  27  28
ENDBRANCH  26  27
ENDBRANCH  25  26
ENDBRANCH  12  25
TORSDOF 6
