REMARK  Name = ZINC03770038
REMARK  10 active torsions:
REMARK  status: ('A' for Active; 'I' for Inactive)
REMARK    1  A    between atoms: C_1  and  O_2
REMARK    2  A    between atoms: O_2  and  C_3
REMARK    3  A    between atoms: C_3  and  C_5
REMARK    4  A    between atoms: C_5  and  C_6
REMARK    5  A    between atoms: C_11  and  N_37
REMARK    6  A    between atoms: C_12  and  C_35
REMARK    7  A    between atoms: C_13  and  C_28
REMARK    8  A    between atoms: C_15  and  C_18
REMARK    9  A    between atoms: N_20  and  C_21
REMARK   10  A    between atoms: C_21  and  C_22
REMARK                            x       y       z     vdW  Elec       q    Type
REMARK                         _______ _______ _______ _____ _____    ______ ____
ROOT
ATOM      1  C   UNL     1      -2.453   5.626   0.419  0.00  0.00    +0.150 C 
ATOM      2  C   UNL     1      -2.472   4.120   0.285  0.00  0.00    +0.239 C 
ATOM      3  O   UNL     1      -3.514   3.500   0.295  0.00  0.00    -0.274 OA
ATOM      4  N   UNL     1      -1.284   3.492   0.155  0.00  0.00    -0.220 N 
ATOM      5  C   UNL     1      -1.188   2.099   0.019  0.00  0.00    +0.110 C 
ATOM      6  C   UNL     1      -0.021   1.433  -0.108  0.00  0.00    +0.077 C 
ATOM      7  C   UNL     1       1.272   2.223  -0.118  0.00  0.00    +0.100 C 
ATOM      8  C   UNL     1       1.125   3.724   0.025  0.00  0.00    +0.055 C 
ATOM      9  C   UNL     1      -0.123   4.244   0.150  0.00  0.00    +0.086 C 
ATOM     10  S   UNL     1      -0.647   5.939   0.334  0.00  0.00    -0.096 S 
ENDROOT
BRANCH   7  11
ATOM     11  C   UNL     1       1.985   1.944  -1.416  0.00  0.00    -0.032 A 
ATOM     12  C   UNL     1       3.248   1.383  -1.404  0.00  0.00    +0.005 A 
ATOM     13  C   UNL     1       3.903   1.126  -2.594  0.00  0.00    +0.003 A 
ATOM     14  C   UNL     1       3.296   1.432  -3.798  0.00  0.00    +0.038 A 
ATOM     15  C   UNL     1       2.031   1.995  -3.811  0.00  0.00    +0.124 A 
ATOM     16  C   UNL     1       1.374   2.246  -2.618  0.00  0.00    +0.043 A 
ATOM     17  F   UNL     1       1.437   2.293  -4.987  0.00  0.00    -0.205 F 
ENDBRANCH   7  11
BRANCH   8  18
ATOM     18  C   UNL     1       2.255   4.559   0.030  0.00  0.00    +0.244 C 
ATOM     19  O   UNL     1       2.121   5.766   0.146  0.00  0.00    -0.270 OA
ATOM     20  N   UNL     1       3.487   4.027  -0.094  0.00  0.00    -0.307 N 
ATOM     21  H   UNL     1       3.594   3.068  -0.186  0.00  0.00    +0.149 HD
BRANCH  20  22
ATOM     22  C   UNL     1       4.665   4.899  -0.089  0.00  0.00    +0.139 C 
BRANCH  22  23
ATOM     23  C   UNL     1       5.909   4.062  -0.241  0.00  0.00    -0.030 A 
ATOM     24  C   UNL     1       6.557   3.576   0.879  0.00  0.00    +0.005 A 
ATOM     25  C   UNL     1       7.695   2.805   0.740  0.00  0.00    +0.000 A 
ATOM     26  C   UNL     1       8.192   2.527  -0.520  0.00  0.00    +0.000 A 
ATOM     27  C   UNL     1       7.547   3.017  -1.640  0.00  0.00    +0.000 A 
ATOM     28  C   UNL     1       6.406   3.784  -1.501  0.00  0.00    +0.005 A 
ENDBRANCH  22  23
ENDBRANCH  20  22
ENDBRANCH   8  18
BRANCH   5  29
ATOM     29  N   UNL     1      -2.352   1.369   0.021  0.00  0.00    -0.345 N 
ATOM     30  H   UNL     1      -2.356   0.464   0.371  0.00  0.00    +0.144 HD
ATOM     31  H   UNL     1      -3.169   1.757  -0.328  0.00  0.00    +0.144 HD
ENDBRANCH   5  29
BRANCH   6  32
ATOM     32  C   UNL     1      -0.005   0.007  -0.237  0.00  0.00    +0.099 C 
ATOM     33  N   UNL     1       0.007  -1.124  -0.340  0.00  0.00    -0.191 NA
ENDBRANCH   6  32
BRANCH   1  34
ATOM     34  C   UNL     1      -3.031   6.071   1.763  0.00  0.00    +0.144 C 
BRANCH  34  35
ATOM     35  C   UNL     1      -2.933   7.571   1.880  0.00  0.00    +0.308 C 
ATOM     36  O   UNL     1      -2.450   8.216   0.980  0.00  0.00    -0.251 OA
BRANCH  35  38
ATOM     37  C   UNL     1      -3.255   9.634   3.027  0.00  0.00    +0.280 C 
ATOM     38  O   UNL     1      -3.381   8.189   2.984  0.00  0.00    -0.468 OA
ENDBRANCH  35  38
ENDBRANCH  34  35
ENDBRANCH   1  34
TORSDOF 9
