REMARK  Name = ZINC42896062
REMARK  9 active torsions:
REMARK  status: ('A' for Active; 'I' for Inactive)
REMARK    1  A    between atoms: C_1  and  C_2
REMARK    2  A    between atoms: C_8  and  N_10
REMARK    3  A    between atoms: N_13  and  C_14
REMARK    4  A    between atoms: C_14  and  C_16
REMARK    5  A    between atoms: C_14  and  C_18
REMARK    6  A    between atoms: C_16  and  O_17
REMARK    7  A    between atoms: C_18  and  C_20
REMARK    8  A    between atoms: C_18  and  O_29
REMARK    9  A    between atoms: C_23  and  N_26
REMARK                            x       y       z     vdW  Elec       q    Type
REMARK                         _______ _______ _______ _____ _____    ______ ____
ROOT
ATOM      1  C   UNK A   1       4.784   0.757   3.648  0.00  0.00    +0.133 C 
ENDROOT
BRANCH   1   5
ATOM      2  N   UNK A   0       1.872   0.096   1.503  0.00  0.00    -0.296 N 
ATOM      3  C   UNK A   0       2.655   0.217   2.593  0.00  0.00    +0.300 C 
ATOM      4  O   UNK A   0       2.209  -0.043   3.694  0.00  0.00    -0.253 OA
ATOM      5  N   UNK A   1       3.933   0.626   2.463  0.00  0.00    -0.292 N 
ATOM      6  H   UNK A   0       2.228   0.304   0.625  0.00  0.00    +0.151 HD
ATOM      7  H   UNK A   1       4.288   0.833   1.585  0.00  0.00    +0.151 HD
BRANCH   2  14
ATOM      8  C   UNK A   0      -0.295   1.699   0.443  0.00  0.00    +0.009 C 
ATOM      9  C   UNK A   0      -0.341   0.170   0.464  0.00  0.00    +0.006 C 
ATOM     10  C   UNK A   0      -1.791  -0.294   0.612  0.00  0.00    +0.005 C 
ATOM     11  C   UNK A   0      -1.838  -1.823   0.634  0.00  0.00    +0.000 C 
ATOM     12  C   UNK A   0      -1.014  -2.342   1.814  0.00  0.00    +0.002 C 
ATOM     13  C   UNK A   0       0.437  -1.878   1.666  0.00  0.00    +0.022 C 
ATOM     14  C   UNK A   0       0.483  -0.348   1.644  0.00  0.00    +0.077 C 
ENDBRANCH   2  14
ENDBRANCH   1   5
BRANCH   1  15
ATOM     15  C   UNK A   1       5.407  -0.601   3.981  0.00  0.00    +0.181 C 
BRANCH  15  16
ATOM     16  O   UNK A   1       6.276  -1.000   2.919  0.00  0.00    -0.393 OA
ATOM     17  H   UNK A   1       6.707  -1.853   3.063  0.00  0.00    +0.209 HD
ENDBRANCH  15  16
ENDBRANCH   1  15
BRANCH   1  18
ATOM     18  C   UNK A   1       5.894   1.772   3.368  0.00  0.00    +0.167 C 
BRANCH  18  19
ATOM     19  C   UNK A   1       5.284   3.126   3.113  0.00  0.00    -0.017 A 
ATOM     20  C   UNK A   1       4.979   3.958   4.174  0.00  0.00    +0.008 A 
ATOM     21  C   UNK A   1       4.419   5.200   3.940  0.00  0.00    +0.033 A 
ATOM     22  C   UNK A   1       4.164   5.610   2.645  0.00  0.00    +0.126 A 
ATOM     23  C   UNK A   1       4.470   4.779   1.584  0.00  0.00    +0.033 A 
ATOM     24  C   UNK A   1       5.034   3.538   1.818  0.00  0.00    +0.008 A 
BRANCH  22  25
ATOM     25  N   UNK A   1       3.564   6.940   2.394  0.00  0.00    +0.056 N 
ATOM     26  O   UNK A   1       3.296   7.667   3.322  0.00  0.00    -0.126 OA
ATOM     27  O   UNK A   1       3.341   7.298   1.261  0.00  0.00    -0.126 OA
ENDBRANCH  22  25
ENDBRANCH  18  19
BRANCH  18  28
ATOM     28  O   UNK A   1       6.766   1.848   4.498  0.00  0.00    -0.385 OA
ATOM     29  H   UNK A   1       6.313   2.032   5.333  0.00  0.00    +0.210 HD
ENDBRANCH  18  28
ENDBRANCH   1  18
TORSDOF 8
