REMARK  Name = ZINC37129245
REMARK  4 active torsions:
REMARK  status: ('A' for Active; 'I' for Inactive)
REMARK    1  A    between atoms: C_1  and  C_2
REMARK    2  A    between atoms: C_4  and  C_7
REMARK    3  A    between atoms: C_7  and  N_8
REMARK    4  A    between atoms: N_8  and  C_9
REMARK                            x       y       z     vdW  Elec       q    Type
REMARK                         _______ _______ _______ _____ _____    ______ ____
ROOT
ATOM      1  C   UNL     1      -3.584  -4.087   1.619  0.00  0.00    +0.075 A 
ATOM      2  C   UNL     1      -3.889  -4.460   2.892  0.00  0.00    +0.065 A 
ATOM      3  C   UNL     1      -5.018  -5.229   3.172  0.00  0.00    +0.044 A 
ATOM      4  C   UNL     1      -5.859  -5.638   2.192  0.00  0.00    +0.071 A 
ATOM      5  C   UNL     1      -5.606  -5.286   0.837  0.00  0.00    +0.120 A 
ATOM      6  C   UNL     1      -4.430  -4.477   0.539  0.00  0.00    +0.123 A 
ATOM      7  N   UNL     1      -4.297  -4.205  -0.759  0.00  0.00    -0.189 NA
ATOM      8  S   UNL     1      -5.550  -4.909  -1.482  0.00  0.00    +0.117 S 
ATOM      9  N   UNL     1      -6.318  -5.597  -0.247  0.00  0.00    -0.189 NA
ATOM     10 CL   UNL     1      -7.252  -6.595   2.591  0.00  0.00    -0.081 Cl
ATOM     11 CL   UNL     1      -2.851  -3.970   4.193  0.00  0.00    -0.082 Cl
ENDROOT
BRANCH   1  12
ATOM     12  N   UNL     1      -2.447  -3.317   1.371  0.00  0.00    -0.335 N 
ATOM     13  H   UNL     1      -2.008  -2.851   2.101  0.00  0.00    +0.147 HD
BRANCH  12  14
ATOM     14  C   UNL     1      -1.916  -3.211   0.010  0.00  0.00    +0.157 C 
BRANCH  14  18
ATOM     15  C   UNL     1       0.744   1.028  -0.013  0.00  0.00    +0.073 C 
ATOM     16  C   UNL     1       0.534  -0.464   0.021  0.00  0.00    +0.076 A 
ATOM     17  N   UNL     1      -0.596  -1.127  -0.001  0.00  0.00    -0.248 NA
ATOM     18  C   UNL     1      -0.619  -2.444   0.035  0.00  0.00    +0.066 A 
ATOM     19  C   UNL     1       0.580  -3.079   0.096  0.00  0.00    +0.071 A 
ATOM     20  S   UNL     1       1.693  -1.682   0.089  0.00  0.00    -0.080 S 
ENDBRANCH  14  18
ENDBRANCH  12  14
ENDBRANCH   1  12
TORSDOF 3
