REMARK  Name = ZINC36027444
REMARK  12 active torsions:
REMARK  status: ('A' for Active; 'I' for Inactive)
REMARK    1  A    between atoms: C_1  and  C_2
REMARK    2  A    between atoms: C_2  and  N_3
REMARK    3  A    between atoms: N_3  and  C_4
REMARK    4  A    between atoms: N_3  and  C_6
REMARK    5  A    between atoms: C_4  and  C_5
REMARK    6  A    between atoms: C_6  and  C_7
REMARK    7  A    between atoms: C_7  and  N_8
REMARK    8  A    between atoms: C_11  and  C_31
REMARK    9  A    between atoms: N_17  and  S_20
REMARK   10  A    between atoms: S_20  and  C_23
REMARK   11  A    between atoms: C_31  and  C_32
REMARK   12  A    between atoms: C_31  and  C_33
REMARK                            x       y       z     vdW  Elec       q    Type
REMARK                         _______ _______ _______ _____ _____    ______ ____
ROOT
ATOM      1  N   UNL     1      -0.626  -3.573   1.056  0.00  0.00    -0.315 N 
ATOM      2  C   UNL     1      -1.658  -4.359   1.426  0.00  0.00    +0.201 C 
ATOM      3  O   UNL     1      -2.744  -3.972   1.805  0.00  0.00    -0.277 OA
ATOM      4  C   UNL     1      -1.234  -5.805   1.290  0.00  0.00    +0.022 C 
ATOM      5  N   UNL     1       0.246  -5.758   1.205  0.00  0.00    +0.401 N 
ATOM      6  C   UNL     1       0.506  -4.410   0.651  0.00  0.00    +0.006 C 
ATOM      7  C   UNL     1       0.592  -4.483  -0.872  0.00  0.00    +0.023 C 
ATOM      8  C   UNL     1       0.824  -3.076  -1.435  0.00  0.00    +0.109 C 
ATOM      9  N   UNL     1       2.003  -2.494  -0.782  0.00  0.00    -0.177 NA
ATOM     10  C   UNL     1       2.048  -2.447   0.686  0.00  0.00    +0.109 C 
ATOM     11  C   UNL     1       1.806  -3.858   1.232  0.00  0.00    +0.023 C 
ATOM     12  H   UNL     1       0.659  -5.857   2.120  0.00  0.00    -0.082 HD
ATOM     13  H   UNL     1       0.590  -6.471   0.579  0.00  0.00    -0.082 HD
ENDROOT
BRANCH   9  14
ATOM     14  S   UNL     1       3.260  -1.901  -1.683  0.00  0.00    +0.061 S 
ATOM     15  O   UNL     1       4.411  -1.941  -0.851  0.00  0.00    -0.153 OA
ATOM     16  O   UNL     1       3.205  -2.561  -2.940  0.00  0.00    -0.153 OA
BRANCH  14  17
ATOM     17  C   UNL     1       2.921  -0.199  -1.992  0.00  0.00    +0.107 A 
ATOM     18  C   UNL     1       2.204   0.169  -3.115  0.00  0.00    +0.030 A 
ATOM     19  C   UNL     1       1.938   1.504  -3.359  0.00  0.00    +0.023 A 
ATOM     20  C   UNL     1       2.390   2.471  -2.479  0.00  0.00    +0.059 A 
ATOM     21  C   UNL     1       3.108   2.102  -1.355  0.00  0.00    +0.061 A 
ATOM     22  C   UNL     1       3.369   0.765  -1.109  0.00  0.00    +0.050 A 
ATOM     23 CL   UNL     1       3.676   3.314  -0.250  0.00  0.00    -0.082 Cl
ATOM     24 CL   UNL     1       2.057   4.147  -2.786  0.00  0.00    -0.082 Cl
ENDBRANCH  14  17
ENDBRANCH   9  14
BRANCH   4  25
ATOM     25  C   UNL     1      -1.674  -6.608   2.515  0.00  0.00    -0.023 C 
ATOM     26  C   UNL     1      -3.200  -6.576   2.624  0.00  0.00    +0.006 C 
ATOM     27  C   UNL     1      -1.204  -8.056   2.372  0.00  0.00    +0.006 C 
ENDBRANCH   4  25
BRANCH   1  28
ATOM     28  C   UNL     1      -0.638  -2.108   1.052  0.00  0.00    +0.087 C 
BRANCH  28  29
ATOM     29  C   UNL     1      -0.181  -1.591   2.418  0.00  0.00    -0.060 C 
BRANCH  29  30
ATOM     30  N   UNL     1      -0.064  -0.127   2.374  0.00  0.00    +0.380 N 
ATOM     31  H   UNL     1       0.549   0.138   1.618  0.00  0.00    -0.082 HD
BRANCH  30  33
ATOM     32  C   UNL     1      -1.251   1.976   1.972  0.00  0.00    -0.017 C 
ATOM     33  C   UNL     1      -1.391   0.464   2.158  0.00  0.00    -0.082 C 
ENDBRANCH  30  33
BRANCH  30  34
ATOM     34  C   UNL     1       0.488   0.359   3.645  0.00  0.00    -0.082 C 
ATOM     35  C   UNL     1       1.925  -0.144   3.803  0.00  0.00    -0.017 C 
ENDBRANCH  30  34
ENDBRANCH  29  30
ENDBRANCH  28  29
ENDBRANCH   1  28
TORSDOF 8
