REMARK  Name = ZINC35656406
REMARK  10 active torsions:
REMARK  status: ('A' for Active; 'I' for Inactive)
REMARK    1  A    between atoms: C_1  and  C_2
REMARK    2  A    between atoms: C_2  and  N_3
REMARK    3  A    between atoms: C_7  and  C_8
REMARK    4  A    between atoms: C_10  and  O_18
REMARK    5  A    between atoms: C_11  and  O_15
REMARK    6  A    between atoms: O_15  and  C_16
REMARK    7  A    between atoms: C_16  and  C_17
REMARK    8  A    between atoms: O_18  and  C_19
REMARK    9  A    between atoms: N_22  and  C_23
REMARK   10  A    between atoms: C_26  and  C_29
REMARK                            x       y       z     vdW  Elec       q    Type
REMARK                         _______ _______ _______ _____ _____    ______ ____
ROOT
ATOM      1  N   UNL     1       0.694  -0.122  -1.323  0.00  0.00    -0.246 N 
ATOM      2  C   UNL     1      -0.005  -0.472  -2.390  0.00  0.00    +0.259 C 
ATOM      3  O   UNL     1      -1.214  -0.340  -2.430  0.00  0.00    -0.269 OA
ATOM      4  C   UNL     1       0.748  -1.029  -3.529  0.00  0.00    +0.078 C 
ATOM      5  C   UNL     1       0.293  -1.464  -4.732  0.00  0.00    +0.029 C 
ATOM      6  S   UNL     1       2.420  -0.977  -2.900  0.00  0.00    -0.049 S 
ATOM      7  C   UNL     1       2.061  -0.274  -1.298  0.00  0.00    +0.168 C 
ATOM      8  N   UNL     1       2.901   0.026  -0.328  0.00  0.00    -0.225 NA
ENDROOT
BRANCH   5   9
ATOM      9  C   UNL     1       1.245  -1.819  -5.792  0.00  0.00    -0.002 A 
ATOM     10  C   UNL     1       2.571  -1.372  -5.725  0.00  0.00    +0.058 A 
ATOM     11  C   UNL     1       3.461  -1.709  -6.724  0.00  0.00    +0.162 A 
ATOM     12  C   UNL     1       3.041  -2.495  -7.798  0.00  0.00    +0.163 A 
ATOM     13  C   UNL     1       1.728  -2.939  -7.867  0.00  0.00    +0.070 A 
ATOM     14  C   UNL     1       0.832  -2.612  -6.871  0.00  0.00    +0.052 A 
ATOM     15 CL   UNL     1      -0.807  -3.176  -6.957  0.00  0.00    -0.083 Cl
BRANCH  11  16
ATOM     16  O   UNL     1       4.749  -1.276  -6.662  0.00  0.00    -0.491 OA
ATOM     17  C   UNL     1       5.110  -0.475  -5.534  0.00  0.00    +0.277 C 
ENDBRANCH  11  16
BRANCH  12  18
ATOM     18  O   UNL     1       3.921  -2.825  -8.779  0.00  0.00    -0.489 OA
BRANCH  18  19
ATOM     19  C   UNL     1       3.425  -3.632  -9.850  0.00  0.00    +0.226 C 
ATOM     20  C   UNL     1       4.551  -3.898 -10.851  0.00  0.00    +0.048 C 
ENDBRANCH  18  19
ENDBRANCH  12  18
ENDBRANCH   5   9
BRANCH   8  21
ATOM     21  C   UNL     1       4.234  -0.198  -0.489  0.00  0.00    +0.067 A 
ATOM     22  C   UNL     1       4.680  -1.407  -1.041  0.00  0.00    +0.028 A 
ATOM     23  C   UNL     1       6.015  -1.631  -1.202  0.00  0.00    +0.017 A 
ATOM     24  C   UNL     1       6.941  -0.653  -0.815  0.00  0.00    +0.063 A 
ATOM     25  C   UNL     1       6.495   0.556  -0.264  0.00  0.00    +0.017 A 
ATOM     26  C   UNL     1       5.160   0.782  -0.108  0.00  0.00    +0.028 A 
BRANCH  24  27
ATOM     27  C   UNL     1       8.380  -0.894  -0.989  0.00  0.00    +0.387 C 
ATOM     28  O   UNL     1       8.770  -1.950  -1.470  0.00  0.00    -0.241 OA
ATOM     29  O   UNL     1       9.189  -0.040  -0.651  0.00  0.00    -0.241 OA
ENDBRANCH  24  27
ENDBRANCH   8  21
BRANCH   1  31
ATOM     30  C   UNL     1      -0.077   1.960  -0.297  0.00  0.00    +0.025 C 
ATOM     31  C   UNL     1       0.005   0.438  -0.158  0.00  0.00    +0.112 C 
ENDBRANCH   1  31
TORSDOF 7
