REMARK  Name = ZINC49866756
REMARK  4 active torsions:
REMARK  status: ('A' for Active; 'I' for Inactive)
REMARK    1  A    between atoms: C_4  and  C_7
REMARK    2  A    between atoms: N_9  and  C_16
REMARK    3  A    between atoms: C_11  and  C_14
REMARK    4  A    between atoms: C_14  and  O_15
REMARK                            x       y       z     vdW  Elec       q    Type
REMARK                         _______ _______ _______ _____ _____    ______ ____
ROOT
ATOM      1  C   UNL     1       3.711  -0.707  -0.038  0.00  0.00    +0.238 C 
ATOM      2  N   UNL     1       3.552  -1.992  -0.737  0.00  0.00    -0.298 N 
ATOM      3  C   UNL     1       3.926  -3.040   0.238  0.00  0.00    +0.142 C 
ATOM      4  C   UNL     1       4.793  -2.263   1.260  0.00  0.00    +0.163 C 
ATOM      5  O   UNL     1       4.133  -0.977   1.309  0.00  0.00    -0.347 OA
ENDROOT
BRANCH   2   6
ATOM      6  C   UNL     1       3.132  -2.184  -2.057  0.00  0.00    +0.032 A 
ATOM      7  C   UNL     1       2.819  -1.090  -2.853  0.00  0.00    +0.026 A 
ATOM      8  C   UNL     1       2.405  -1.282  -4.157  0.00  0.00    +0.040 A 
ATOM      9  C   UNL     1       2.301  -2.564  -4.670  0.00  0.00    +0.124 A 
ATOM     10  C   UNL     1       2.612  -3.656  -3.878  0.00  0.00    +0.040 A 
ATOM     11  C   UNL     1       3.032  -3.469  -2.575  0.00  0.00    +0.026 A 
ATOM     12  F   UNL     1       1.895  -2.749  -5.945  0.00  0.00    -0.205 F 
ENDBRANCH   2   6
BRANCH   1  16
ATOM     13  C   UNL     1      -0.017   1.378   0.010  0.00  0.00    +0.000 A 
ATOM     14  C   UNL     1       1.171   2.086   0.002  0.00  0.00    +0.000 A 
ATOM     15  C   UNL     1       2.377   1.411  -0.013  0.00  0.00    +0.008 A 
ATOM     16  C   UNL     1       2.396   0.029  -0.020  0.00  0.00    -0.001 A 
ATOM     17  C   UNL     1       1.208  -0.679  -0.012  0.00  0.00    +0.008 A 
ATOM     18  C   UNL     1       0.002  -0.004   0.002  0.00  0.00    +0.000 A 
ENDBRANCH   1  16
BRANCH   4  19
ATOM     19  C   UNL     1       4.765  -2.946   2.628  0.00  0.00    +0.189 C 
BRANCH  19  20
ATOM     20  O   UNL     1       5.663  -2.275   3.514  0.00  0.00    -0.392 OA
ATOM     21  H   UNL     1       5.697  -2.655   4.403  0.00  0.00    +0.210 HD
ENDBRANCH  19  20
ENDBRANCH   4  19
TORSDOF 4
