REMARK  Name = ZINC01480521
REMARK  7 active torsions:
REMARK  status: ('A' for Active; 'I' for Inactive)
REMARK    1  A    between atoms: C_1  and  C_2
REMARK    2  A    between atoms: C_2  and  O_3
REMARK    3  A    between atoms: O_3  and  C_4
REMARK    4  A    between atoms: C_6  and  C_11
REMARK    5  A    between atoms: C_9  and  O_10
REMARK    6  A    between atoms: C_25  and  N_29
REMARK    7  A    between atoms: C_26  and  C_27
REMARK                            x       y       z     vdW  Elec       q    Type
REMARK                         _______ _______ _______ _____ _____    ______ ____
ROOT
ATOM      1  C   UNL     1       1.218   3.632   0.013  0.00  0.00    +0.105 C 
ATOM      2  C   UNL     1       1.175   2.128   0.002  0.00  0.00    +0.092 A 
ATOM      3  C   UNL     1      -0.018   1.467   0.010  0.00  0.00    +0.152 A 
ATOM      4  C   UNL     1       0.002  -0.004   0.002  0.00  0.00    +0.060 A 
ATOM      5  C   UNL     1      -1.184  -0.741   0.011  0.00  0.00    +0.015 A 
ATOM      6  C   UNL     1      -1.129  -2.118   0.004  0.00  0.00    +0.001 A 
ATOM      7  C   UNL     1       0.095  -2.770  -0.013  0.00  0.00    +0.004 A 
ATOM      8  C   UNL     1       1.273  -2.054  -0.022  0.00  0.00    +0.047 A 
ATOM      9  C   UNL     1       1.241  -0.665  -0.015  0.00  0.00    +0.143 A 
ATOM     10  O   UNL     1       2.384   0.053  -0.023  0.00  0.00    -0.422 OA
ATOM     11  C   UNL     1       2.374   1.395  -0.015  0.00  0.00    +0.345 A 
ATOM     12  O   UNL     1       3.435   1.995  -0.024  0.00  0.00    -0.245 OA
ATOM     13  O   UNL     1      -1.190   2.129   0.019  0.00  0.00    -0.440 OA
ATOM     14  C   UNL     1      -1.237   3.422  -0.344  0.00  0.00    +0.199 C 
ATOM     15  C   UNL     1      -0.123   4.192  -0.371  0.00  0.00    +0.098 C 
ENDROOT
BRANCH   1  18
ATOM     16  C   UNL     1       3.049   5.312   2.859  0.00  0.00    +0.162 A 
ATOM     17  C   UNL     1       2.719   4.867   1.589  0.00  0.00    +0.054 A 
ATOM     18  C   UNL     1       1.577   4.111   1.396  0.00  0.00    -0.031 A 
ATOM     19  C   UNL     1       0.768   3.789   2.470  0.00  0.00    +0.008 A 
ATOM     20  C   UNL     1       1.094   4.226   3.740  0.00  0.00    +0.049 A 
ATOM     21  C   UNL     1       2.235   4.988   3.940  0.00  0.00    +0.158 A 
BRANCH  21  22
ATOM     22  O   UNL     1       2.557   5.417   5.189  0.00  0.00    -0.503 OA
ATOM     23  H   UNL     1       3.120   4.805   5.683  0.00  0.00    +0.292 HD
ENDBRANCH  21  22
BRANCH  16  24
ATOM     24  O   UNL     1       4.169   6.059   3.050  0.00  0.00    -0.489 OA
BRANCH  24  26
ATOM     25  C   UNL     1       6.166   7.197   2.303  0.00  0.00    +0.048 C 
ATOM     26  C   UNL     1       4.957   6.354   1.895  0.00  0.00    +0.226 C 
ENDBRANCH  24  26
ENDBRANCH  16  24
ENDBRANCH   1  18
BRANCH  14  27
ATOM     27  N   UNL     1      -2.442   3.973  -0.702  0.00  0.00    -0.328 N 
ATOM     28  H   UNL     1      -2.489   4.904  -0.970  0.00  0.00    +0.145 HD
ATOM     29  H   UNL     1      -3.247   3.432  -0.687  0.00  0.00    +0.145 HD
ENDBRANCH  14  27
BRANCH  15  30
ATOM     30  C   UNL     1      -0.225   5.563  -0.773  0.00  0.00    +0.101 C 
ATOM     31  N   UNL     1      -0.306   6.651  -1.091  0.00  0.00    -0.191 NA
ENDBRANCH  15  30
TORSDOF 6
