REMARK  Name = ZINC04258334
REMARK  10 active torsions:
REMARK  status: ('A' for Active; 'I' for Inactive)
REMARK    1  A    between atoms: C_1  and  C_2
REMARK    2  A    between atoms: C_2  and  C_3
REMARK    3  A    between atoms: C_8  and  O_9
REMARK    4  A    between atoms: O_9  and  C_10
REMARK    5  A    between atoms: C_12  and  O_25
REMARK    6  A    between atoms: C_14  and  O_24
REMARK    7  A    between atoms: C_16  and  O_23
REMARK    8  A    between atoms: C_18  and  C_21
REMARK    9  A    between atoms: C_21  and  O_22
REMARK   10  A    between atoms: C_28  and  C_31
REMARK                            x       y       z     vdW  Elec       q    Type
REMARK                         _______ _______ _______ _____ _____    ______ ____
ROOT
ATOM      1  C   UNL     1      -6.981  -0.041   1.708  0.00  0.00    -0.005 A 
ATOM      2  C   UNL     1      -5.853   0.724   1.804  0.00  0.00    +0.022 A 
ATOM      3  C   UNL     1      -4.793   0.507   0.923  0.00  0.00    +0.065 A 
ATOM      4  C   UNL     1      -4.879  -0.492  -0.062  0.00  0.00    +0.142 A 
ATOM      5  C   UNL     1      -6.033  -1.261  -0.146  0.00  0.00    +0.093 A 
ATOM      6  C   UNL     1      -7.077  -1.034   0.736  0.00  0.00    +0.131 A 
ATOM      7  O   UNL     1      -3.854  -0.700  -0.911  0.00  0.00    -0.462 OA
ATOM      8  C   UNL     1      -2.720   0.005  -0.879  0.00  0.00    +0.208 A 
ATOM      9  C   UNL     1      -2.504   1.000   0.020  0.00  0.00    +0.064 A 
ATOM     10  C   UNL     1      -3.558   1.308   1.001  0.00  0.00    +0.200 A 
ATOM     11  O   UNL     1      -3.418   2.186   1.835  0.00  0.00    -0.286 OA
ENDROOT
BRANCH   9  12
ATOM     12  C   UNL     1      -1.228   1.757   0.017  0.00  0.00    -0.008 A 
ATOM     13  C   UNL     1      -1.243   3.150   0.030  0.00  0.00    +0.012 A 
ATOM     14  C   UNL     1      -0.056   3.854   0.023  0.00  0.00    +0.050 A 
ATOM     15  C   UNL     1       1.155   3.178   0.008  0.00  0.00    +0.166 A 
ATOM     16  C   UNL     1       1.176   1.784   0.000  0.00  0.00    +0.167 A 
ATOM     17  C   UNL     1      -0.013   1.076   0.008  0.00  0.00    +0.058 A 
ATOM     18  O   UNL     1       2.476   1.368  -0.014  0.00  0.00    -0.453 OA
ATOM     19  C   UNL     1       3.242   2.514  -0.428  0.00  0.00    +0.466 C 
ATOM     20  O   UNL     1       2.442   3.633  -0.002  0.00  0.00    -0.453 OA
ENDBRANCH   9  12
BRANCH   1  22
ATOM     21  C   UNL     1      -8.013  -0.773   3.840  0.00  0.00    +0.009 C 
ATOM     22  C   UNL     1      -8.127   0.191   2.658  0.00  0.00    +0.035 C 
ENDBRANCH   1  22
BRANCH   6  23
ATOM     23  O   UNL     1      -8.203  -1.786   0.651  0.00  0.00    -0.460 OA
BRANCH  23  24
ATOM     24  C   UNL     1      -8.240  -2.788  -0.367  0.00  0.00    +0.339 C 
ATOM     25  C   UNL     1      -9.657  -3.356  -0.474  0.00  0.00    +0.214 C 
ATOM     26  C   UNL     1      -9.675  -4.470  -1.525  0.00  0.00    +0.180 C 
ATOM     27  C   UNL     1      -8.648  -5.539  -1.137  0.00  0.00    +0.177 C 
ATOM     28  C   UNL     1      -7.269  -4.886  -1.005  0.00  0.00    +0.179 C 
ATOM     29  O   UNL     1      -7.330  -3.838  -0.035  0.00  0.00    -0.331 OA
BRANCH  27  30
ATOM     30  O   UNL     1      -9.019  -6.128   0.110  0.00  0.00    -0.386 OA
ATOM     31  H   UNL     1      -9.886  -6.557   0.100  0.00  0.00    +0.210 HD
ENDBRANCH  27  30
BRANCH  26  32
ATOM     32  O   UNL     1     -10.977  -5.055  -1.580  0.00  0.00    -0.386 OA
ATOM     33  H   UNL     1     -11.679  -4.432  -1.814  0.00  0.00    +0.210 HD
ENDBRANCH  26  32
BRANCH  25  34
ATOM     34  O   UNL     1     -10.560  -2.319  -0.863  0.00  0.00    -0.383 OA
ATOM     35  H   UNL     1     -10.596  -1.577  -0.244  0.00  0.00    +0.210 HD
ENDBRANCH  25  34
BRANCH  28  36
ATOM     36  C   UNL     1      -6.248  -5.935  -0.560  0.00  0.00    +0.190 C 
BRANCH  36  37
ATOM     37  O   UNL     1      -4.942  -5.354  -0.549  0.00  0.00    -0.392 OA
ATOM     38  H   UNL     1      -4.243  -5.964  -0.276  0.00  0.00    +0.210 HD
ENDBRANCH  36  37
ENDBRANCH  28  36
ENDBRANCH  23  24
ENDBRANCH   6  23
TORSDOF 9
