REMARK  Name = ZINC15225481
REMARK  10 active torsions:
REMARK  status: ('A' for Active; 'I' for Inactive)
REMARK    1  A    between atoms: C_1  and  C_2
REMARK    2  A    between atoms: C_2  and  N_3
REMARK    3  A    between atoms: N_3  and  C_4
REMARK    4  A    between atoms: N_3  and  C_6
REMARK    5  A    between atoms: C_4  and  C_5
REMARK    6  A    between atoms: C_8  and  C_9
REMARK    7  A    between atoms: N_10  and  C_11
REMARK    8  A    between atoms: C_15  and  N_18
REMARK    9  A    between atoms: C_16  and  O_17
REMARK   10  A    between atoms: C_21  and  O_22
REMARK                            x       y       z     vdW  Elec       q    Type
REMARK                         _______ _______ _______ _____ _____    ______ ____
ROOT
ATOM      1  C   UNL     1       0.942  -1.837   1.031  0.00  0.00    +0.014 A 
ATOM      2  C   UNL     1       2.231  -2.324   1.062  0.00  0.00    +0.034 A 
ATOM      3  C   UNL     1       2.456  -3.703   1.015  0.00  0.00    +0.036 A 
ATOM      4  C   UNL     1       1.363  -4.581   0.938  0.00  0.00    +0.126 A 
ATOM      5  C   UNL     1       0.075  -4.072   0.909  0.00  0.00    +0.048 A 
ATOM      6  C   UNL     1      -0.133  -2.707   0.961  0.00  0.00    +0.025 A 
ENDROOT
BRANCH   1   7
ATOM      7  N   UNL     1       0.718  -0.457   1.077  0.00  0.00    -0.394 NA
ATOM      8  H   UNL     1       1.603   0.025   1.126  0.00  0.00    +0.126 HD
BRANCH   7  10
ATOM      9  C   UNL     1       0.893  -0.241  -1.356  0.00  0.00    +0.022 C 
ATOM     10  C   UNL     1      -0.003  -0.037  -0.132  0.00  0.00    +0.081 C 
ENDBRANCH   7  10
BRANCH   7  11
ATOM     11  C   UNL     1      -0.084  -0.131   2.264  0.00  0.00    +0.081 C 
ATOM     12  C   UNL     1       0.719  -0.451   3.526  0.00  0.00    +0.022 C 
ENDBRANCH   7  11
ENDBRANCH   1   7
BRANCH   3  13
ATOM     13  C   UNL     1       3.828  -4.231   1.048  0.00  0.00    +0.123 C 
ATOM     14  N   UNL     1       4.033  -5.517   1.004  0.00  0.00    -0.251 NA
BRANCH  14  15
ATOM     15  C   UNL     1       5.300  -6.013   1.144  0.00  0.00    +0.107 A 
ATOM     16  C   UNL     1       6.118  -5.567   2.185  0.00  0.00    +0.031 A 
ATOM     17  C   UNL     1       7.394  -6.072   2.320  0.00  0.00    +0.005 A 
ATOM     18  C   UNL     1       7.869  -7.018   1.429  0.00  0.00    +0.036 A 
ATOM     19  C   UNL     1       7.069  -7.467   0.394  0.00  0.00    +0.169 A 
ATOM     20  C   UNL     1       5.783  -6.976   0.248  0.00  0.00    +0.173 A 
BRANCH  19  21
ATOM     21  N   UNL     1       7.587  -8.479  -0.554  0.00  0.00    +0.060 N 
ATOM     22  O   UNL     1       8.708  -8.912  -0.424  0.00  0.00    -0.126 OA
ATOM     23  O   UNL     1       6.888  -8.872  -1.459  0.00  0.00    -0.126 OA
ENDBRANCH  19  21
BRANCH  20  24
ATOM     24  O   UNL     1       4.994  -7.420  -0.765  0.00  0.00    -0.503 OA
ATOM     25  H   UNL     1       5.075  -6.907  -1.581  0.00  0.00    +0.292 HD
ENDBRANCH  20  24
ENDBRANCH  14  15
ENDBRANCH   3  13
BRANCH   4  26
ATOM     26  O   UNL     1       1.568  -5.922   0.893  0.00  0.00    -0.506 OA
ATOM     27  H   UNL     1       1.593  -6.345   1.762  0.00  0.00    +0.292 HD
ENDBRANCH   4  26
TORSDOF 8
