REMARK  Name = ZINC58775456
REMARK  7 active torsions:
REMARK  status: ('A' for Active; 'I' for Inactive)
REMARK    1  A    between atoms: N_13  and  C_14
REMARK    2  A    between atoms: C_14  and  C_15
REMARK    3  A    between atoms: C_15  and  C_16
REMARK    4  A    between atoms: N_18  and  C_19
REMARK    5  A    between atoms: C_19  and  C_20
REMARK    6  A    between atoms: C_20  and  C_22
REMARK    7  A    between atoms: C_20  and  N_29
REMARK                            x       y       z     vdW  Elec       q    Type
REMARK                         _______ _______ _______ _____ _____    ______ ____
ROOT
ATOM      1  C   UNL     1       6.535   1.298   1.391  0.00  0.00    +0.215 C 
ATOM      2  O   UNL     1       6.916   1.810   0.360  0.00  0.00    -0.276 OA
ATOM      3  N   UNL     1       7.208   1.511   2.539  0.00  0.00    -0.316 N 
ATOM      4  H   UNL     1       6.904   1.101   3.364  0.00  0.00    +0.149 HD
ENDROOT
BRANCH   1   5
ATOM      5  C   UNL     1       5.308   0.423   1.389  0.00  0.00    +0.117 C 
BRANCH   5   6
ATOM      6  C   UNL     1       4.738   0.347  -0.029  0.00  0.00    +0.136 C 
BRANCH   6  19
ATOM      7  C   UNL     1      -0.229   1.121   0.634  0.00  0.00    +0.001 A 
ATOM      8  C   UNL     1       0.887   1.942   0.640  0.00  0.00    +0.002 A 
ATOM      9  C   UNL     1       2.147   1.420   0.421  0.00  0.00    +0.027 A 
ATOM     10  C   UNL     1       2.298   0.061   0.193  0.00  0.00    +0.059 A 
ATOM     11  C   UNL     1       1.166  -0.773   0.187  0.00  0.00    +0.063 A 
ATOM     12  C   UNL     1      -0.098  -0.234   0.409  0.00  0.00    +0.015 A 
ATOM     13  C   UNL     1       1.363  -2.213  -0.059  0.00  0.00    +0.262 A 
ATOM     14  O   UNL     1       0.418  -2.978  -0.075  0.00  0.00    -0.267 OA
ATOM     15  N   UNL     1       2.620  -2.661  -0.266  0.00  0.00    -0.274 N 
ATOM     16  H   UNL     1       2.768  -3.606  -0.429  0.00  0.00    +0.173 HD
ATOM     17  C   UNL     1       3.670  -1.824  -0.250  0.00  0.00    +0.330 A 
ATOM     18  O   UNL     1       4.780  -2.280  -0.442  0.00  0.00    -0.246 OA
ATOM     19  N   UNL     1       3.545  -0.504  -0.031  0.00  0.00    -0.293 N 
ENDBRANCH   6  19
ENDBRANCH   5   6
ENDBRANCH   1   5
BRANCH   3  20
ATOM     20  C   UNL     1       8.401   2.361   2.541  0.00  0.00    +0.093 C 
BRANCH  20  21
ATOM     21  C   UNL     1       8.893   2.546   3.978  0.00  0.00    -0.020 C 
BRANCH  21  22
ATOM     22  C   UNL     1       7.865   3.317   4.766  0.00  0.00    -0.058 A 
ATOM     23  C   UNL     1       7.790   4.693   4.645  0.00  0.00    +0.002 A 
ATOM     24  C   UNL     1       6.848   5.400   5.367  0.00  0.00    +0.002 A 
ATOM     25  C   UNL     1       5.979   4.733   6.210  0.00  0.00    +0.020 A 
ATOM     26  C   UNL     1       6.053   3.357   6.331  0.00  0.00    +0.041 A 
ATOM     27  C   UNL     1       6.993   2.649   5.604  0.00  0.00    +0.022 A 
ATOM     28 CL   UNL     1       4.963   2.519   7.391  0.00  0.00    -0.084 Cl
ENDBRANCH  21  22
BRANCH  21  29
ATOM     29  N   UNL     1      10.161   3.288   3.970  0.00  0.00    +0.385 N 
ATOM     30  C   UNL     1      10.660   3.464   5.358  0.00  0.00    -0.078 C 
ATOM     31  C   UNL     1      12.176   3.718   5.159  0.00  0.00    -0.020 C 
ATOM     32  C   UNL     1      12.534   2.776   3.987  0.00  0.00    -0.020 C 
ATOM     33  C   UNL     1      11.201   2.512   3.262  0.00  0.00    -0.078 C 
ATOM     34  H   UNL     1      10.036   4.187   3.528  0.00  0.00    -0.081 HD
ENDBRANCH  21  29
ENDBRANCH  20  21
ENDBRANCH   3  20
TORSDOF 7
