REMARK  Name = ZINC56595182
REMARK  7 active torsions:
REMARK  status: ('A' for Active; 'I' for Inactive)
REMARK    1  A    between atoms: C_1  and  C_2
REMARK    2  A    between atoms: C_5  and  N_14
REMARK    3  A    between atoms: C_6  and  O_8
REMARK    4  A    between atoms: O_8  and  C_9
REMARK    5  A    between atoms: C_9  and  C_10
REMARK    6  A    between atoms: N_17  and  C_18
REMARK    7  A    between atoms: N_21  and  C_24
REMARK                            x       y       z     vdW  Elec       q    Type
REMARK                         _______ _______ _______ _____ _____    ______ ____
ROOT
ATOM      1  N   UNL     1       0.058  -4.175  -0.031  0.00  0.00    -0.266 N 
ATOM      2  C   UNL     1      -0.041  -4.841  -1.198  0.00  0.00    +0.304 C 
ATOM      3  O   UNL     1      -0.054  -4.228  -2.248  0.00  0.00    -0.252 OA
ATOM      4  N   UNL     1      -0.124  -6.186  -1.202  0.00  0.00    -0.296 N 
ATOM      5  H   UNL     1       0.134  -4.666   0.802  0.00  0.00    +0.156 HD
ATOM      6  H   UNL     1      -0.114  -6.675  -0.364  0.00  0.00    +0.151 HD
ENDROOT
BRANCH   1  11
ATOM      7  C   UNL     1       0.031   1.503   0.006  0.00  0.00    +0.044 C 
ATOM      8  C   UNL     1       0.037  -0.004  -0.001  0.00  0.00    -0.047 A 
ATOM      9  C   UNL     1       0.632  -0.686  -1.046  0.00  0.00    +0.005 A 
ATOM     10  C   UNL     1       0.641  -2.068  -1.059  0.00  0.00    +0.027 A 
ATOM     11  C   UNL     1       0.051  -2.774  -0.020  0.00  0.00    +0.077 A 
ATOM     12  C   UNL     1      -0.548  -2.086   1.032  0.00  0.00    +0.142 A 
ATOM     13  C   UNL     1      -0.548  -0.701   1.040  0.00  0.00    +0.051 A 
BRANCH  12  14
ATOM     14  O   UNL     1      -1.129  -2.773   2.052  0.00  0.00    -0.481 OA
BRANCH  14  15
ATOM     15  C   UNL     1      -1.724  -2.002   3.098  0.00  0.00    +0.342 C 
BRANCH  15  16
ATOM     16  C   UNL     1      -2.321  -2.941   4.147  0.00  0.00    +0.424 C 
ATOM     17  F   UNL     1      -1.310  -3.747   4.681  0.00  0.00    -0.167 F 
ATOM     18  F   UNL     1      -2.904  -2.186   5.171  0.00  0.00    -0.167 F 
ATOM     19  F   UNL     1      -3.295  -3.749   3.551  0.00  0.00    -0.167 F 
ENDBRANCH  15  16
ENDBRANCH  14  15
ENDBRANCH  12  14
ENDBRANCH   1  11
BRANCH   4  20
ATOM     20  C   UNL     1      -0.232  -6.910  -2.471  0.00  0.00    +0.071 C 
ATOM     21  C   UNL     1      -1.700  -6.973  -2.902  0.00  0.00    +0.004 C 
ATOM     22  C   UNL     1      -1.814  -7.798  -4.186  0.00  0.00    -0.077 C 
ATOM     23  N   UNL     1      -1.314  -9.157  -3.945  0.00  0.00    +0.382 N 
ATOM     24  C   UNL     1       0.113  -9.110  -3.601  0.00  0.00    -0.077 C 
ATOM     25  C   UNL     1       0.300  -8.335  -2.295  0.00  0.00    +0.004 C 
ATOM     26  H   UNL     1      -1.828  -9.574  -3.183  0.00  0.00    -0.081 HD
BRANCH  23  27
ATOM     27  C   UNL     1      -1.497  -9.967  -5.157  0.00  0.00    -0.069 C 
ATOM     28  C   UNL     1      -2.529 -11.095  -5.103  0.00  0.00    -0.017 C 
ATOM     29  C   UNL     1      -1.035 -11.425  -5.109  0.00  0.00    -0.017 C 
ENDBRANCH  23  27
ENDBRANCH   4  20
TORSDOF 6
