REMARK  Name = ZINC07942225
REMARK  6 active torsions:
REMARK  status: ('A' for Active; 'I' for Inactive)
REMARK    1  A    between atoms: C_1  and  C_2
REMARK    2  A    between atoms: C_5  and  N_9
REMARK    3  A    between atoms: C_6  and  C_8
REMARK    4  A    between atoms: C_10  and  C_12
REMARK    5  A    between atoms: C_12  and  C_13
REMARK    6  A    between atoms: C_24  and  C_26
REMARK                            x       y       z     vdW  Elec       q    Type
REMARK                         _______ _______ _______ _____ _____    ______ ____
ROOT
ATOM      1  C   UNL     1      -0.134  -6.343  -1.187  0.00  0.00    +0.123 C 
ENDROOT
BRANCH   1   2
ATOM      2  C   UNL     1      -0.236  -6.847  -2.628  0.00  0.00    +0.120 C 
ATOM      3  C   UNL     1      -0.211  -8.355  -2.638  0.00  0.00    -0.019 A 
ATOM      4  C   UNL     1       0.984  -9.038  -2.691  0.00  0.00    +0.006 A 
ATOM      5  C   UNL     1       0.990 -10.422  -2.683  0.00  0.00    +0.000 A 
ATOM      6  C   UNL     1      -0.200 -11.127  -2.620  0.00  0.00    +0.001 A 
ATOM      7  C   UNL     1      -1.404 -10.454  -2.572  0.00  0.00    +0.008 A 
ATOM      8  C   UNL     1      -1.416  -9.060  -2.589  0.00  0.00    -0.019 A 
ATOM      9  C   UNL     1      -2.691  -8.316  -2.581  0.00  0.00    +0.023 C 
ATOM     10  C   UNL     1      -2.689  -7.012  -2.881  0.00  0.00    +0.079 C 
ATOM     11  N   UNL     1      -1.496  -6.385  -3.222  0.00  0.00    -0.270 N 
ATOM     12  C   UNL     1      -1.494  -5.357  -4.094  0.00  0.00    +0.217 C 
ATOM     13  O   UNL     1      -0.451  -4.813  -4.389  0.00  0.00    -0.276 OA
ATOM     14  C   UNL     1      -2.789  -4.884  -4.703  0.00  0.00    +0.109 C 
ENDBRANCH   1   2
BRANCH   1  16
ATOM     15  N   UNL     1       0.059  -4.170  -0.021  0.00  0.00    -0.285 N 
ATOM     16  C   UNL     1      -0.040  -4.839  -1.187  0.00  0.00    +0.219 C 
ATOM     17  O   UNL     1      -0.054  -4.230  -2.236  0.00  0.00    -0.275 OA
ATOM     18  H   UNL     1       0.135  -4.658   0.814  0.00  0.00    +0.155 HD
BRANCH  15  23
ATOM     19  C   UNL     1       0.025   1.503   0.005  0.00  0.00    +0.044 C 
ATOM     20  C   UNL     1       0.034  -0.004  -0.002  0.00  0.00    -0.050 A 
ATOM     21  C   UNL     1       0.632  -0.685  -1.046  0.00  0.00    +0.005 A 
ATOM     22  C   UNL     1       0.641  -2.066  -1.055  0.00  0.00    +0.024 A 
ATOM     23  C   UNL     1       0.051  -2.771  -0.014  0.00  0.00    +0.036 A 
ATOM     24  C   UNL     1      -0.548  -2.083   1.033  0.00  0.00    -0.029 A 
ATOM     25  C   UNL     1      -0.550  -0.702   1.039  0.00  0.00    +0.008 A 
ATOM     26  C   UNL     1      -1.190  -2.843   2.165  0.00  0.00    +0.045 C 
ENDBRANCH  15  23
ENDBRANCH   1  16
TORSDOF 3
