REMARK  Name = ZINC02138807
REMARK  9 active torsions:
REMARK  status: ('A' for Active; 'I' for Inactive)
REMARK    1  A    between atoms: C_1  and  C_2
REMARK    2  A    between atoms: C_4  and  C_37
REMARK    3  A    between atoms: C_13  and  C_15
REMARK    4  A    between atoms: C_15  and  C_16
REMARK    5  A    between atoms: C_16  and  C_17
REMARK    6  A    between atoms: N_22  and  C_25
REMARK    7  A    between atoms: C_25  and  C_26
REMARK    8  A    between atoms: C_31  and  O_32
REMARK    9  A    between atoms: O_32  and  C_33
REMARK                            x       y       z     vdW  Elec       q    Type
REMARK                         _______ _______ _______ _____ _____    ______ ____
ROOT
ATOM      1  C   UNL     1       3.283  -0.841  -4.133  0.00  0.00    +0.044 C 
ATOM      2  C   UNL     1       3.286  -0.443  -2.680  0.00  0.00    -0.050 A 
ATOM      3  C   UNL     1       4.301  -0.873  -1.845  0.00  0.00    +0.008 A 
ATOM      4  C   UNL     1       4.309  -0.510  -0.514  0.00  0.00    -0.029 A 
ATOM      5  C   UNL     1       3.294   0.293  -0.000  0.00  0.00    +0.039 A 
ATOM      6  C   UNL     1       2.278   0.719  -0.850  0.00  0.00    -0.027 A 
ATOM      7  C   UNL     1       2.273   0.355  -2.178  0.00  0.00    +0.008 A 
ATOM      8  C   UNL     1       1.358   1.552  -0.003  0.00  0.00    +0.050 C 
ATOM      9  C   UNL     1       1.235   2.982  -0.544  0.00  0.00    +0.088 C 
ATOM     10  C   UNL     1      -0.086   2.977  -1.362  0.00  0.00    +0.073 C 
ATOM     11  C   UNL     1      -0.625   1.536  -1.239  0.00  0.00    -0.057 C 
ATOM     12  C   UNL     1      -0.982   3.914  -0.584  0.00  0.00    +0.224 C 
ATOM     13  O   UNL     1      -2.125   4.194  -0.876  0.00  0.00    -0.275 OA
ATOM     14  N   UNL     1      -0.317   4.387   0.476  0.00  0.00    -0.237 N 
ATOM     15  C   UNL     1       0.936   3.932   0.595  0.00  0.00    +0.225 C 
ATOM     16  O   UNL     1       1.710   4.233   1.477  0.00  0.00    -0.275 OA
ATOM     17  C   UNL     1       1.968   1.534   1.372  0.00  0.00    +0.211 C 
ATOM     18  O   UNL     1       1.538   2.086   2.363  0.00  0.00    -0.277 OA
ATOM     19  N   UNL     1       3.085   0.786   1.290  0.00  0.00    -0.286 N 
ATOM     20  C   UNL     1       5.421  -0.985   0.386  0.00  0.00    +0.045 C 
ATOM     21  H   UNL     1       3.675   0.610   2.039  0.00  0.00    +0.155 HD
ATOM     22  N   UNL     1       0.004   1.027  -0.018  0.00  0.00    +0.394 N 
ATOM     23  H   UNL     1      -0.512   1.351   0.809  0.00  0.00    -0.083 HD
ATOM     24  H   UNL     1       0.021   0.000  -0.030  0.00  0.00    -0.083 HD
ENDROOT
BRANCH  11  25
ATOM     25  C   UNL     1      -2.150   1.546  -1.119  0.00  0.00    -0.006 C 
BRANCH  25  26
ATOM     26  C   UNL     1      -2.666   0.108  -1.046  0.00  0.00    +0.094 C 
BRANCH  26  27
ATOM     27  C   UNL     1      -4.168   0.118  -0.928  0.00  0.00    +0.210 C 
ATOM     28  O   UNL     1      -4.767   1.172  -0.905  0.00  0.00    -0.276 OA
ATOM     29  N   UNL     1      -4.845  -1.044  -0.849  0.00  0.00    -0.329 N 
ATOM     30  H   UNL     1      -4.366  -1.887  -0.867  0.00  0.00    +0.145 HD
ATOM     31  H   UNL     1      -5.812  -1.038  -0.773  0.00  0.00    +0.145 HD
ENDBRANCH  26  27
ENDBRANCH  25  26
ENDBRANCH  11  25
BRANCH  14  32
ATOM     32  C   UNL     1      -0.912   5.326   1.431  0.00  0.00    +0.155 C 
BRANCH  32  33
ATOM     33  C   UNL     1      -1.585   4.557   2.538  0.00  0.00    +0.012 A 
ATOM     34  C   UNL     1      -2.955   4.374   2.519  0.00  0.00    +0.009 A 
ATOM     35  C   UNL     1      -3.574   3.669   3.534  0.00  0.00    +0.001 A 
ATOM     36  C   UNL     1      -2.824   3.144   4.571  0.00  0.00    +0.004 A 
ATOM     37  C   UNL     1      -1.454   3.324   4.595  0.00  0.00    +0.046 A 
ATOM     38  C   UNL     1      -0.831   4.028   3.574  0.00  0.00    +0.125 A 
BRANCH  38  39
ATOM     39  O   UNL     1       0.517   4.202   3.592  0.00  0.00    -0.495 OA
ATOM     40  C   UNL     1       1.230   3.629   4.691  0.00  0.00    +0.277 C 
ENDBRANCH  38  39
ENDBRANCH  32  33
ENDBRANCH  14  32
TORSDOF 6
