REMARK  Name = ZINC65717559
REMARK  10 active torsions:
REMARK  status: ('A' for Active; 'I' for Inactive)
REMARK    1  A    between atoms: C_1  and  C_2
REMARK    2  A    between atoms: C_6  and  C_8
REMARK    3  A    between atoms: C_6  and  C_9
REMARK    4  A    between atoms: C_10  and  C_12
REMARK    5  A    between atoms: N_14  and  C_15
REMARK    6  A    between atoms: C_18  and  S_21
REMARK    7  A    between atoms: S_21  and  N_24
REMARK    8  A    between atoms: N_24  and  C_25
REMARK    9  A    between atoms: C_25  and  C_26
REMARK   10  A    between atoms: C_25  and  C_27
REMARK                            x       y       z     vdW  Elec       q    Type
REMARK                         _______ _______ _______ _____ _____    ______ ____
ROOT
ATOM      1  C   UNL     1      -0.239  -2.220  -3.320  0.00  0.00    +0.303 C 
ATOM      2  O   UNL     1      -0.467  -1.030  -3.398  0.00  0.00    -0.265 OA
ATOM      3  N   UNL     1      -0.623  -3.046  -4.314  0.00  0.00    -0.278 N 
ATOM      4  H   UNL     1      -0.514  -4.005  -4.216  0.00  0.00    +0.155 HD
ENDROOT
BRANCH   1  14
ATOM      5  C   UNL     1      -0.653   1.269   0.312  0.00  0.00    +0.039 C 
ATOM      6  C   UNL     1      -0.411  -0.238   0.208  0.00  0.00    +0.133 C 
ATOM      7  C   UNL     1       0.350  -0.547  -1.087  0.00  0.00    +0.139 C 
ATOM      8  N   UNL     1       0.732  -1.967  -1.073  0.00  0.00    -0.289 N 
ATOM      9  C   UNL     1       1.416  -2.488   0.122  0.00  0.00    +0.142 C 
ATOM     10  C   UNL     1       0.603  -2.085   1.358  0.00  0.00    +0.080 C 
ATOM     11  O   UNL     1       0.365  -0.675   1.326  0.00  0.00    -0.368 OA
ATOM     12  C   UNL     1      -0.734  -2.829   1.355  0.00  0.00    +0.043 C 
ATOM     13  C   UNL     1       1.385  -2.442   2.623  0.00  0.00    +0.043 C 
ATOM     14  C   UNL     1       0.466  -2.768  -2.123  0.00  0.00    +0.302 C 
ATOM     15  O   UNL     1       0.798  -3.935  -2.097  0.00  0.00    -0.265 OA
ENDBRANCH   1  14
BRANCH   3  16
ATOM     16  C   UNL     1      -1.178  -2.521  -5.484  0.00  0.00    +0.034 A 
ATOM     17  C   UNL     1      -0.814  -1.253  -5.919  0.00  0.00    +0.025 A 
ATOM     18  C   UNL     1      -1.364  -0.737  -7.076  0.00  0.00    +0.030 A 
ATOM     19  C   UNL     1      -2.277  -1.481  -7.801  0.00  0.00    +0.105 A 
ATOM     20  C   UNL     1      -2.643  -2.744  -7.370  0.00  0.00    +0.030 A 
ATOM     21  C   UNL     1      -2.091  -3.268  -6.217  0.00  0.00    +0.025 A 
BRANCH  19  22
ATOM     22  S   UNL     1      -2.977  -0.819  -9.276  0.00  0.00    +0.059 S 
ATOM     23  O   UNL     1      -4.214  -1.490  -9.475  0.00  0.00    -0.153 OA
ATOM     24  O   UNL     1      -2.886   0.595  -9.170  0.00  0.00    -0.153 OA
BRANCH  22  25
ATOM     25  N   UNL     1      -1.990  -1.264 -10.529  0.00  0.00    -0.187 NA
ATOM     26  H   UNL     1      -1.508  -0.588 -11.030  0.00  0.00    +0.148 HD
BRANCH  25  27
ATOM     27  C   UNL     1      -1.844  -2.679 -10.879  0.00  0.00    +0.070 C 
ATOM     28  C   UNL     1      -1.684  -2.815 -12.395  0.00  0.00    +0.025 C 
ATOM     29  C   UNL     1      -0.609  -3.253 -10.183  0.00  0.00    +0.025 C 
ENDBRANCH  25  27
ENDBRANCH  22  25
ENDBRANCH  19  22
ENDBRANCH   3  16
TORSDOF 5
