REMARK  Name = ZINC67256560
REMARK  7 active torsions:
REMARK  status: ('A' for Active; 'I' for Inactive)
REMARK    1  A    between atoms: C_1  and  C_2
REMARK    2  A    between atoms: C_2  and  C_3
REMARK    3  A    between atoms: C_2  and  C_4
REMARK    4  A    between atoms: C_2  and  N_11
REMARK    5  A    between atoms: N_14  and  C_15
REMARK    6  A    between atoms: C_20  and  S_21
REMARK    7  A    between atoms: S_21  and  C_24
REMARK                            x       y       z     vdW  Elec       q    Type
REMARK                         _______ _______ _______ _____ _____    ______ ____
ROOT
ATOM      1  N   UNL     1       0.352  -0.146  -1.143  0.00  0.00    -0.290 N 
ATOM      2  C   UNL     1       1.622  -0.019  -1.574  0.00  0.00    +0.305 C 
ATOM      3  O   UNL     1       2.451   0.525  -0.871  0.00  0.00    -0.252 OA
ATOM      4  N   UNL     1       1.973  -0.494  -2.786  0.00  0.00    -0.268 N 
ATOM      5  H   UNL     1      -0.310  -0.580  -1.704  0.00  0.00    +0.151 HD
ATOM      6  H   UNL     1       1.299  -0.870  -3.373  0.00  0.00    +0.156 HD
ENDROOT
BRANCH   4   7
ATOM      7  C   UNL     1       3.311  -0.447  -3.195  0.00  0.00    +0.060 A 
ATOM      8  C   UNL     1       4.151   0.549  -2.715  0.00  0.00    +0.025 A 
ATOM      9  C   UNL     1       5.470   0.593  -3.120  0.00  0.00    +0.002 A 
ATOM     10  C   UNL     1       5.955  -0.353  -4.005  0.00  0.00    +0.002 A 
ATOM     11  C   UNL     1       5.121  -1.345  -4.485  0.00  0.00    +0.029 A 
ATOM     12  C   UNL     1       3.802  -1.399  -4.079  0.00  0.00    +0.109 A 
BRANCH  12  13
ATOM     13  S   UNL     1       2.742  -2.668  -4.686  0.00  0.00    -0.004 S 
ATOM     14  O   UNL     1       1.596  -1.982  -5.172  0.00  0.00    -0.170 OA
ATOM     15  O   UNL     1       3.557  -3.431  -5.566  0.00  0.00    -0.170 OA
ATOM     16  C   UNL     1       2.308  -3.652  -3.225  0.00  0.00    +0.200 C 
ENDBRANCH  12  13
ENDBRANCH   4   7
BRANCH   1  18
ATOM     17  C   UNL     1       0.279   1.867   0.243  0.00  0.00    +0.036 C 
ATOM     18  C   UNL     1      -0.030   0.371   0.174  0.00  0.00    +0.056 C 
ATOM     19  C   UNL     1       0.760  -0.364   1.259  0.00  0.00    +0.036 C 
BRANCH  18  20
ATOM     20  C   UNL     1      -1.505   0.152   0.391  0.00  0.00    -0.025 A 
ATOM     21  C   UNL     1      -2.011   0.080   1.675  0.00  0.00    +0.007 A 
ATOM     22  C   UNL     1      -3.364  -0.121   1.875  0.00  0.00    +0.020 A 
ATOM     23  C   UNL     1      -4.212  -0.249   0.789  0.00  0.00    +0.041 A 
ATOM     24  C   UNL     1      -3.705  -0.176  -0.496  0.00  0.00    +0.020 A 
ATOM     25  C   UNL     1      -2.353   0.030  -0.695  0.00  0.00    +0.007 A 
ATOM     26 CL   UNL     1      -5.911  -0.501   1.039  0.00  0.00    -0.084 Cl
ENDBRANCH  18  20
ENDBRANCH   1  18
TORSDOF 4
