REMARK  Name = ZINC39558636
REMARK  8 active torsions:
REMARK  status: ('A' for Active; 'I' for Inactive)
REMARK    1  A    between atoms: C_1  and  N_2
REMARK    2  A    between atoms: N_2  and  C_3
REMARK    3  A    between atoms: N_2  and  C_4
REMARK    4  A    between atoms: C_7  and  N_29
REMARK    5  A    between atoms: C_9  and  C_10
REMARK    6  A    between atoms: N_12  and  C_13
REMARK    7  A    between atoms: C_13  and  C_14
REMARK    8  A    between atoms: N_16  and  C_17
REMARK                            x       y       z     vdW  Elec       q    Type
REMARK                         _______ _______ _______ _____ _____    ______ ____
ROOT
ATOM      1  C   UNL     1      -1.083  -0.714   4.940  0.00  0.00    +0.200 C 
ENDROOT
BRANCH   1   4
ATOM      2  C   UNL     1      -1.142  -0.724   2.504  0.00  0.00    +0.246 C 
ATOM      3  O   UNL     1      -0.092  -0.110   2.506  0.00  0.00    -0.270 OA
ATOM      4  N   UNL     1      -1.720  -1.074   3.671  0.00  0.00    -0.303 N 
ATOM      5  H   UNL     1      -2.557  -1.563   3.669  0.00  0.00    +0.150 HD
BRANCH   2  11
ATOM      6  C   UNL     1      -1.185  -0.724   0.009  0.00  0.00    +0.042 A 
ATOM      7  C   UNL     1      -1.795  -1.076  -1.188  0.00  0.00    +0.026 A 
ATOM      8  C   UNL     1      -2.986  -1.773  -1.178  0.00  0.00    +0.034 A 
ATOM      9  C   UNL     1      -3.582  -2.126   0.022  0.00  0.00    +0.127 A 
ATOM     10  C   UNL     1      -2.992  -1.786   1.220  0.00  0.00    +0.047 A 
ATOM     11  C   UNL     1      -1.782  -1.086   1.227  0.00  0.00    +0.060 A 
BRANCH   6  13
ATOM     12  C   UNL     1       0.006   1.442   0.009  0.00  0.00    +0.129 C 
ATOM     13  N   UNL     1       0.014  -0.023   0.002  0.00  0.00    -0.335 N 
ATOM     14  C   UNL     1       1.287  -0.748  -0.013  0.00  0.00    +0.129 C 
ENDBRANCH   6  13
BRANCH   9  15
ATOM     15  N   UNL     1      -4.860  -2.873   0.018  0.00  0.00    +0.056 N 
ATOM     16  O   UNL     1      -5.381  -3.174  -1.031  0.00  0.00    -0.126 OA
ATOM     17  O   UNL     1      -5.383  -3.183   1.063  0.00  0.00    -0.126 OA
ENDBRANCH   9  15
ENDBRANCH   2  11
ENDBRANCH   1   4
BRANCH   1  18
ATOM     18  C   UNL     1      -1.925  -1.218   6.084  0.00  0.00    +0.234 C 
ATOM     19  O   UNL     1      -2.955  -1.818   5.861  0.00  0.00    -0.274 OA
ATOM     20  N   UNL     1      -1.533  -1.001   7.356  0.00  0.00    -0.284 N 
ATOM     21  H   UNL     1      -0.677  -0.581   7.534  0.00  0.00    +0.155 HD
BRANCH  20  22
ATOM     22  C   UNL     1      -2.362  -1.383   8.419  0.00  0.00    +0.036 A 
ATOM     23  C   UNL     1      -2.412  -0.609   9.572  0.00  0.00    +0.025 A 
ATOM     24  C   UNL     1      -3.226  -0.980  10.623  0.00  0.00    +0.029 A 
ATOM     25  C   UNL     1      -3.997  -2.128  10.529  0.00  0.00    +0.067 A 
ATOM     26  C   UNL     1      -3.949  -2.909   9.372  0.00  0.00    +0.069 A 
ATOM     27  C   UNL     1      -3.134  -2.530   8.316  0.00  0.00    +0.051 A 
ATOM     28  N   UNL     1      -4.817  -3.979   9.572  0.00  0.00    -0.306 N 
ATOM     29  H   UNL     1      -4.995  -4.692   8.938  0.00  0.00    +0.170 HD
ATOM     30  C   UNL     1      -5.369  -3.857  10.793  0.00  0.00    +0.325 A 
ATOM     31  O   UNL     1      -6.175  -4.629  11.279  0.00  0.00    -0.247 OA
ATOM     32  N   UNL     1      -4.895  -2.750  11.396  0.00  0.00    -0.306 N 
ATOM     33  H   UNL     1      -5.136  -2.439  12.283  0.00  0.00    +0.170 HD
ENDBRANCH  20  22
ENDBRANCH   1  18
TORSDOF 6
