REMARK  Name = ZINC11269707
REMARK  5 active torsions:
REMARK  status: ('A' for Active; 'I' for Inactive)
REMARK    1  A    between atoms: C_1  and  C_2
REMARK    2  A    between atoms: N_11  and  C_15
REMARK    3  A    between atoms: C_15  and  C_16
REMARK    4  A    between atoms: N_18  and  N_19
REMARK    5  A    between atoms: C_25  and  C_28
REMARK                            x       y       z     vdW  Elec       q    Type
REMARK                         _______ _______ _______ _____ _____    ______ ____
ROOT
ATOM      1  C   UNL     1       1.267   0.606   5.501  0.00  0.00    +0.248 C 
ATOM      2  O   UNL     1       1.635  -0.530   5.291  0.00  0.00    -0.273 OA
ATOM      3  N   UNL     1       1.182   1.065   6.765  0.00  0.00    -0.222 N 
ATOM      4  H   UNL     1       0.888   1.974   6.933  0.00  0.00    +0.174 HD
ENDROOT
BRANCH   3   5
ATOM      5  N   UNL     1       1.519   0.229   7.838  0.00  0.00    -0.137 N 
ATOM      6  C   UNL     1       0.619  -0.355   8.655  0.00  0.00    +0.263 C 
ATOM      7  O   UNL     1      -0.588  -0.261   8.605  0.00  0.00    -0.271 OA
ATOM      8  C   UNL     1       1.434  -1.152   9.648  0.00  0.00    +0.114 C 
ATOM      9  C   UNL     1       1.190  -0.644  11.065  0.00  0.00    +0.035 C 
ATOM     10  C   UNL     1      -0.275  -0.873  11.445  0.00  0.00    +0.006 C 
ATOM     11  C   UNL     1      -0.596  -2.367  11.358  0.00  0.00    -0.014 C 
ATOM     12  C   UNL     1      -0.367  -2.857   9.927  0.00  0.00    +0.006 C 
ATOM     13  C   UNL     1       1.098  -2.636   9.541  0.00  0.00    +0.035 C 
ATOM     14  C   UNL     1      -2.057  -2.597  11.748  0.00  0.00    +0.007 C 
ATOM     15  N   UNL     1       2.825  -0.908   9.245  0.00  0.00    -0.284 N 
ATOM     16  C   UNL     1       2.774  -0.093   8.175  0.00  0.00    +0.326 C 
ATOM     17  O   UNL     1       3.757   0.307   7.583  0.00  0.00    -0.251 OA
ATOM     18  H   UNL     1       3.623  -1.267   9.665  0.00  0.00    +0.151 HD
ENDBRANCH   3   5
BRANCH   1  19
ATOM     19  C   UNL     1       0.904   1.505   4.347  0.00  0.00    +0.215 C 
BRANCH  19  29
ATOM     20  C   UNL     1      -0.019   1.526   0.010  0.00  0.00    +0.010 C 
ATOM     21  C   UNL     1       0.002  -0.004   0.002  0.00  0.00    +0.018 C 
ATOM     22  C   UNL     1      -1.434  -0.533   0.012  0.00  0.00    +0.006 C 
ATOM     23  C   UNL     1      -1.413  -2.063   0.024  0.00  0.00    +0.000 C 
ATOM     24  C   UNL     1      -0.690  -2.554   1.280  0.00  0.00    +0.003 C 
ATOM     25  C   UNL     1       0.749  -2.033   1.276  0.00  0.00    +0.035 C 
ATOM     26  C   UNL     1       0.741  -0.509   1.237  0.00  0.00    +0.115 C 
ATOM     27  C   UNL     1       0.111   0.049   2.493  0.00  0.00    +0.247 C 
ATOM     28  O   UNL     1      -1.023  -0.123   2.884  0.00  0.00    -0.273 OA
ATOM     29  N   UNL     1       1.078   0.778   3.087  0.00  0.00    -0.215 N 
ATOM     30  C   UNL     1       2.217   0.755   2.383  0.00  0.00    +0.310 C 
ATOM     31  O   UNL     1       3.230   1.337   2.717  0.00  0.00    -0.252 OA
ATOM     32  N   UNL     1       2.113   0.013   1.264  0.00  0.00    -0.285 N 
ATOM     33  H   UNL     1       2.808  -0.145   0.606  0.00  0.00    +0.151 HD
ENDBRANCH  19  29
ENDBRANCH   1  19
TORSDOF 3
