REMARK  Name = ZINC66524708
REMARK  7 active torsions:
REMARK  status: ('A' for Active; 'I' for Inactive)
REMARK    1  A    between atoms: C_1  and  C_2
REMARK    2  A    between atoms: C_2  and  C_3
REMARK    3  A    between atoms: C_3  and  C_5
REMARK    4  A    between atoms: C_3  and  N_15
REMARK    5  A    between atoms: C_16  and  C_18
REMARK    6  A    between atoms: C_18  and  N_19
REMARK    7  A    between atoms: C_25  and  C_28
REMARK                            x       y       z     vdW  Elec       q    Type
REMARK                         _______ _______ _______ _____ _____    ______ ____
ROOT
ATOM      1  N   UNL     1      -2.105  -0.148  -1.230  0.00  0.00    -0.304 N 
ATOM      2  C   UNL     1      -2.690   1.062  -1.334  0.00  0.00    +0.232 C 
ATOM      3  O   UNL     1      -2.659   1.832  -0.397  0.00  0.00    -0.274 OA
ATOM      4  H   UNL     1      -2.130  -0.764  -1.980  0.00  0.00    +0.149 HD
ENDROOT
BRANCH   1   5
ATOM      5  C   UNL     1      -1.433  -0.534   0.013  0.00  0.00    +0.139 C 
BRANCH   5   6
ATOM      6  C   UNL     1      -1.414  -2.036   0.129  0.00  0.00    +0.129 A 
ATOM      7  N   UNL     1      -2.066  -2.753   1.083  0.00  0.00    -0.340 N 
ATOM      8  H   UNL     1      -2.616  -2.393   1.796  0.00  0.00    +0.167 HD
ATOM      9  C   UNL     1      -1.800  -4.087   0.848  0.00  0.00    +0.066 A 
ATOM     10  C   UNL     1      -2.174  -5.271   1.469  0.00  0.00    +0.028 A 
ATOM     11  C   UNL     1      -1.723  -6.475   0.970  0.00  0.00    +0.002 A 
ATOM     12  C   UNL     1      -0.899  -6.510  -0.146  0.00  0.00    +0.002 A 
ATOM     13  C   UNL     1      -0.521  -5.355  -0.769  0.00  0.00    +0.030 A 
ATOM     14  C   UNL     1      -0.966  -4.123  -0.282  0.00  0.00    +0.089 A 
ATOM     15  N   UNL     1      -0.775  -2.837  -0.673  0.00  0.00    -0.231 NA
ENDBRANCH   5   6
BRANCH   5  17
ATOM     16  C   UNL     1      -0.019   1.526   0.010  0.00  0.00    +0.006 C 
ATOM     17  C   UNL     1       0.002  -0.004   0.002  0.00  0.00    +0.027 C 
ENDBRANCH   5  17
ENDBRANCH   1   5
BRANCH   2  18
ATOM     18  C   UNL     1      -3.381   1.458  -2.613  0.00  0.00    +0.213 C 
BRANCH  18  19
ATOM     19  N   UNL     1      -3.931   2.809  -2.472  0.00  0.00    -0.215 N 
ATOM     20  C   UNL     1      -5.170   3.079  -2.011  0.00  0.00    +0.247 C 
ATOM     21  O   UNL     1      -6.008   2.282  -1.648  0.00  0.00    -0.273 OA
ATOM     22  C   UNL     1      -5.292   4.585  -2.042  0.00  0.00    +0.113 C 
ATOM     23  C   UNL     1      -5.523   5.129  -0.636  0.00  0.00    +0.035 C 
ATOM     24  C   UNL     1      -5.614   6.657  -0.686  0.00  0.00    +0.006 C 
ATOM     25  C   UNL     1      -6.765   7.068  -1.606  0.00  0.00    -0.014 C 
ATOM     26  C   UNL     1      -6.508   6.535  -3.017  0.00  0.00    +0.006 C 
ATOM     27  C   UNL     1      -6.421   5.008  -2.976  0.00  0.00    +0.035 C 
ATOM     28  C   UNL     1      -6.864   8.594  -1.647  0.00  0.00    +0.007 C 
ATOM     29  N   UNL     1      -3.996   5.038  -2.563  0.00  0.00    -0.285 N 
ATOM     30  C   UNL     1      -3.265   3.928  -2.780  0.00  0.00    +0.310 C 
ATOM     31  O   UNL     1      -2.128   3.941  -3.212  0.00  0.00    -0.252 OA
ATOM     32  H   UNL     1      -3.720   5.955  -2.717  0.00  0.00    +0.151 HD
ENDBRANCH  18  19
ENDBRANCH   2  18
TORSDOF 5
