REMARK  Name = ZINC25535872
REMARK  13 active torsions:
REMARK  status: ('A' for Active; 'I' for Inactive)
REMARK    1  A    between atoms: C_1  and  C_2
REMARK    2  A    between atoms: C_2  and  O_3
REMARK    3  A    between atoms: O_3  and  C_4
REMARK    4  A    between atoms: C_7  and  O_10
REMARK    5  A    between atoms: O_10  and  C_11
REMARK    6  A    between atoms: C_16  and  N_17
REMARK    7  A    between atoms: C_18  and  C_20
REMARK    8  A    between atoms: C_20  and  S_21
REMARK    9  A    between atoms: S_21  and  C_22
REMARK   10  A    between atoms: C_23  and  C_31
REMARK   11  A    between atoms: C_24  and  C_30
REMARK   12  A    between atoms: C_25  and  C_29
REMARK   13  A    between atoms: C_26  and  C_28
REMARK                            x       y       z     vdW  Elec       q    Type
REMARK                         _______ _______ _______ _____ _____    ______ ____
ROOT
ATOM      1  N   UNL     1       4.353   1.942   5.123  0.00  0.00    -0.282 N 
ATOM      2  C   UNL     1       3.127   2.500   5.165  0.00  0.00    +0.228 C 
ATOM      3  O   UNL     1       2.877   3.354   5.990  0.00  0.00    -0.275 OA
ATOM      4  H   UNL     1       4.572   1.150   4.392  0.00  0.00    +0.155 HD
ENDROOT
BRANCH   1  10
ATOM      5  C   UNL     1       6.692   2.159   5.708  0.00  0.00    +0.150 A 
ATOM      6  C   UNL     1       7.673   2.590   6.588  0.00  0.00    +0.048 A 
ATOM      7  C   UNL     1       7.317   3.218   7.767  0.00  0.00    +0.004 A 
ATOM      8  C   UNL     1       5.983   3.423   8.070  0.00  0.00    +0.002 A 
ATOM      9  C   UNL     1       4.999   3.002   7.196  0.00  0.00    +0.027 A 
ATOM     10  C   UNL     1       5.348   2.371   6.011  0.00  0.00    +0.076 A 
BRANCH   5  11
ATOM     11  O   UNL     1       7.040   1.537   4.551  0.00  0.00    -0.454 OA
BRANCH  11  15
ATOM     12  C   UNL     1      11.035   0.707   3.922  0.00  0.00    +0.121 A 
ATOM     13  C   UNL     1      10.302  -0.052   4.822  0.00  0.00    +0.049 A 
ATOM     14  C   UNL     1       8.966   0.226   5.033  0.00  0.00    +0.050 A 
ATOM     15  C   UNL     1       8.356   1.264   4.344  0.00  0.00    +0.129 A 
ATOM     16  C   UNL     1       9.088   2.020   3.439  0.00  0.00    +0.050 A 
ATOM     17  C   UNL     1      10.425   1.745   3.232  0.00  0.00    +0.049 A 
BRANCH  12  18
ATOM     18  O   UNL     1      12.350   0.434   3.714  0.00  0.00    -0.492 OA
BRANCH  18  20
ATOM     19  C   UNL     1      14.501   0.800   2.674  0.00  0.00    +0.048 C 
ATOM     20  C   UNL     1      13.043   1.256   2.773  0.00  0.00    +0.225 C 
ENDBRANCH  18  20
ENDBRANCH  12  18
ENDBRANCH  11  15
ENDBRANCH   5  11
ENDBRANCH   1  10
BRANCH   2  21
ATOM     21  C   UNL     1       2.066   2.063   4.188  0.00  0.00    +0.171 C 
BRANCH  21  22
ATOM     22  S   UNL     1       0.542   2.990   4.497  0.00  0.00    -0.096 S 
BRANCH  22  23
ATOM     23  C   UNL     1      -0.494   2.299   3.251  0.00  0.00    +0.110 A 
ATOM     24  C   UNL     1      -1.822   2.743   3.120  0.00  0.00    +0.071 A 
ATOM     25  C   UNL     1      -2.626   2.179   2.123  0.00  0.00    -0.031 A 
ATOM     26  C   UNL     1      -2.074   1.210   1.304  0.00  0.00    -0.026 A 
ATOM     27  C   UNL     1      -0.761   0.821   1.497  0.00  0.00    +0.043 A 
ATOM     28  N   UNL     1      -0.019   1.364   2.442  0.00  0.00    -0.245 NA
ATOM     29  C   UNL     1      -0.165  -0.239   0.606  0.00  0.00    +0.066 C 
ATOM     30  C   UNL     1      -2.900   0.579   0.213  0.00  0.00    +0.046 C 
ATOM     31  C   UNL     1      -4.055   2.621   1.942  0.00  0.00    +0.045 C 
BRANCH  24  32
ATOM     32  C   UNL     1      -2.358   3.783   4.017  0.00  0.00    +0.244 C 
ATOM     33  O   UNL     1      -2.263   4.957   3.711  0.00  0.00    -0.270 OA
ATOM     34  N   UNL     1      -2.952   3.434   5.175  0.00  0.00    -0.325 N 
ATOM     35  H   UNL     1      -3.351   4.210   5.844  0.00  0.00    +0.145 HD
ATOM     36  H   UNL     1      -3.037   2.373   5.451  0.00  0.00    +0.145 HD
ENDBRANCH  24  32
ENDBRANCH  22  23
ENDBRANCH  21  22
ENDBRANCH   2  21
TORSDOF 9
