REMARK  Name = ZINC45666465
REMARK  13 active torsions:
REMARK  status: ('A' for Active; 'I' for Inactive)
REMARK    1  A    between atoms: C_1  and  C_2
REMARK    2  A    between atoms: C_2  and  N_3
REMARK    3  A    between atoms: N_3  and  C_4
REMARK    4  A    between atoms: N_3  and  C_6
REMARK    5  A    between atoms: C_4  and  C_5
REMARK    6  A    between atoms: C_6  and  C_7
REMARK    7  A    between atoms: C_7  and  C_9
REMARK    8  A    between atoms: C_7  and  N_10
REMARK    9  A    between atoms: N_10  and  S_11
REMARK   10  A    between atoms: S_11  and  C_14
REMARK   11  A    between atoms: C_16  and  C_22
REMARK   12  A    between atoms: C_17  and  C_21
REMARK   13  A    between atoms: C_19  and  N_20
REMARK                            x       y       z     vdW  Elec       q    Type
REMARK                         _______ _______ _______ _____ _____    ______ ____
ROOT
ATOM      1  S   UNL     1       1.004  -1.853   5.539  0.00  0.00    +0.060 S 
ATOM      2  O   UNL     1      -0.022  -1.603   6.489  0.00  0.00    -0.153 OA
ATOM      3  O   UNL     1       2.056  -2.778   5.778  0.00  0.00    -0.153 OA
ENDROOT
BRANCH   1   4
ATOM      4  C   UNL     1       1.765  -0.301   5.200  0.00  0.00    +0.126 A 
ATOM      5  C   UNL     1       3.142  -0.191   5.200  0.00  0.00    +0.034 A 
ATOM      6  C   UNL     1       3.740   1.027   4.935  0.00  0.00    -0.046 A 
ATOM      7  C   UNL     1       2.963   2.139   4.667  0.00  0.00    -0.046 A 
ATOM      8  C   UNL     1       1.586   2.036   4.665  0.00  0.00    +0.028 A 
ATOM      9  C   UNL     1       0.982   0.813   4.926  0.00  0.00    +0.051 A 
ATOM     10  C   UNL     1       3.619   3.464   4.379  0.00  0.00    +0.044 C 
ATOM     11  C   UNL     1       5.243   1.143   4.937  0.00  0.00    +0.044 C 
BRANCH   9  12
ATOM     12  N   UNL     1      -0.411   0.704   4.919  0.00  0.00    -0.356 N 
ATOM     13  H   UNL     1      -0.833  -0.133   5.166  0.00  0.00    +0.142 HD
ATOM     14  H   UNL     1      -0.956   1.466   4.667  0.00  0.00    +0.142 HD
ENDBRANCH   9  12
ENDBRANCH   1   4
BRANCH   1  15
ATOM     15  N   UNL     1       0.251  -2.343   4.148  0.00  0.00    -0.189 NA
ATOM     16  H   UNL     1      -0.717  -2.403   4.115  0.00  0.00    +0.148 HD
BRANCH  15  17
ATOM     17  C   UNL     1       1.046  -2.687   2.966  0.00  0.00    +0.057 C 
ATOM     18  C   UNL     1       1.364  -4.184   2.983  0.00  0.00    +0.024 C 
BRANCH  17  19
ATOM     19  C   UNL     1       0.253  -2.349   1.702  0.00  0.00    -0.059 C 
BRANCH  19  20
ATOM     20  N   UNL     1      -0.067  -0.915   1.694  0.00  0.00    +0.380 N 
ATOM     21  H   UNL     1      -0.525  -0.668   2.558  0.00  0.00    -0.082 HD
BRANCH  20  23
ATOM     22  C   UNL     1       0.852   1.355   1.673  0.00  0.00    -0.017 C 
ATOM     23  C   UNL     1       1.171  -0.137   1.556  0.00  0.00    -0.082 C 
ENDBRANCH  20  23
BRANCH  20  24
ATOM     24  C   UNL     1      -0.960  -0.619   0.565  0.00  0.00    -0.082 C 
ATOM     25  C   UNL     1      -2.308  -1.308   0.787  0.00  0.00    -0.017 C 
ENDBRANCH  20  24
ENDBRANCH  19  20
ENDBRANCH  17  19
ENDBRANCH  15  17
ENDBRANCH   1  15
TORSDOF 8
