REMARK  Name = ZINC57084277
REMARK  4 active torsions:
REMARK  status: ('A' for Active; 'I' for Inactive)
REMARK    1  A    between atoms: C_6  and  C_7
REMARK    2  A    between atoms: C_7  and  C_9
REMARK    3  A    between atoms: C_7  and  N_14
REMARK    4  A    between atoms: C_15  and  C_17
REMARK                            x       y       z     vdW  Elec       q    Type
REMARK                         _______ _______ _______ _____ _____    ______ ____
ROOT
ATOM      1  C   UNL     1      -1.293  -0.775   0.011  0.00  0.00    +0.134 C 
ENDROOT
BRANCH   1   7
ATOM      2  C   UNL     1      -0.017   1.378   0.010  0.00  0.00    +0.007 A 
ATOM      3  C   UNL     1       1.171   2.086   0.002  0.00  0.00    +0.020 A 
ATOM      4  C   UNL     1       2.378   1.410  -0.013  0.00  0.00    +0.041 A 
ATOM      5  C   UNL     1       2.396   0.027  -0.021  0.00  0.00    +0.020 A 
ATOM      6  C   UNL     1       1.208  -0.679  -0.013  0.00  0.00    +0.007 A 
ATOM      7  C   UNL     1       0.002  -0.004   0.002  0.00  0.00    -0.023 A 
ATOM      8 CL   UNL     1       3.870   2.298  -0.023  0.00  0.00    -0.084 Cl
ENDBRANCH   1   7
BRANCH   1   9
ATOM      9  C   UNL     1      -1.612  -1.236  -1.388  0.00  0.00    -0.016 A 
ATOM     10  C   UNL     1      -2.523  -0.544  -2.164  0.00  0.00    +0.013 A 
ATOM     11  C   UNL     1      -2.787  -0.986  -3.418  0.00  0.00    +0.045 A 
ATOM     12  S   UNL     1      -1.733  -2.422  -3.534  0.00  0.00    -0.105 S 
ATOM     13  C   UNL     1      -1.006  -2.333  -1.905  0.00  0.00    +0.051 A 
ENDBRANCH   1   9
BRANCH   1  14
ATOM     14  N   UNL     1      -1.162  -1.939   0.891  0.00  0.00    -0.299 N 
ATOM     15  C   UNL     1      -2.258  -2.480   1.459  0.00  0.00    +0.265 C 
ATOM     16  O   UNL     1      -3.355  -2.003   1.240  0.00  0.00    -0.268 OA
ATOM     17  H   UNL     1      -0.287  -2.319   1.065  0.00  0.00    +0.150 HD
BRANCH  15  18
ATOM     18  C   UNL     1      -2.127  -3.655   2.348  0.00  0.00    +0.148 A 
ATOM     19  C   UNL     1      -3.264  -4.224   2.934  0.00  0.00    +0.040 A 
ATOM     20  C   UNL     1      -3.089  -5.322   3.758  0.00  0.00    +0.076 A 
ATOM     21  C   UNL     1      -1.793  -5.795   3.954  0.00  0.00    +0.288 A 
ATOM     22  O   UNL     1      -1.576  -6.868   4.752  0.00  0.00    -0.264 OA
ATOM     23  N   UNL     1      -0.772  -5.194   3.357  0.00  0.00    -0.106 NA
ATOM     24  N   UNL     1      -0.930  -4.178   2.588  0.00  0.00    -0.141 NA
ENDBRANCH  15  18
ENDBRANCH   1  14
TORSDOF 4
