REMARK  Name = ZINC16026636
REMARK  7 active torsions:
REMARK  status: ('A' for Active; 'I' for Inactive)
REMARK    1  A    between atoms: C_1  and  C_2
REMARK    2  A    between atoms: C_2  and  C_4
REMARK    3  A    between atoms: C_2  and  O_31
REMARK    4  A    between atoms: C_7  and  C_19
REMARK    5  A    between atoms: N_21  and  C_22
REMARK    6  A    between atoms: C_27  and  O_28
REMARK    7  A    between atoms: O_28  and  C_29
REMARK                            x       y       z     vdW  Elec       q    Type
REMARK                         _______ _______ _______ _____ _____    ______ ____
ROOT
ATOM      1  C   UNL     1       2.190   0.751  -0.603  0.00  0.00    -0.040 C 
ATOM      2  C   UNL     1       1.475   1.994  -0.014  0.00  0.00    -0.001 C 
ATOM      3  C   UNL     1      -0.012   1.566  -0.003  0.00  0.00    +0.076 C 
ATOM      4  C   UNL     1       0.020   0.034  -0.025  0.00  0.00    +0.049 C 
ATOM      5  C   UNL     1      -0.707  -0.505  -1.228  0.00  0.00    -0.028 A 
ATOM      6  C   UNL     1      -0.530  -0.353  -2.585  0.00  0.00    +0.004 A 
ATOM      7  C   UNL     1      -1.381  -0.992  -3.469  0.00  0.00    +0.000 A 
ATOM      8  C   UNL     1      -2.408  -1.782  -2.987  0.00  0.00    +0.002 A 
ATOM      9  C   UNL     1      -2.589  -1.938  -1.628  0.00  0.00    +0.023 A 
ATOM     10  C   UNL     1      -1.737  -1.297  -0.731  0.00  0.00    +0.036 A 
ATOM     11  N   UNL     1      -1.716  -1.295   0.665  0.00  0.00    -0.286 N 
ATOM     12  C   UNL     1      -0.718  -0.539   1.158  0.00  0.00    +0.211 C 
ATOM     13  O   UNL     1      -0.461  -0.353   2.329  0.00  0.00    -0.277 OA
ATOM     14  H   UNL     1      -2.348  -1.783   1.216  0.00  0.00    +0.155 HD
ATOM     15  N   UNL     1       1.420  -0.365  -0.032  0.00  0.00    +0.395 N 
ATOM     16  H   UNL     1       1.736  -0.556   0.926  0.00  0.00    -0.083 HD
ATOM     17  H   UNL     1       1.543  -1.207  -0.607  0.00  0.00    -0.083 HD
ENDROOT
BRANCH   3  18
ATOM     18  C   UNL     1      -0.691   2.059   1.249  0.00  0.00    +0.220 C 
ATOM     19  O   UNL     1      -0.052   2.193   2.272  0.00  0.00    -0.275 OA
ATOM     20  N   UNL     1      -2.006   2.350   1.233  0.00  0.00    -0.282 N 
ATOM     21  H   UNL     1      -2.534   2.164   0.441  0.00  0.00    +0.155 HD
BRANCH  20  22
ATOM     22  C   UNL     1      -2.612   2.920   2.360  0.00  0.00    +0.077 A 
ATOM     23  C   UNL     1      -1.899   3.800   3.162  0.00  0.00    +0.047 A 
ATOM     24  C   UNL     1      -2.500   4.366   4.271  0.00  0.00    +0.043 A 
ATOM     25  C   UNL     1      -3.809   4.049   4.590  0.00  0.00    +0.024 A 
ATOM     26  C   UNL     1      -4.523   3.168   3.798  0.00  0.00    +0.049 A 
ATOM     27  C   UNL     1      -3.929   2.601   2.682  0.00  0.00    +0.141 A 
ATOM     28 CL   UNL     1      -1.610   5.473   5.269  0.00  0.00    -0.083 Cl
BRANCH  27  29
ATOM     29  O   UNL     1      -4.630   1.735   1.903  0.00  0.00    -0.493 OA
ATOM     30  C   UNL     1      -5.976   1.454   2.294  0.00  0.00    +0.277 C 
ENDBRANCH  27  29
ENDBRANCH  20  22
ENDBRANCH   3  18
BRANCH   1  32
ATOM     31  C   UNL     1       4.300  -0.586  -0.655  0.00  0.00    +0.036 C 
ATOM     32  C   UNL     1       3.652   0.707  -0.155  0.00  0.00    +0.098 C 
BRANCH  32  33
ATOM     33  O   UNL     1       4.350   1.830  -0.697  0.00  0.00    -0.394 OA
ATOM     34  H   UNL     1       4.348   1.865  -1.664  0.00  0.00    +0.210 HD
ENDBRANCH  32  33
ENDBRANCH   1  32
TORSDOF 5
