REMARK  Name = ZINC41897413
REMARK  8 active torsions:
REMARK  status: ('A' for Active; 'I' for Inactive)
REMARK    1  A    between atoms: C_1  and  C_2
REMARK    2  A    between atoms: C_8  and  C_28
REMARK    3  A    between atoms: C_8  and  C_29
REMARK    4  A    between atoms: C_10  and  N_12
REMARK    5  A    between atoms: C_13  and  C_15
REMARK    6  A    between atoms: N_17  and  C_18
REMARK    7  A    between atoms: C_23  and  C_24
REMARK    8  A    between atoms: C_24  and  C_25
REMARK                            x       y       z     vdW  Elec       q    Type
REMARK                         _______ _______ _______ _____ _____    ______ ____
ROOT
ATOM      1  N   UNL     1      -2.502  -3.324   0.950  0.00  0.00    -0.301 N 
ATOM      2  C   UNL     1      -3.667  -2.752   0.586  0.00  0.00    +0.300 C 
ATOM      3  O   UNL     1      -3.808  -2.329  -0.543  0.00  0.00    -0.265 OA
ATOM      4  H   UNL     1      -2.389  -3.662   1.851  0.00  0.00    +0.150 HD
ENDROOT
BRANCH   1  14
ATOM      5  C   UNL     1      -0.008   1.471  -0.033  0.00  0.00    +0.086 C 
ATOM      6  C   UNL     1       0.006  -0.036  -0.033  0.00  0.00    +0.103 A 
ATOM      7  C   UNL     1      -1.080  -0.834  -0.023  0.00  0.00    +0.050 A 
ATOM      8  C   UNL     1      -0.607  -2.158  -0.027  0.00  0.00    +0.014 A 
ATOM      9  C   UNL     1       0.740  -2.099  -0.039  0.00  0.00    +0.111 A 
ATOM     10  O   UNL     1       1.105  -0.812  -0.048  0.00  0.00    -0.464 OA
ATOM     11  C   UNL     1       1.636  -3.314  -0.050  0.00  0.00    +0.081 C 
ATOM     12  C   UNL     1       0.798  -4.531  -0.462  0.00  0.00    -0.026 C 
ATOM     13  C   UNL     1      -0.476  -4.586   0.386  0.00  0.00    +0.034 C 
ATOM     14  C   UNL     1      -1.407  -3.435  -0.017  0.00  0.00    +0.107 C 
ATOM     15  C   UNL     1       0.422  -4.414  -1.940  0.00  0.00    +0.011 C 
ATOM     16  C   UNL     1       1.611  -5.808  -0.243  0.00  0.00    +0.011 C 
ENDBRANCH   1  14
BRANCH   2  17
ATOM     17  C   UNL     1      -4.783  -2.639   1.572  0.00  0.00    +0.303 C 
ATOM     18  O   UNL     1      -4.641  -3.062   2.700  0.00  0.00    -0.265 OA
ATOM     19  N   UNL     1      -5.948  -2.067   1.208  0.00  0.00    -0.277 N 
ATOM     20  H   UNL     1      -6.035  -1.657   0.333  0.00  0.00    +0.155 HD
BRANCH  19  21
ATOM     21  C   UNL     1      -7.030  -2.064   2.091  0.00  0.00    +0.037 A 
ATOM     22  C   UNL     1      -7.126  -3.037   3.079  0.00  0.00    +0.023 A 
ATOM     23  C   UNL     1      -8.197  -3.031   3.950  0.00  0.00    +0.002 A 
ATOM     24  C   UNL     1      -9.175  -2.058   3.840  0.00  0.00    +0.000 A 
ATOM     25  C   UNL     1      -9.083  -1.089   2.858  0.00  0.00    +0.006 A 
ATOM     26  C   UNL     1      -8.011  -1.085   1.988  0.00  0.00    -0.017 A 
BRANCH  26  27
ATOM     27  C   UNL     1      -7.908  -0.024   0.922  0.00  0.00    +0.132 C 
BRANCH  27  28
ATOM     28  C   UNL     1      -8.496  -0.545  -0.364  0.00  0.00    +0.215 C 
ATOM     29  O   UNL     1      -8.954  -1.667  -0.411  0.00  0.00    -0.276 OA
ATOM     30  N   UNL     1      -8.514   0.237  -1.462  0.00  0.00    -0.329 N 
ATOM     31  H   UNL     1      -8.147   1.134  -1.424  0.00  0.00    +0.145 HD
ATOM     32  H   UNL     1      -8.892  -0.098  -2.289  0.00  0.00    +0.145 HD
ENDBRANCH  27  28
ENDBRANCH  26  27
ENDBRANCH  19  21
ENDBRANCH   2  17
TORSDOF 5
