REMARK  Name = ZINC37288915
REMARK  7 active torsions:
REMARK  status: ('A' for Active; 'I' for Inactive)
REMARK    1  A    between atoms: C_5  and  O_10
REMARK    2  A    between atoms: C_6  and  N_7
REMARK    3  A    between atoms: O_10  and  C_11
REMARK    4  A    between atoms: C_11  and  C_12
REMARK    5  A    between atoms: C_12  and  C_14
REMARK    6  A    between atoms: C_12  and  O_16
REMARK    7  A    between atoms: C_14  and  N_15
REMARK                            x       y       z     vdW  Elec       q    Type
REMARK                         _______ _______ _______ _____ _____    ______ ____
ROOT
ATOM      1  C   UNL     1      -0.017   1.377   0.010  0.00  0.00    +0.074 A 
ATOM      2  C   UNL     1       1.172   2.087   0.002  0.00  0.00    +0.127 A 
ATOM      3  C   UNL     1       2.382   1.413  -0.013  0.00  0.00    +0.057 A 
ATOM      4  C   UNL     1       2.404   0.031  -0.021  0.00  0.00    +0.064 A 
ATOM      5  C   UNL     1       1.213  -0.681  -0.013  0.00  0.00    +0.165 A 
ATOM      6  C   UNL     1       0.002  -0.004   0.002  0.00  0.00    +0.171 A 
ATOM      7 BR   UNL     1       4.056  -0.889  -0.042  0.00  0.00    -0.046 Br
ATOM      8  F   UNL     1       1.152   3.438   0.009  0.00  0.00    -0.205 F 
ENDROOT
BRANCH   6   9
ATOM      9  N   UNL     1      -1.269  -0.762   0.010  0.00  0.00    +0.060 N 
ATOM     10  O   UNL     1      -2.325  -0.172   0.023  0.00  0.00    -0.126 OA
ATOM     11  O   UNL     1      -1.253  -1.971   0.003  0.00  0.00    -0.126 OA
ENDBRANCH   6   9
BRANCH   5  12
ATOM     12  O   UNL     1       1.232  -2.040  -0.021  0.00  0.00    -0.486 OA
BRANCH  12  13
ATOM     13  C   UNL     1       1.254  -2.696   1.248  0.00  0.00    +0.258 C 
BRANCH  13  14
ATOM     14  C   UNL     1       1.274  -4.212   1.039  0.00  0.00    +0.134 C 
BRANCH  14  15
ATOM     15  O   UNL     1       2.495  -4.588   0.398  0.00  0.00    -0.390 OA
ATOM     16  H   UNL     1       3.289  -4.358   0.900  0.00  0.00    +0.210 HD
ENDBRANCH  14  15
BRANCH  14  17
ATOM     17  C   UNL     1       1.172  -4.915   2.394  0.00  0.00    -0.051 C 
BRANCH  17  18
ATOM     18  N   UNL     1       1.191  -6.370   2.193  0.00  0.00    +0.380 N 
ATOM     19  H   UNL     1       0.410  -6.640   1.614  0.00  0.00    -0.090 HD
ATOM     20  H   UNL     1       2.053  -6.636   1.741  0.00  0.00    -0.090 HD
ATOM     21  H   UNL     1       1.123  -6.834   3.087  0.00  0.00    -0.090 HD
ENDBRANCH  17  18
ENDBRANCH  14  17
ENDBRANCH  13  14
ENDBRANCH  12  13
ENDBRANCH   5  12
TORSDOF 7
