REMARK  Name = ZINC50382228
REMARK  9 active torsions:
REMARK  status: ('A' for Active; 'I' for Inactive)
REMARK    1  A    between atoms: C_1  and  C_2
REMARK    2  A    between atoms: C_4  and  C_24
REMARK    3  A    between atoms: C_7  and  N_8
REMARK    4  A    between atoms: C_9  and  C_11
REMARK    5  A    between atoms: C_14  and  C_19
REMARK    6  A    between atoms: N_26  and  C_27
REMARK    7  A    between atoms: C_27  and  C_28
REMARK    8  A    between atoms: C_28  and  C_29
REMARK    9  A    between atoms: C_28  and  C_30
REMARK                            x       y       z     vdW  Elec       q    Type
REMARK                         _______ _______ _______ _____ _____    ______ ____
ROOT
ATOM      1  N   UNL     1       0.050  -0.013   2.415  0.00  0.00    -0.281 N 
ATOM      2  C   UNL     1      -0.057  -0.689   3.576  0.00  0.00    +0.253 C 
ATOM      3  O   UNL     1      -0.062  -1.905   3.574  0.00  0.00    -0.270 OA
ATOM      4  H   UNL     1       0.127   0.954   2.421  0.00  0.00    +0.155 HD
ENDROOT
BRANCH   2   5
ATOM      5  C   UNL     1      -0.165   0.043   4.843  0.00  0.00    +0.101 A 
ATOM      6  C   UNL     1      -0.145  -0.645   6.061  0.00  0.00    +0.020 A 
ATOM      7  C   UNL     1      -0.249   0.069   7.243  0.00  0.00    +0.030 A 
ATOM      8  C   UNL     1      -0.370   1.453   7.206  0.00  0.00    +0.085 A 
ATOM      9  N   UNL     1      -0.389   2.121   6.012  0.00  0.00    -0.319 N 
ATOM     10  H   UNL     1      -0.475   3.087   6.005  0.00  0.00    +0.169 HD
ATOM     11  C   UNL     1      -0.285   1.455   4.846  0.00  0.00    +0.261 A 
ATOM     12  O   UNL     1      -0.299   2.067   3.792  0.00  0.00    -0.267 OA
BRANCH   8  13
ATOM     13  C   UNL     1      -0.480   2.204   8.459  0.00  0.00    +0.151 A 
ATOM     14  C   UNL     1      -0.610   3.560   8.573  0.00  0.00    +0.051 A 
ATOM     15  C   UNL     1      -0.681   3.844   9.946  0.00  0.00    +0.042 A 
ATOM     16  C   UNL     1      -0.592   2.665  10.601  0.00  0.00    +0.196 A 
ATOM     17  O   UNL     1      -0.476   1.679   9.701  0.00  0.00    -0.461 OA
ENDBRANCH   8  13
ENDBRANCH   2   5
BRANCH   1  24
ATOM     18  C   UNL     1      -1.022   1.298   0.134  0.00  0.00    +0.045 C 
ATOM     19  C   UNL     1      -0.466  -0.100   0.061  0.00  0.00    -0.029 A 
ATOM     20  C   UNL     1      -0.462  -0.778  -1.137  0.00  0.00    +0.018 A 
ATOM     21  C   UNL     1       0.054  -2.075  -1.204  0.00  0.00    +0.037 A 
ATOM     22  C   UNL     1       0.565  -2.680  -0.052  0.00  0.00    +0.015 A 
ATOM     23  C   UNL     1       0.559  -1.997   1.143  0.00  0.00    +0.024 A 
ATOM     24  C   UNL     1       0.050  -0.704   1.205  0.00  0.00    +0.037 A 
BRANCH  21  25
ATOM     25  C   UNL     1       0.058  -2.804  -2.486  0.00  0.00    +0.244 C 
ATOM     26  O   UNL     1      -0.387  -2.277  -3.487  0.00  0.00    -0.270 OA
ATOM     27  N   UNL     1       0.556  -4.055  -2.549  0.00  0.00    -0.311 N 
ATOM     28  H   UNL     1       0.912  -4.476  -1.750  0.00  0.00    +0.149 HD
BRANCH  27  29
ATOM     29  C   UNL     1       0.561  -4.779  -3.822  0.00  0.00    +0.107 C 
BRANCH  29  30
ATOM     30  C   UNL     1       1.175  -6.165  -3.619  0.00  0.00    -0.000 C 
ATOM     31  C   UNL     1       1.067  -6.967  -4.917  0.00  0.00    +0.009 C 
ATOM     32  C   UNL     1       2.648  -6.018  -3.231  0.00  0.00    +0.009 C 
ENDBRANCH  29  30
ENDBRANCH  27  29
ENDBRANCH  21  25
ENDBRANCH   1  24
TORSDOF 6
