REMARK  Name = ZINC06932930
REMARK  10 active torsions:
REMARK  status: ('A' for Active; 'I' for Inactive)
REMARK    1  A    between atoms: C_1  and  C_2
REMARK    2  A    between atoms: C_2  and  C_27
REMARK    3  A    between atoms: C_7  and  C_9
REMARK    4  A    between atoms: C_13  and  O_16
REMARK    5  A    between atoms: C_14  and  O_15
REMARK    6  A    between atoms: O_16  and  C_17
REMARK    7  A    between atoms: N_20  and  C_23
REMARK    8  A    between atoms: C_23  and  C_24
REMARK    9  A    between atoms: C_23  and  C_25
REMARK   10  A    between atoms: C_23  and  C_26
REMARK                            x       y       z     vdW  Elec       q    Type
REMARK                         _______ _______ _______ _____ _____    ______ ____
ROOT
ATOM      1  C   UNL     1       1.694   2.304  -1.435  0.00  0.00    +0.002 C 
ATOM      2  C   UNL     1       1.280   1.975   0.000  0.00  0.00    +0.045 C 
ATOM      3  C   UNL     1       2.390   1.170   0.709  0.00  0.00    +0.086 C 
ATOM      4  C   UNL     1       3.228   2.232   1.471  0.00  0.00    +0.077 C 
ATOM      5  C   UNL     1       2.554   3.580   1.138  0.00  0.00    -0.023 C 
ATOM      6  C   UNL     1       2.991   1.887   2.924  0.00  0.00    +0.225 C 
ATOM      7  O   UNL     1       3.467   2.475   3.870  0.00  0.00    -0.275 OA
ATOM      8  N   UNL     1       2.174   0.830   3.002  0.00  0.00    -0.236 N 
ATOM      9  C   UNL     1       1.776   0.347   1.819  0.00  0.00    +0.225 C 
ATOM     10  O   UNL     1       1.038  -0.602   1.661  0.00  0.00    -0.275 OA
ATOM     11  N   UNL     1       1.179   3.200   0.791  0.00  0.00    +0.395 N 
ATOM     12  H   UNL     1       0.632   3.030   1.643  0.00  0.00    -0.083 HD
ATOM     13  H   UNL     1       0.733   3.943   0.241  0.00  0.00    -0.083 HD
ENDROOT
BRANCH   5  14
ATOM     14  C   UNL     1       2.574   4.487   2.341  0.00  0.00    -0.015 A 
ATOM     15  C   UNL     1       1.481   4.538   3.187  0.00  0.00    +0.006 A 
ATOM     16  C   UNL     1       1.495   5.369   4.291  0.00  0.00    +0.004 A 
ATOM     17  C   UNL     1       2.603   6.153   4.556  0.00  0.00    +0.049 A 
ATOM     18  C   UNL     1       3.701   6.107   3.713  0.00  0.00    +0.161 A 
ATOM     19  C   UNL     1       3.689   5.267   2.604  0.00  0.00    +0.160 A 
BRANCH  19  20
ATOM     20  O   UNL     1       4.767   5.214   1.776  0.00  0.00    -0.503 OA
ATOM     21  H   UNL     1       4.736   5.852   1.050  0.00  0.00    +0.292 HD
ENDBRANCH  19  20
BRANCH  18  22
ATOM     22  O   UNL     1       4.792   6.878   3.972  0.00  0.00    -0.491 OA
ATOM     23  C   UNL     1       4.736   7.712   5.131  0.00  0.00    +0.277 C 
ENDBRANCH  18  22
ENDBRANCH   5  14
BRANCH   8  24
ATOM     24  C   UNL     1       1.751   0.247   4.278  0.00  0.00    +0.036 C 
ATOM     25  C   UNL     1       2.382   1.032   5.430  0.00  0.00    +0.031 C 
ATOM     26  C   UNL     1       0.227   0.316   4.389  0.00  0.00    +0.031 C 
ATOM     27  C   UNL     1       2.203  -1.213   4.347  0.00  0.00    +0.031 C 
ENDBRANCH   8  24
BRANCH   2  28
ATOM     28  C   UNL     1      -0.014   1.204   0.009  0.00  0.00    +0.346 C 
ATOM     29  O   UNL     1      -0.300   0.494  -0.926  0.00  0.00    -0.248 OA
ATOM     30  O   UNL     1      -0.852   1.310   1.052  0.00  0.00    -0.248 OA
ENDBRANCH   2  28
TORSDOF 5
