REMARK  Name = ZINC20418427
REMARK  7 active torsions:
REMARK  status: ('A' for Active; 'I' for Inactive)
REMARK    1  A    between atoms: C_1  and  C_2
REMARK    2  A    between atoms: C_7  and  C_8
REMARK    3  A    between atoms: N_10  and  C_11
REMARK    4  A    between atoms: C_14  and  C_17
REMARK    5  A    between atoms: C_17  and  C_28
REMARK    6  A    between atoms: N_18  and  N_19
REMARK    7  A    between atoms: C_20  and  C_22
REMARK                            x       y       z     vdW  Elec       q    Type
REMARK                         _______ _______ _______ _____ _____    ______ ____
ROOT
ATOM      1  C   UNL     1       5.179   9.846  -0.158  0.00  0.00    +0.034 A 
ATOM      2  C   UNL     1       3.870   9.377  -0.166  0.00  0.00    +0.024 A 
ATOM      3  C   UNL     1       3.622   8.023  -0.216  0.00  0.00    +0.011 A 
ATOM      4  C   UNL     1       4.688   7.120  -0.259  0.00  0.00    -0.002 A 
ATOM      5  C   UNL     1       6.002   7.595  -0.244  0.00  0.00    +0.011 A 
ATOM      6  C   UNL     1       6.242   8.951  -0.200  0.00  0.00    +0.024 A 
ENDROOT
BRANCH   1   9
ATOM      7  C   UNL     1       6.487  11.689   0.579  0.00  0.00    +0.249 C 
ATOM      8  O   UNL     1       7.279  10.913   1.079  0.00  0.00    -0.270 OA
ATOM      9  N   UNL     1       5.427  11.220  -0.107  0.00  0.00    -0.281 N 
ATOM     10  H   UNL     1       4.756  11.919  -0.628  0.00  0.00    +0.155 HD
BRANCH   7  17
ATOM     11  C   UNL     1       8.867  12.681   1.893  0.00  0.00    +0.044 C 
ATOM     12  C   UNL     1       7.832  13.636   1.356  0.00  0.00    -0.038 A 
ATOM     13  C   UNL     1       8.014  14.998   1.488  0.00  0.00    +0.004 A 
ATOM     14  C   UNL     1       7.066  15.876   0.995  0.00  0.00    +0.000 A 
ATOM     15  C   UNL     1       5.929  15.396   0.367  0.00  0.00    +0.001 A 
ATOM     16  C   UNL     1       5.738  14.038   0.224  0.00  0.00    +0.013 A 
ATOM     17  C   UNL     1       6.689  13.146   0.724  0.00  0.00    +0.040 A 
ENDBRANCH   7  17
ENDBRANCH   1   9
BRANCH   4  18
ATOM     18  C   UNL     1       4.427   5.671  -0.313  0.00  0.00    +0.063 C 
ATOM     19  N   UNL     1       3.205   5.231  -0.321  0.00  0.00    -0.184 NA
ATOM     20  C   UNL     1       5.577   4.699  -0.359  0.00  0.00    +0.068 C 
BRANCH  19  21
ATOM     21  N   UNL     1       2.957   3.853  -0.372  0.00  0.00    -0.202 N 
ATOM     22  C   UNL     1       1.689   3.397  -0.380  0.00  0.00    +0.270 C 
ATOM     23  O   UNL     1       0.759   4.182  -0.343  0.00  0.00    -0.268 OA
ATOM     24  H   UNL     1       3.797   3.144  -0.406  0.00  0.00    +0.178 HD
BRANCH  22  25
ATOM     25  C   UNL     1       1.429   1.957  -0.434  0.00  0.00    +0.077 A 
ATOM     26  C   UNL     1       0.214   1.288  -0.450  0.00  0.00    +0.022 A 
ATOM     27  C   UNL     1       0.257  -0.083  -0.504  0.00  0.00    +0.028 A 
ATOM     28  C   UNL     1       1.464  -0.709  -0.537  0.00  0.00    +0.079 A 
ATOM     29  S   UNL     1       2.593   0.606  -0.495  0.00  0.00    -0.072 S 
ATOM     30 CL   UNL     1       1.794  -2.412  -0.606  0.00  0.00    -0.076 Cl
ENDBRANCH  22  25
ENDBRANCH  19  21
ENDBRANCH   4  18
TORSDOF 5
