REMARK  Name = ZINC39462174
REMARK  9 active torsions:
REMARK  status: ('A' for Active; 'I' for Inactive)
REMARK    1  A    between atoms: C_1  and  C_2
REMARK    2  A    between atoms: C_5  and  C_32
REMARK    3  A    between atoms: C_12  and  N_15
REMARK    4  A    between atoms: C_16  and  C_18
REMARK    5  A    between atoms: C_18  and  N_19
REMARK    6  A    between atoms: N_19  and  C_20
REMARK    7  A    between atoms: N_19  and  C_26
REMARK    8  A    between atoms: C_20  and  C_21
REMARK    9  A    between atoms: C_26  and  C_27
REMARK                            x       y       z     vdW  Elec       q    Type
REMARK                         _______ _______ _______ _____ _____    ______ ____
ROOT
ATOM      1  N   UNL     1       1.117  -2.563   1.195  0.00  0.00    -0.288 N 
ATOM      2  C   UNL     1       1.131  -3.438   2.220  0.00  0.00    +0.199 C 
ATOM      3  O   UNL     1       1.941  -3.312   3.114  0.00  0.00    -0.278 OA
ATOM      4  H   UNL     1       0.469  -2.664   0.480  0.00  0.00    +0.151 HD
ENDROOT
BRANCH   1  15
ATOM      5  C   UNL     1       1.016   1.910   0.615  0.00  0.00    +0.043 C 
ATOM      6  C   UNL     1       0.941   0.389   0.469  0.00  0.00    +0.150 C 
ATOM      7  C   UNL     1       1.808  -0.067  -0.677  0.00  0.00    +0.016 A 
ATOM      8  C   UNL     1       2.022   0.402  -1.978  0.00  0.00    +0.065 A 
ATOM      9  N   UNL     1       2.859  -0.218  -2.767  0.00  0.00    -0.176 NA
ATOM     10  N   UNL     1       3.513  -1.261  -2.401  0.00  0.00    -0.243 N 
ATOM     11  C   UNL     1       3.375  -1.788  -1.167  0.00  0.00    +0.272 A 
ATOM     12  O   UNL     1       4.008  -2.780  -0.842  0.00  0.00    -0.266 OA
ATOM     13  C   UNL     1       2.492  -1.175  -0.262  0.00  0.00    +0.072 A 
ATOM     14  H   UNL     1       4.121  -1.681  -3.029  0.00  0.00    +0.192 HD
ATOM     15  C   UNL     1       2.082  -1.461   1.159  0.00  0.00    +0.243 C 
ATOM     16  O   UNL     1       1.470  -0.250   1.646  0.00  0.00    -0.347 OA
ATOM     17  C   UNL     1       1.286   1.621  -2.470  0.00  0.00    +0.068 C 
ENDBRANCH   1  15
BRANCH   2  18
ATOM     18  C   UNL     1       0.139  -4.572   2.257  0.00  0.00    +0.020 C 
BRANCH  18  19
ATOM     19  N   UNL     1       0.358  -5.376   3.466  0.00  0.00    +0.395 N 
ATOM     20  H   UNL     1       1.319  -5.681   3.497  0.00  0.00    -0.080 HD
BRANCH  19  21
ATOM     21  C   UNL     1       0.064  -4.564   4.654  0.00  0.00    -0.002 C 
BRANCH  21  22
ATOM     22  C   UNL     1       0.430  -5.338   5.895  0.00  0.00    +0.089 A 
ATOM     23  C   UNL     1       1.614  -5.292   6.530  0.00  0.00    +0.042 A 
ATOM     24  C   UNL     1       1.520  -6.168   7.636  0.00  0.00    +0.041 A 
ATOM     25  C   UNL     1       0.284  -6.698   7.609  0.00  0.00    +0.195 A 
ATOM     26  O   UNL     1      -0.374  -6.187   6.556  0.00  0.00    -0.470 OA
ENDBRANCH  21  22
ENDBRANCH  19  21
BRANCH  19  27
ATOM     27  C   UNL     1      -0.527  -6.548   3.442  0.00  0.00    -0.002 C 
BRANCH  27  28
ATOM     28  C   UNL     1      -0.143  -7.444   2.293  0.00  0.00    +0.089 A 
ATOM     29  C   UNL     1       0.828  -8.375   2.312  0.00  0.00    +0.042 A 
ATOM     30  C   UNL     1       0.844  -8.976   1.032  0.00  0.00    +0.041 A 
ATOM     31  C   UNL     1      -0.118  -8.376   0.308  0.00  0.00    +0.195 A 
ATOM     32  O   UNL     1      -0.717  -7.454   1.079  0.00  0.00    -0.470 OA
ENDBRANCH  27  28
ENDBRANCH  19  27
ENDBRANCH  18  19
ENDBRANCH   2  18
TORSDOF 7
