REMARK  Name = ZINC64041932
REMARK  12 active torsions:
REMARK  status: ('A' for Active; 'I' for Inactive)
REMARK    1  A    between atoms: C_1  and  C_2
REMARK    2  A    between atoms: C_2  and  C_3
REMARK    3  A    between atoms: C_2  and  C_4
REMARK    4  A    between atoms: C_2  and  C_5
REMARK    5  A    between atoms: C_5  and  C_6
REMARK    6  A    between atoms: N_8  and  C_9
REMARK    7  A    between atoms: C_9  and  C_10
REMARK    8  A    between atoms: C_10  and  C_12
REMARK    9  A    between atoms: C_10  and  C_21
REMARK   10  A    between atoms: C_15  and  N_18
REMARK   11  A    between atoms: N_18  and  C_19
REMARK   12  A    between atoms: N_18  and  C_20
REMARK                            x       y       z     vdW  Elec       q    Type
REMARK                         _______ _______ _______ _____ _____    ______ ____
ROOT
ATOM      1  C   UNL     1       5.047  -0.271  -3.557  0.00  0.00    +0.064 C 
ENDROOT
BRANCH   1   2
ATOM      2  C   UNL     1       5.176  -1.772  -3.506  0.00  0.00    -0.033 C 
ATOM      3  C   UNL     1       4.678  -2.661  -4.395  0.00  0.00    -0.000 A 
ATOM      4  C   UNL     1       3.896  -2.504  -5.627  0.00  0.00    +0.010 A 
ATOM      5  C   UNL     1       3.534  -3.608  -6.319  0.00  0.00    +0.001 A 
ATOM      6  C   UNL     1       3.886  -4.896  -5.890  0.00  0.00    +0.002 A 
ATOM      7  C   UNL     1       4.603  -5.120  -4.769  0.00  0.00    +0.026 A 
ATOM      8  C   UNL     1       5.037  -4.031  -3.963  0.00  0.00    +0.043 A 
ATOM      9  N   UNL     1       5.730  -3.990  -2.851  0.00  0.00    -0.380 N 
ATOM     10  C   UNL     1       5.894  -2.587  -2.454  0.00  0.00    +0.145 C 
ATOM     11  H   UNL     1       6.079  -4.758  -2.373  0.00  0.00    +0.160 HD
ENDBRANCH   1   2
BRANCH   1  12
ATOM     12  C   UNL     1       6.419   0.349  -3.630  0.00  0.00    -0.039 A 
ATOM     13  C   UNL     1       7.334   0.121  -2.619  0.00  0.00    +0.006 A 
ATOM     14  C   UNL     1       8.591   0.688  -2.683  0.00  0.00    +0.023 A 
ATOM     15  C   UNL     1       8.937   1.487  -3.765  0.00  0.00    +0.029 A 
ATOM     16  C   UNL     1       8.016   1.714  -4.779  0.00  0.00    +0.023 A 
ATOM     17  C   UNL     1       6.761   1.140  -4.712  0.00  0.00    +0.006 A 
BRANCH  15  18
ATOM     18  N   UNL     1      10.208   2.062  -3.833  0.00  0.00    -0.336 N 
ATOM     19  C   UNL     1      11.179   1.822  -2.762  0.00  0.00    +0.129 C 
ATOM     20  C   UNL     1      10.571   2.905  -4.974  0.00  0.00    +0.129 C 
ENDBRANCH  15  18
ENDBRANCH   1  12
BRANCH   1  21
ATOM     21  C   UNL     1       4.331   0.222  -2.298  0.00  0.00    +0.116 C 
BRANCH  21  24
ATOM     22  C   UNL     1       2.132   0.024  -1.268  0.00  0.00    +0.214 C 
ATOM     23  O   UNL     1       2.528   0.722  -0.358  0.00  0.00    -0.276 OA
ATOM     24  N   UNL     1       2.957  -0.285  -2.288  0.00  0.00    -0.314 N 
ATOM     25  H   UNL     1       2.640  -0.843  -3.015  0.00  0.00    +0.149 HD
BRANCH  22  26
ATOM     26  C   UNL     1       0.718  -0.497  -1.257  0.00  0.00    +0.102 C 
BRANCH  26  28
ATOM     27  C   UNL     1      -0.019   1.526   0.010  0.00  0.00    +0.011 C 
ATOM     28  C   UNL     1       0.002  -0.004   0.002  0.00  0.00    -0.029 C 
ATOM     29  C   UNL     1       0.742  -0.511   1.242  0.00  0.00    +0.011 C 
ATOM     30  C   UNL     1      -1.433  -0.534   0.013  0.00  0.00    +0.011 C 
ENDBRANCH  26  28
ENDBRANCH  22  26
ENDBRANCH  21  24
ENDBRANCH   1  21
TORSDOF 7
