REMARK  Name = ZINC00881832
REMARK  9 active torsions:
REMARK  status: ('A' for Active; 'I' for Inactive)
REMARK    1  A    between atoms: C_1  and  C_2
REMARK    2  A    between atoms: C_4  and  O_29
REMARK    3  A    between atoms: C_8  and  C_21
REMARK    4  A    between atoms: C_14  and  C_19
REMARK    5  A    between atoms: C_14  and  C_20
REMARK    6  A    between atoms: C_24  and  O_27
REMARK    7  A    between atoms: O_27  and  C_28
REMARK    8  A    between atoms: O_29  and  C_30
REMARK    9  A    between atoms: C_30  and  C_32
REMARK                            x       y       z     vdW  Elec       q    Type
REMARK                         _______ _______ _______ _____ _____    ______ ____
ROOT
ATOM      1  C   UNL     1       3.481   7.405  -0.020  0.00  0.00    +0.044 C 
ATOM      2  C   UNL     1       2.839   6.472  -1.015  0.00  0.00    -0.040 A 
ATOM      3  C   UNL     1       2.964   6.720  -2.367  0.00  0.00    +0.050 A 
ATOM      4  C   UNL     1       2.375   5.863  -3.285  0.00  0.00    +0.135 A 
ATOM      5  C   UNL     1       1.661   4.762  -2.841  0.00  0.00    +0.092 A 
ATOM      6  C   UNL     1       1.534   4.515  -1.479  0.00  0.00    +0.131 A 
ATOM      7  C   UNL     1       2.128   5.372  -0.567  0.00  0.00    +0.005 A 
ATOM      8  C   UNL     1       2.020   5.135   0.918  0.00  0.00    +0.058 C 
ATOM      9  C   UNL     1       0.860   4.178   1.205  0.00  0.00    +0.081 C 
ATOM     10  C   UNL     1       0.979   2.977   0.260  0.00  0.00    +0.180 C 
ATOM     11  O   UNL     1       0.814   3.434  -1.081  0.00  0.00    -0.468 OA
ATOM     12  C   UNL     1       2.358   2.334   0.422  0.00  0.00    +0.094 C 
ATOM     13  C   UNL     1       2.413   1.070  -0.443  0.00  0.00    +0.033 C 
ATOM     14  N   UNL     1       1.302   0.190  -0.077  0.00  0.00    -0.321 N 
ATOM     15  C   UNL     1       0.146   0.682   0.394  0.00  0.00    +0.133 C 
ATOM     16  S   UNL     1      -1.117  -0.408   0.776  0.00  0.00    -0.019 S 
ATOM     17  N   UNL     1      -0.056   1.995   0.583  0.00  0.00    -0.289 N 
ATOM     18  C   UNL     1       3.739   0.345  -0.205  0.00  0.00    +0.031 C 
ATOM     19  C   UNL     1       2.297   1.454  -1.919  0.00  0.00    +0.031 C 
ATOM     20  H   UNL     1       1.402  -0.769  -0.182  0.00  0.00    +0.148 HD
ATOM     21  H   UNL     1      -0.906   2.299   0.937  0.00  0.00    +0.151 HD
ENDROOT
BRANCH   8  22
ATOM     22  C   UNL     1       1.773   6.446   1.618  0.00  0.00    -0.039 A 
ATOM     23  C   UNL     1       0.707   7.241   1.238  0.00  0.00    +0.008 A 
ATOM     24  C   UNL     1       0.475   8.441   1.881  0.00  0.00    +0.046 A 
ATOM     25  C   UNL     1       1.318   8.854   2.902  0.00  0.00    +0.120 A 
ATOM     26  C   UNL     1       2.390   8.058   3.278  0.00  0.00    +0.046 A 
ATOM     27  C   UNL     1       2.615   6.856   2.635  0.00  0.00    +0.008 A 
BRANCH  25  28
ATOM     28  O   UNL     1       1.095  10.037   3.533  0.00  0.00    -0.495 OA
ATOM     29  C   UNL     1      -0.027  10.805   3.094  0.00  0.00    +0.277 C 
ENDBRANCH  25  28
ENDBRANCH   8  22
BRANCH   4  30
ATOM     30  O   UNL     1       2.498   6.102  -4.618  0.00  0.00    -0.426 OA
BRANCH  30  31
ATOM     31  C   UNL     1       1.389   6.481  -5.274  0.00  0.00    +0.309 C 
ATOM     32  O   UNL     1       0.361   6.668  -4.666  0.00  0.00    -0.251 OA
ATOM     33  C   UNL     1       1.427   6.675  -6.768  0.00  0.00    +0.136 C 
ENDBRANCH  30  31
ENDBRANCH   4  30
TORSDOF 4
