REMARK  Name = ZINC59497854
REMARK  3 active torsions:
REMARK  status: ('A' for Active; 'I' for Inactive)
REMARK    1  A    between atoms: C_1  and  N_2
REMARK    2  A    between atoms: C_9  and  N_25
REMARK    3  A    between atoms: N_13  and  C_18
REMARK                            x       y       z     vdW  Elec       q    Type
REMARK                         _______ _______ _______ _____ _____    ______ ____
ROOT
ATOM      1  C   UNL     1      -0.402   0.676  -2.801  0.00  0.00    +0.157 C 
ATOM      2  N   UNL     1      -0.279  -0.578  -2.053  0.00  0.00    -0.262 N 
ATOM      3  C   UNL     1      -1.362  -1.082  -1.417  0.00  0.00    +0.266 A 
ATOM      4  O   UNL     1      -2.438  -0.517  -1.452  0.00  0.00    -0.267 OA
ATOM      5  C   UNL     1      -1.181  -2.344  -0.680  0.00  0.00    +0.083 A 
ATOM      6  C   UNL     1      -2.213  -2.951   0.005  0.00  0.00    +0.027 A 
ATOM      7  C   UNL     1      -1.957  -4.164   0.688  0.00  0.00    +0.002 A 
ATOM      8  C   UNL     1      -2.987  -4.806   1.394  0.00  0.00    +0.042 A 
ATOM      9  C   UNL     1      -2.736  -5.975   2.050  0.00  0.00    +0.127 A 
ATOM     10  C   UNL     1      -1.466  -6.539   2.026  0.00  0.00    +0.035 A 
ATOM     11  C   UNL     1      -0.439  -5.930   1.341  0.00  0.00    +0.029 A 
ATOM     12  C   UNL     1      -0.668  -4.735   0.662  0.00  0.00    +0.056 A 
ATOM     13  N   UNL     1       0.363  -4.126  -0.024  0.00  0.00    -0.293 N 
ATOM     14  C   UNL     1       0.151  -2.956  -0.692  0.00  0.00    +0.156 A 
ATOM     15  N   UNL     1       1.120  -2.345  -1.361  0.00  0.00    -0.174 NA
ATOM     16  C   UNL     1       0.904  -1.209  -2.015  0.00  0.00    +0.353 A 
ATOM     17  O   UNL     1       1.839  -0.706  -2.613  0.00  0.00    -0.244 OA
ENDROOT
BRANCH  13  18
ATOM     18  C   UNL     1       1.633  -4.712  -0.034  0.00  0.00    +0.049 A 
ATOM     19  C   UNL     1       1.973  -5.620  -1.029  0.00  0.00    +0.027 A 
ATOM     20  C   UNL     1       3.228  -6.197  -1.036  0.00  0.00    +0.016 A 
ATOM     21  C   UNL     1       4.145  -5.872  -0.053  0.00  0.00    +0.014 A 
ATOM     22  C   UNL     1       3.810  -4.968   0.939  0.00  0.00    +0.016 A 
ATOM     23  C   UNL     1       2.559  -4.384   0.948  0.00  0.00    +0.027 A 
ATOM     24  I   UNL     1       6.047  -6.750  -0.068  0.00  0.00    -0.044 I 
ENDBRANCH  13  18
BRANCH   9  25
ATOM     25  N   UNL     1      -3.824  -6.649   2.793  0.00  0.00    +0.056 N 
ATOM     26  O   UNL     1      -4.931  -6.162   2.817  0.00  0.00    -0.126 OA
ATOM     27  O   UNL     1      -3.607  -7.685   3.376  0.00  0.00    -0.126 OA
ENDBRANCH   9  25
TORSDOF 2
