REMARK  Name = ZINC39362923
REMARK  6 active torsions:
REMARK  status: ('A' for Active; 'I' for Inactive)
REMARK    1  A    between atoms: C_5  and  C_7
REMARK    2  A    between atoms: C_7  and  S_8
REMARK    3  A    between atoms: S_8  and  C_9
REMARK    4  A    between atoms: C_12  and  C_22
REMARK    5  A    between atoms: N_14  and  C_15
REMARK    6  A    between atoms: C_22  and  C_23
REMARK                            x       y       z     vdW  Elec       q    Type
REMARK                         _______ _______ _______ _____ _____    ______ ____
ROOT
ATOM      1  C   UNL     1       1.243  -4.554   1.507  0.00  0.00    +0.180 C 
ATOM      2  N   UNL     1       1.255  -5.165   0.371  0.00  0.00    -0.162 NA
ATOM      3  N   UNL     1       1.315  -6.554   0.535  0.00  0.00    -0.246 N 
ATOM      4  C   UNL     1       1.342  -6.794   1.988  0.00  0.00    +0.187 C 
ATOM      5  N   UNL     1       1.298  -5.442   2.571  0.00  0.00    -0.258 N 
ATOM      6  H   UNL     1       1.334  -7.223  -0.166  0.00  0.00    +0.170 HD
ENDROOT
BRANCH   5   7
ATOM      7  C   UNL     1       1.308  -5.118   3.932  0.00  0.00    +0.038 A 
ATOM      8  C   UNL     1       0.234  -5.470   4.739  0.00  0.00    +0.026 A 
ATOM      9  C   UNL     1       0.246  -5.149   6.082  0.00  0.00    +0.040 A 
ATOM     10  C   UNL     1       1.328  -4.476   6.624  0.00  0.00    +0.124 A 
ATOM     11  C   UNL     1       2.400  -4.124   5.822  0.00  0.00    +0.040 A 
ATOM     12  C   UNL     1       2.395  -4.448   4.479  0.00  0.00    +0.026 A 
ATOM     13  F   UNL     1       1.337  -4.162   7.938  0.00  0.00    -0.205 F 
ENDBRANCH   5   7
BRANCH   1  14
ATOM     14  S   UNL     1       1.173  -2.803   1.686  0.00  0.00    -0.084 S 
BRANCH  14  15
ATOM     15  C   UNL     1       1.118  -2.189  -0.020  0.00  0.00    +0.113 C 
BRANCH  15  20
ATOM     16  C   UNL     1      -0.228   1.338   0.021  0.00  0.00    +0.000 A 
ATOM     17  C   UNL     1       0.939   2.080   0.005  0.00  0.00    +0.001 A 
ATOM     18  C   UNL     1       2.164   1.440  -0.019  0.00  0.00    +0.020 A 
ATOM     19  C   UNL     1       2.223   0.058  -0.027  0.00  0.00    +0.045 A 
ATOM     20  C   UNL     1       1.055  -0.683  -0.011  0.00  0.00    -0.019 A 
ATOM     21  C   UNL     1      -0.170  -0.043   0.013  0.00  0.00    +0.006 A 
ATOM     22 CL   UNL     1       3.761  -0.746  -0.057  0.00  0.00    -0.083 Cl
ENDBRANCH  15  20
ENDBRANCH  14  15
ENDBRANCH   1  14
BRANCH   4  23
ATOM     23  C   UNL     1       2.634  -7.509   2.391  0.00  0.00    +0.097 C 
BRANCH  23  24
ATOM     24  C   UNL     1       2.702  -8.848   1.702  0.00  0.00    +0.029 A 
ATOM     25  N   UNL     1       2.079  -9.935   2.251  0.00  0.00    -0.311 N 
ATOM     26  C   UNL     1       2.134 -11.135   1.644  0.00  0.00    +0.327 A 
ATOM     27  O   UNL     1       1.573 -12.088   2.149  0.00  0.00    -0.247 OA
ATOM     28  N   UNL     1       2.800 -11.294   0.485  0.00  0.00    -0.275 N 
ATOM     29  C   UNL     1       3.427 -10.247  -0.088  0.00  0.00    +0.254 A 
ATOM     30  O   UNL     1       4.030 -10.390  -1.136  0.00  0.00    -0.268 OA
ATOM     31  C   UNL     1       3.374  -8.978   0.538  0.00  0.00    +0.091 A 
ATOM     32  H   UNL     1       2.830 -12.166   0.061  0.00  0.00    +0.173 HD
ATOM     33  H   UNL     1       1.594  -9.841   3.085  0.00  0.00    +0.170 HD
ENDBRANCH  23  24
ENDBRANCH   4  23
TORSDOF 6
