REMARK  Name = ZINC52295601
REMARK  6 active torsions:
REMARK  status: ('A' for Active; 'I' for Inactive)
REMARK    1  A    between atoms: C_1  and  C_2
REMARK    2  A    between atoms: C_5  and  N_7
REMARK    3  A    between atoms: N_7  and  S_8
REMARK    4  A    between atoms: S_8  and  C_11
REMARK    5  A    between atoms: C_16  and  N_17
REMARK    6  A    between atoms: N_17  and  N_18
REMARK                            x       y       z     vdW  Elec       q    Type
REMARK                         _______ _______ _______ _____ _____    ______ ____
ROOT
ATOM      1  C   UNL     1       2.563  -2.566   3.308  0.00  0.00    +0.127 A 
ATOM      2  C   UNL     1       2.961  -1.647   4.258  0.00  0.00    +0.030 A 
ATOM      3  C   UNL     1       2.703  -1.877   5.596  0.00  0.00    +0.002 A 
ATOM      4  C   UNL     1       2.045  -3.029   5.989  0.00  0.00    +0.002 A 
ATOM      5  C   UNL     1       1.644  -3.953   5.044  0.00  0.00    +0.026 A 
ATOM      6  C   UNL     1       1.897  -3.721   3.697  0.00  0.00    +0.067 A 
ENDROOT
BRANCH   1   7
ATOM      7  S   UNL     1       2.893  -2.272   1.602  0.00  0.00    +0.060 S 
ATOM      8  O   UNL     1       3.489  -3.457   1.093  0.00  0.00    -0.153 OA
ATOM      9  O   UNL     1       3.530  -1.004   1.525  0.00  0.00    -0.153 OA
BRANCH   7  10
ATOM     10  N   UNL     1       1.431  -2.113   0.841  0.00  0.00    -0.187 NA
ATOM     11  H   UNL     1       1.161  -2.759   0.169  0.00  0.00    +0.148 HD
BRANCH  10  15
ATOM     12  C   UNL     1      -0.535   1.127   0.102  0.00  0.00    +0.009 C 
ATOM     13  C   UNL     1      -0.283  -0.382   0.052  0.00  0.00    +0.006 C 
ATOM     14  C   UNL     1      -0.964  -1.247   1.114  0.00  0.00    +0.025 C 
ATOM     15  C   UNL     1       0.544  -0.997   1.182  0.00  0.00    +0.080 C 
ENDBRANCH  10  15
ENDBRANCH   7  10
ENDBRANCH   1   7
BRANCH   6  16
ATOM     16  N   UNL     1       1.487  -4.651   2.739  0.00  0.00    -0.281 N 
ATOM     17  H   UNL     1       1.596  -4.454   1.795  0.00  0.00    +0.166 HD
BRANCH  16  18
ATOM     18  N   UNL     1       0.934  -5.837   3.130  0.00  0.00    -0.256 NA
ATOM     19  H   UNL     1       0.689  -6.402   2.331  0.00  0.00    +0.140 HD
ATOM     20  H   UNL     1       1.552  -6.337   3.751  0.00  0.00    +0.140 HD
ENDBRANCH  16  18
ENDBRANCH   6  16
TORSDOF 5
