REMARK  Name = ZINC05061165
REMARK  9 active torsions:
REMARK  status: ('A' for Active; 'I' for Inactive)
REMARK    1  A    between atoms: C_1  and  C_2
REMARK    2  A    between atoms: C_7  and  C_8
REMARK    3  A    between atoms: C_8  and  N_9
REMARK    4  A    between atoms: N_9  and  C_10
REMARK    5  A    between atoms: C_11  and  C_13
REMARK    6  A    between atoms: C_13  and  O_14
REMARK    7  A    between atoms: O_14  and  C_15
REMARK    8  A    between atoms: C_15  and  C_17
REMARK    9  A    between atoms: C_20  and  O_23
REMARK                            x       y       z     vdW  Elec       q    Type
REMARK                         _______ _______ _______ _____ _____    ______ ____
ROOT
ATOM      1  N   UNL     1       0.009  -0.002   0.018  0.00  0.00    -0.297 N 
ATOM      2  C   UNL     1      -0.022   1.462   0.025  0.00  0.00    +0.132 C 
ATOM      3  C   UNL     1       0.149  -0.679   1.175  0.00  0.00    +0.253 C 
ATOM      4  O   UNL     1       0.266  -1.887   1.161  0.00  0.00    -0.272 OA
ENDROOT
BRANCH   1   5
ATOM      5  C   UNL     1      -0.111  -0.731  -1.248  0.00  0.00    +0.142 C 
BRANCH   5  12
ATOM      6  C   UNL     1       1.442   1.270  -2.637  0.00  0.00    +0.044 C 
ATOM      7  C   UNL     1       2.007  -0.112  -2.430  0.00  0.00    -0.046 A 
ATOM      8  C   UNL     1       3.268  -0.422  -2.904  0.00  0.00    +0.003 A 
ATOM      9  C   UNL     1       3.786  -1.689  -2.713  0.00  0.00    +0.000 A 
ATOM     10  C   UNL     1       3.043  -2.647  -2.048  0.00  0.00    +0.000 A 
ATOM     11  C   UNL     1       1.784  -2.335  -1.569  0.00  0.00    +0.005 A 
ATOM     12  C   UNL     1       1.264  -1.069  -1.765  0.00  0.00    -0.027 A 
ENDBRANCH   5  12
ENDBRANCH   1   5
BRANCH   3  13
ATOM     13  C   UNL     1       0.160   0.063   2.486  0.00  0.00    +0.328 C 
BRANCH  13  14
ATOM     14  O   UNL     1       0.321  -0.882   3.576  0.00  0.00    -0.452 OA
BRANCH  14  15
ATOM     15  C   UNL     1       0.351  -0.376   4.825  0.00  0.00    +0.340 C 
ATOM     16  O   UNL     1       0.245   0.822   4.998  0.00  0.00    -0.245 OA
BRANCH  15  17
ATOM     17  C   UNL     1       0.512  -1.277   5.982  0.00  0.00    +0.059 A 
ATOM     18  C   UNL     1       0.629  -2.656   5.785  0.00  0.00    +0.018 A 
ATOM     19  C   UNL     1       0.785  -3.492   6.867  0.00  0.00    +0.046 A 
ATOM     20  C   UNL     1       0.815  -2.969   8.155  0.00  0.00    +0.117 A 
ATOM     21  C   UNL     1       0.694  -1.598   8.355  0.00  0.00    +0.046 A 
ATOM     22  C   UNL     1       0.543  -0.754   7.278  0.00  0.00    +0.018 A 
BRANCH  20  23
ATOM     23  O   UNL     1       0.964  -3.797   9.219  0.00  0.00    -0.507 OA
ATOM     24  H   UNL     1       0.130  -4.123   9.584  0.00  0.00    +0.292 HD
ENDBRANCH  20  23
ENDBRANCH  15  17
ENDBRANCH  14  15
ENDBRANCH  13  14
ENDBRANCH   3  13
TORSDOF 7
