REMARK  Name = ZINC53113144
REMARK  7 active torsions:
REMARK  status: ('A' for Active; 'I' for Inactive)
REMARK    1  A    between atoms: C_1  and  C_2
REMARK    2  A    between atoms: C_7  and  C_9
REMARK    3  A    between atoms: C_7  and  N_11
REMARK    4  A    between atoms: C_9  and  O_10
REMARK    5  A    between atoms: N_11  and  S_12
REMARK    6  A    between atoms: S_12  and  C_15
REMARK    7  A    between atoms: C_20  and  N_21
REMARK                            x       y       z     vdW  Elec       q    Type
REMARK                         _______ _______ _______ _____ _____    ______ ____
ROOT
ATOM      1  N   UNL     1       0.018   1.456   2.593  0.00  0.00    -0.182 NA
ATOM      2  H   UNL     1      -0.875   1.715   2.872  0.00  0.00    +0.149 HD
ENDROOT
BRANCH   1   8
ATOM      3  C   UNL     1      -0.925   1.871   0.316  0.00  0.00    +0.007 C 
ATOM      4  C   UNL     1      -0.625   0.411  -0.030  0.00  0.00    -0.012 C 
ATOM      5  C   UNL     1      -1.833  -0.457   0.327  0.00  0.00    +0.003 C 
ATOM      6  C   UNL     1      -2.122  -0.337   1.824  0.00  0.00    +0.002 C 
ATOM      7  C   UNL     1      -0.903  -0.809   2.619  0.00  0.00    +0.026 C 
ATOM      8  C   UNL     1       0.305   0.059   2.262  0.00  0.00    +0.063 C 
ATOM      9  C   UNL     1       0.595  -0.061   0.764  0.00  0.00    +0.029 C 
BRANCH   8  10
ATOM     10  C   UNL     1       1.525  -0.413   3.056  0.00  0.00    +0.179 C 
BRANCH  10  11
ATOM     11  O   UNL     1       1.270  -0.264   4.454  0.00  0.00    -0.393 OA
ATOM     12  H   UNL     1       1.969  -0.616   5.021  0.00  0.00    +0.209 HD
ENDBRANCH  10  11
ENDBRANCH   8  10
ENDBRANCH   1   8
BRANCH   1  13
ATOM     13  S   UNL     1       1.216   2.595   2.493  0.00  0.00    +0.061 S 
ATOM     14  O   UNL     1       1.900   2.358   1.270  0.00  0.00    -0.153 OA
ATOM     15  O   UNL     1       0.616   3.845   2.800  0.00  0.00    -0.153 OA
BRANCH  13  16
ATOM     16  C   UNL     1       2.365   2.257   3.786  0.00  0.00    +0.126 A 
ATOM     17  C   UNL     1       3.661   1.890   3.480  0.00  0.00    +0.030 A 
ATOM     18  C   UNL     1       4.563   1.624   4.494  0.00  0.00    +0.002 A 
ATOM     19  C   UNL     1       4.172   1.725   5.816  0.00  0.00    +0.002 A 
ATOM     20  C   UNL     1       2.878   2.091   6.129  0.00  0.00    +0.025 A 
ATOM     21  C   UNL     1       1.970   2.364   5.113  0.00  0.00    +0.051 A 
BRANCH  21  22
ATOM     22  N   UNL     1       0.662   2.741   5.425  0.00  0.00    -0.356 N 
ATOM     23  H   UNL     1       0.007   2.850   4.718  0.00  0.00    +0.142 HD
ATOM     24  H   UNL     1       0.409   2.893   6.349  0.00  0.00    +0.142 HD
ENDBRANCH  21  22
ENDBRANCH  13  16
ENDBRANCH   1  13
TORSDOF 6
