REMARK  Name = ZINC45092982
REMARK  7 active torsions:
REMARK  status: ('A' for Active; 'I' for Inactive)
REMARK    1  A    between atoms: C_1  and  C_2
REMARK    2  A    between atoms: C_2  and  C_3
REMARK    3  A    between atoms: C_3  and  N_4
REMARK    4  A    between atoms: N_4  and  C_5
REMARK    5  A    between atoms: C_5  and  C_6
REMARK    6  A    between atoms: N_7  and  O_8
REMARK    7  A    between atoms: N_12  and  C_13
REMARK                            x       y       z     vdW  Elec       q    Type
REMARK                         _______ _______ _______ _____ _____    ______ ____
ROOT
ATOM      1  N   UNL     1       0.747  -1.963  -1.281  0.00  0.00    -0.278 N 
ATOM      2  C   UNL     1       1.767  -2.626  -0.701  0.00  0.00    +0.307 C 
ATOM      3  O   UNL     1       1.782  -3.842  -0.703  0.00  0.00    -0.252 OA
ATOM      4  N   UNL     1       2.771  -1.941  -0.117  0.00  0.00    -0.267 N 
ATOM      5  H   UNL     1       2.792  -0.973  -0.170  0.00  0.00    +0.156 HD
ENDROOT
BRANCH   4   6
ATOM      6  C   UNL     1       3.783  -2.628   0.567  0.00  0.00    +0.070 A 
ATOM      7  C   UNL     1       4.211  -3.868   0.114  0.00  0.00    +0.029 A 
ATOM      8  C   UNL     1       5.209  -4.544   0.789  0.00  0.00    +0.040 A 
ATOM      9  C   UNL     1       5.783  -3.985   1.918  0.00  0.00    +0.126 A 
ATOM     10  C   UNL     1       5.359  -2.749   2.374  0.00  0.00    +0.078 A 
ATOM     11  C   UNL     1       4.364  -2.066   1.698  0.00  0.00    +0.147 A 
ATOM     12  F   UNL     1       3.954  -0.857   2.139  0.00  0.00    -0.203 F 
ATOM     13  F   UNL     1       6.759  -4.649   2.577  0.00  0.00    -0.205 F 
ENDBRANCH   4   6
BRANCH   1  14
ATOM     14  C   UNL     1       0.729  -0.498  -1.277  0.00  0.00    +0.109 C 
BRANCH  14  16
ATOM     15  C   UNL     1      -0.015   1.530  -0.022  0.00  0.00    +0.005 C 
ATOM     16  C   UNL     1       0.004  -0.000  -0.026  0.00  0.00    +0.016 C 
ENDBRANCH  14  16
ENDBRANCH   1  14
BRANCH   1  17
ATOM     17  C   UNL     1      -0.344  -2.708  -1.915  0.00  0.00    +0.183 C 
BRANCH  17  18
ATOM     18  C   UNL     1      -0.009  -2.951  -3.364  0.00  0.00    +0.149 C 
ATOM     19  N   UNL     1       1.105  -2.517  -3.852  0.00  0.00    -0.075 NA
ATOM     20  N   UNL     1      -0.892  -3.637  -4.169  0.00  0.00    -0.343 N 
ATOM     21  H   UNL     1      -1.729  -3.963  -3.803  0.00  0.00    +0.144 HD
ATOM     22  H   UNL     1      -0.676  -3.794  -5.101  0.00  0.00    +0.144 HD
BRANCH  19  23
ATOM     23  O   UNL     1       1.420  -2.745  -5.213  0.00  0.00    -0.408 OA
ATOM     24  H   UNL     1       2.274  -2.383  -5.486  0.00  0.00    +0.328 HD
ENDBRANCH  19  23
ENDBRANCH  17  18
ENDBRANCH   1  17
TORSDOF 6
