REMARK  Name = ZINC19718045
REMARK  8 active torsions:
REMARK  status: ('A' for Active; 'I' for Inactive)
REMARK    1  A    between atoms: C_1  and  C_2
REMARK    2  A    between atoms: C_2  and  N_3
REMARK    3  A    between atoms: C_5  and  C_8
REMARK    4  A    between atoms: C_10  and  N_15
REMARK    5  A    between atoms: N_15  and  C_16
REMARK    6  A    between atoms: C_16  and  C_17
REMARK    7  A    between atoms: C_17  and  C_19
REMARK    8  A    between atoms: C_17  and  N_26
REMARK                            x       y       z     vdW  Elec       q    Type
REMARK                         _______ _______ _______ _____ _____    ______ ____
ROOT
ATOM      1  N   UNL     1      -7.678  -3.596  -1.039  0.00  0.00    -0.330 N 
ATOM      2  H   UNL     1      -8.254  -4.267  -1.438  0.00  0.00    +0.147 HD
ENDROOT
BRANCH   1   5
ATOM      3  C   UNL     1      -4.289  -2.268  -1.503  0.00  0.00    +0.081 A 
ATOM      4  C   UNL     1      -5.566  -2.433  -0.970  0.00  0.00    +0.072 A 
ATOM      5  C   UNL     1      -6.400  -3.395  -1.536  0.00  0.00    +0.124 A 
ATOM      6  N   UNL     1      -5.954  -4.118  -2.559  0.00  0.00    -0.200 NA
ATOM      7  C   UNL     1      -4.734  -3.933  -3.041  0.00  0.00    +0.215 A 
ATOM      8  N   UNL     1      -3.914  -3.026  -2.534  0.00  0.00    -0.214 NA
ATOM      9  N   UNL     1      -4.306  -4.706  -4.107  0.00  0.00    -0.327 N 
ATOM     10  H   UNL     1      -4.898  -5.371  -4.491  0.00  0.00    +0.145 HD
ATOM     11  H   UNL     1      -3.415  -4.581  -4.470  0.00  0.00    +0.145 HD
BRANCH   3  14
ATOM     12  N   UNL     1      -1.596  -0.013  -0.591  0.00  0.00    -0.271 N 
ATOM     13  C   UNL     1      -2.094  -0.993  -1.368  0.00  0.00    +0.118 A 
ATOM     14  C   UNL     1      -3.363  -1.258  -0.936  0.00  0.00    +0.038 A 
ATOM     15  C   UNL     1      -3.631  -0.395   0.146  0.00  0.00    +0.144 A 
ATOM     16  N   UNL     1      -2.571   0.340   0.349  0.00  0.00    -0.179 NA
BRANCH  12  18
ATOM     17  C   UNL     1      -0.387   2.096  -0.854  0.00  0.00    +0.029 C 
ATOM     18  C   UNL     1      -0.261   0.579  -0.707  0.00  0.00    +0.140 C 
ENDBRANCH  12  18
ENDBRANCH   3  14
ENDBRANCH   1   5
BRANCH   1  19
ATOM     19  C   UNL     1      -8.160  -2.795   0.089  0.00  0.00    +0.092 C 
BRANCH  19  20
ATOM     20  C   UNL     1      -9.622  -3.143   0.375  0.00  0.00    -0.020 C 
BRANCH  20  21
ATOM     21  C   UNL     1      -9.714  -4.571   0.849  0.00  0.00    -0.059 A 
ATOM     22  C   UNL     1      -9.424  -4.883   2.164  0.00  0.00    +0.005 A 
ATOM     23  C   UNL     1      -9.509  -6.192   2.599  0.00  0.00    +0.038 A 
ATOM     24  C   UNL     1      -9.885  -7.191   1.717  0.00  0.00    +0.123 A 
ATOM     25  C   UNL     1     -10.175  -6.878   0.400  0.00  0.00    +0.038 A 
ATOM     26  C   UNL     1     -10.095  -5.567  -0.032  0.00  0.00    +0.005 A 
ATOM     27  F   UNL     1      -9.967  -8.471   2.141  0.00  0.00    -0.205 F 
ENDBRANCH  20  21
BRANCH  20  28
ATOM     28  N   UNL     1     -10.144  -2.248   1.416  0.00  0.00    +0.385 N 
ATOM     29  C   UNL     1     -10.126  -0.842   0.938  0.00  0.00    -0.078 C 
ATOM     30  C   UNL     1     -11.175  -0.147   1.842  0.00  0.00    -0.020 C 
ATOM     31  C   UNL     1     -12.269  -1.227   1.996  0.00  0.00    -0.020 C 
ATOM     32  C   UNL     1     -11.563  -2.562   1.694  0.00  0.00    -0.078 C 
ATOM     33  H   UNL     1      -9.597  -2.337   2.259  0.00  0.00    -0.081 HD
ENDBRANCH  20  28
ENDBRANCH  19  20
ENDBRANCH   1  19
TORSDOF 7
