REMARK  Name = ZINC09698472
REMARK  3 active torsions:
REMARK  status: ('A' for Active; 'I' for Inactive)
REMARK    1  A    between atoms: C_1  and  C_2
REMARK    2  A    between atoms: C_7  and  C_8
REMARK    3  A    between atoms: N_19  and  C_22
REMARK                            x       y       z     vdW  Elec       q    Type
REMARK                         _______ _______ _______ _____ _____    ______ ____
ROOT
ATOM      1  C   UNL     1      -0.190   5.311  -0.415  0.00  0.00    +0.031 C 
ATOM      2  C   UNL     1      -0.950   5.958   0.740  0.00  0.00    +0.045 C 
ATOM      3  C   UNL     1      -1.179   7.420   0.487  0.00  0.00    -0.019 A 
ATOM      4  C   UNL     1      -1.159   7.958  -0.805  0.00  0.00    +0.040 A 
ATOM      5  C   UNL     1      -1.389   9.327  -0.985  0.00  0.00    +0.124 A 
ATOM      6  N   UNL     1      -1.620  10.115   0.043  0.00  0.00    -0.235 NA
ATOM      7  C   UNL     1      -1.645   9.655   1.287  0.00  0.00    +0.159 A 
ATOM      8  C   UNL     1      -1.423   8.287   1.545  0.00  0.00    +0.089 A 
ATOM      9  C   UNL     1      -1.518   8.111   3.004  0.00  0.00    +0.281 A 
ATOM     10  O   UNL     1      -1.386   7.070   3.619  0.00  0.00    -0.265 OA
ATOM     11  N   UNL     1      -1.780   9.326   3.529  0.00  0.00    -0.217 N 
ATOM     12  N   UNL     1      -1.859  10.269   2.501  0.00  0.00    -0.273 N 
ATOM     13  H   UNL     1      -2.039  11.215   2.623  0.00  0.00    +0.189 HD
ATOM     14  C   UNL     1      -0.898   7.087  -1.961  0.00  0.00    +0.165 C 
ATOM     15  O   UNL     1      -0.669   7.551  -3.058  0.00  0.00    -0.292 OA
ATOM     16  C   UNL     1      -0.926   5.590  -1.732  0.00  0.00    +0.088 C 
ENDROOT
BRANCH   1  23
ATOM     17  C   UNL     1       2.373   4.060   0.054  0.00  0.00    +0.044 C 
ATOM     18  C   UNL     1       1.119   3.225   0.034  0.00  0.00    -0.047 A 
ATOM     19  C   UNL     1       1.194   1.860   0.239  0.00  0.00    +0.003 A 
ATOM     20  C   UNL     1       0.044   1.093   0.221  0.00  0.00    +0.000 A 
ATOM     21  C   UNL     1      -1.181   1.691  -0.008  0.00  0.00    +0.000 A 
ATOM     22  C   UNL     1      -1.257   3.056  -0.210  0.00  0.00    +0.004 A 
ATOM     23  C   UNL     1      -0.107   3.823  -0.191  0.00  0.00    -0.041 A 
ENDBRANCH   1  23
BRANCH  11  24
ATOM     24  C   UNL     1      -1.946   9.600   4.890  0.00  0.00    +0.067 A 
ATOM     25  C   UNL     1      -1.850   8.575   5.823  0.00  0.00    +0.028 A 
ATOM     26  C   UNL     1      -2.010   8.849   7.167  0.00  0.00    +0.002 A 
ATOM     27  C   UNL     1      -2.276  10.140   7.584  0.00  0.00    +0.000 A 
ATOM     28  C   UNL     1      -2.378  11.162   6.658  0.00  0.00    +0.002 A 
ATOM     29  C   UNL     1      -2.214  10.895   5.312  0.00  0.00    +0.028 A 
ENDBRANCH  11  24
TORSDOF 2
