REMARK  Name = ZINC66679503
REMARK  6 active torsions:
REMARK  status: ('A' for Active; 'I' for Inactive)
REMARK    1  A    between atoms: C_1  and  C_2
REMARK    2  A    between atoms: C_5  and  C_7
REMARK    3  A    between atoms: C_10  and  C_12
REMARK    4  A    between atoms: C_12  and  N_13
REMARK    5  A    between atoms: N_16  and  C_17
REMARK    6  A    between atoms: C_21  and  C_23
REMARK                            x       y       z     vdW  Elec       q    Type
REMARK                         _______ _______ _______ _____ _____    ______ ____
ROOT
ATOM      1  N   UNL     1      -2.276  -5.519   0.669  0.00  0.00    -0.292 N 
ATOM      2  C   UNL     1      -2.785  -6.670   0.189  0.00  0.00    +0.304 C 
ATOM      3  O   UNL     1      -2.112  -7.683   0.199  0.00  0.00    -0.252 OA
ATOM      4  N   UNL     1      -4.040  -6.700  -0.303  0.00  0.00    -0.269 N 
ATOM      5  H   UNL     1      -2.813  -4.711   0.661  0.00  0.00    +0.151 HD
ATOM      6  H   UNL     1      -4.600  -5.910  -0.250  0.00  0.00    +0.156 HD
ENDROOT
BRANCH   4   7
ATOM      7  C   UNL     1      -4.534  -7.870  -0.890  0.00  0.00    +0.035 A 
ATOM      8  C   UNL     1      -4.162  -9.111  -0.386  0.00  0.00    +0.023 A 
ATOM      9  C   UNL     1      -4.648 -10.269  -0.963  0.00  0.00    +0.002 A 
ATOM     10  C   UNL     1      -5.505 -10.200  -2.044  0.00  0.00    +0.010 A 
ATOM     11  C   UNL     1      -5.883  -8.960  -2.555  0.00  0.00    +0.004 A 
ATOM     12  C   UNL     1      -5.399  -7.792  -1.970  0.00  0.00    +0.033 A 
BRANCH  11  13
ATOM     13  C   UNL     1      -6.804  -8.883  -3.716  0.00  0.00    +0.091 A 
ATOM     14  C   UNL     1      -7.301 -10.072  -4.300  0.00  0.00    +0.035 A 
ATOM     15  C   UNL     1      -8.145  -9.963  -5.366  0.00  0.00    +0.073 A 
ATOM     16  C   UNL     1      -8.471  -8.666  -5.822  0.00  0.00    +0.265 A 
ATOM     17  O   UNL     1      -9.223  -8.520  -6.772  0.00  0.00    -0.266 OA
ATOM     18  N   UNL     1      -7.946  -7.593  -5.200  0.00  0.00    -0.243 N 
ATOM     19  H   UNL     1      -8.174  -6.706  -5.518  0.00  0.00    +0.192 HD
ATOM     20  N   UNL     1      -7.157  -7.714  -4.195  0.00  0.00    -0.171 NA
ENDBRANCH  11  13
ENDBRANCH   4   7
BRANCH   1  21
ATOM     21  C   UNL     1      -0.912  -5.487   1.203  0.00  0.00    +0.180 C 
BRANCH  21  25
ATOM     22  C   UNL     1       0.107  -2.011   1.671  0.00  0.00    +0.109 A 
ATOM     23  C   UNL     1      -0.354  -2.267   2.908  0.00  0.00    +0.045 A 
ATOM     24  C   UNL     1      -0.803  -3.608   2.909  0.00  0.00    +0.046 A 
ATOM     25  C   UNL     1      -0.589  -4.091   1.672  0.00  0.00    +0.122 A 
ATOM     26  O   UNL     1      -0.043  -3.118   0.925  0.00  0.00    -0.463 OA
BRANCH  22  30
ATOM     27  C   UNL     1      -0.043   1.536   0.059  0.00  0.00    +0.008 C 
ATOM     28  C   UNL     1      -0.017   0.006   0.041  0.00  0.00    -0.003 C 
ATOM     29  C   UNL     1       1.333  -0.676  -0.189  0.00  0.00    +0.015 C 
ATOM     30  C   UNL     1       0.687  -0.703   1.199  0.00  0.00    +0.058 C 
ENDBRANCH  22  30
ENDBRANCH  21  25
ENDBRANCH   1  21
TORSDOF 5
