REMARK  Name = ZINC42047846
REMARK  5 active torsions:
REMARK  status: ('A' for Active; 'I' for Inactive)
REMARK    1  A    between atoms: C_8  and  C_10
REMARK    2  A    between atoms: C_13  and  N_16
REMARK    3  A    between atoms: C_17  and  C_19
REMARK    4  A    between atoms: N_21  and  C_22
REMARK    5  A    between atoms: C_22  and  C_23
REMARK                            x       y       z     vdW  Elec       q    Type
REMARK                         _______ _______ _______ _____ _____    ______ ____
ROOT
ATOM      1  C   UNL     1       3.648  -3.345  -0.029  0.00  0.00    +0.037 A 
ATOM      2  C   UNL     1       2.966  -4.564  -0.045  0.00  0.00    +0.015 A 
ATOM      3  C   UNL     1       3.673  -5.746  -0.066  0.00  0.00    +0.024 A 
ATOM      4  C   UNL     1       5.064  -5.726  -0.070  0.00  0.00    +0.034 A 
ATOM      5  C   UNL     1       5.746  -4.514  -0.053  0.00  0.00    +0.024 A 
ATOM      6  C   UNL     1       5.045  -3.328  -0.039  0.00  0.00    +0.015 A 
ENDROOT
BRANCH   1  14
ATOM      7  C   UNL     1       0.013   1.393   0.057  0.00  0.00    +0.002 A 
ATOM      8  C   UNL     1       1.202   2.107   0.058  0.00  0.00    +0.004 A 
ATOM      9  C   UNL     1       2.415   1.449   0.041  0.00  0.00    +0.048 A 
ATOM     10  C   UNL     1       2.448   0.063   0.023  0.00  0.00    +0.156 A 
ATOM     11  C   UNL     1       1.247  -0.664   0.022  0.00  0.00    +0.110 A 
ATOM     12  C   UNL     1       0.027   0.016   0.039  0.00  0.00    +0.031 A 
ATOM     13  N   UNL     1       1.587  -1.979   0.002  0.00  0.00    -0.209 NA
ATOM     14  C   UNL     1       2.893  -2.076  -0.008  0.00  0.00    +0.228 A 
ATOM     15  O   UNL     1       3.447  -0.848   0.004  0.00  0.00    -0.435 OA
ENDBRANCH   1  14
BRANCH   4  16
ATOM     16  N   UNL     1       5.777  -6.925  -0.090  0.00  0.00    -0.278 N 
ATOM     17  C   UNL     1       6.940  -7.006  -0.767  0.00  0.00    +0.303 C 
ATOM     18  O   UNL     1       7.409  -6.016  -1.289  0.00  0.00    -0.265 OA
ATOM     19  H   UNL     1       5.436  -7.700   0.383  0.00  0.00    +0.155 HD
BRANCH  17  20
ATOM     20  C   UNL     1       7.651  -8.315  -0.874  0.00  0.00    +0.300 C 
ATOM     21  O   UNL     1       7.183  -9.305  -0.352  0.00  0.00    -0.265 OA
ATOM     22  N   UNL     1       8.814  -8.396  -1.551  0.00  0.00    -0.303 N 
ATOM     23  H   UNL     1       9.189  -7.605  -1.968  0.00  0.00    +0.149 HD
BRANCH  22  24
ATOM     24  C   UNL     1       9.512  -9.680  -1.656  0.00  0.00    +0.143 C 
BRANCH  24  25
ATOM     25  C   UNL     1      10.776  -9.500  -2.457  0.00  0.00    +0.007 A 
ATOM     26  C   UNL     1      10.910  -9.627  -3.859  0.00  0.00    +0.046 A 
ATOM     27  C   UNL     1      12.200  -9.384  -4.150  0.00  0.00    +0.195 A 
ATOM     28  O   UNL     1      12.851  -9.119  -3.006  0.00  0.00    -0.471 OA
ATOM     29  C   UNL     1      11.991  -9.183  -1.976  0.00  0.00    +0.200 A 
ENDBRANCH  24  25
ENDBRANCH  22  24
ENDBRANCH  17  20
ENDBRANCH   4  16
TORSDOF 5
