REMARK  Name = ZINC39387922
REMARK  7 active torsions:
REMARK  status: ('A' for Active; 'I' for Inactive)
REMARK    1  A    between atoms: C_1  and  C_2
REMARK    2  A    between atoms: C_2  and  C_3
REMARK    3  A    between atoms: C_2  and  C_4
REMARK    4  A    between atoms: C_2  and  C_5
REMARK    5  A    between atoms: C_8  and  N_11
REMARK    6  A    between atoms: C_17  and  N_22
REMARK    7  A    between atoms: C_23  and  C_25
REMARK                            x       y       z     vdW  Elec       q    Type
REMARK                         _______ _______ _______ _____ _____    ______ ____
ROOT
ATOM      1  N   UNL     1       2.656  -1.833  -4.664  0.00  0.00    -0.246 N 
ATOM      2  C   UNL     1       4.010  -1.486  -5.109  0.00  0.00    +0.123 C 
ATOM      3  C   UNL     1       4.200   0.030  -5.215  0.00  0.00    +0.029 C 
ATOM      4  C   UNL     1       5.493   0.307  -5.987  0.00  0.00    +0.004 C 
ATOM      5  C   UNL     1       5.384  -0.175  -7.432  0.00  0.00    +0.027 C 
ATOM      6  C   UNL     1       5.217  -1.704  -7.464  0.00  0.00    +0.103 C 
ATOM      7  C   UNL     1       4.091  -2.055  -6.516  0.00  0.00    -0.013 C 
ATOM      8  C   UNL     1       3.014  -2.764  -6.723  0.00  0.00    +0.091 C 
ATOM      9  N   UNL     1       2.158  -2.720  -5.633  0.00  0.00    -0.271 N 
ATOM     10  H   UNL     1       1.334  -3.225  -5.553  0.00  0.00    +0.169 HD
ENDROOT
BRANCH   1  14
ATOM     11  C   UNL     1       0.707  -0.490  -1.238  0.00  0.00    -0.042 A 
ATOM     12  C   UNL     1       0.017  -1.231  -2.179  0.00  0.00    +0.006 A 
ATOM     13  C   UNL     1       0.660  -1.678  -3.316  0.00  0.00    +0.025 A 
ATOM     14  C   UNL     1       2.002  -1.382  -3.515  0.00  0.00    +0.048 A 
ATOM     15  C   UNL     1       2.693  -0.637  -2.568  0.00  0.00    +0.025 A 
ATOM     16  C   UNL     1       2.043  -0.189  -1.435  0.00  0.00    +0.006 A 
BRANCH  11  18
ATOM     17  C   UNL     1       0.048   1.524   0.049  0.00  0.00    +0.015 C 
ATOM     18  C   UNL     1       0.002  -0.004   0.002  0.00  0.00    -0.013 C 
ATOM     19  C   UNL     1       0.697  -0.574   1.240  0.00  0.00    +0.015 C 
ATOM     20  C   UNL     1      -1.455  -0.470  -0.025  0.00  0.00    +0.015 C 
ENDBRANCH  11  18
ENDBRANCH   1  14
BRANCH   6  21
ATOM     21  N   UNL     1       4.889  -2.143  -8.822  0.00  0.00    -0.303 N 
ATOM     22  C   UNL     1       5.875  -2.368  -9.714  0.00  0.00    +0.265 C 
ATOM     23  O   UNL     1       7.035  -2.205  -9.391  0.00  0.00    -0.268 OA
ATOM     24  H   UNL     1       3.963  -2.273  -9.080  0.00  0.00    +0.150 HD
BRANCH  22  25
ATOM     25  C   UNL     1       5.544  -2.812 -11.086  0.00  0.00    +0.148 A 
ATOM     26  C   UNL     1       6.565  -3.045 -12.014  0.00  0.00    +0.040 A 
ATOM     27  C   UNL     1       6.205  -3.460 -13.285  0.00  0.00    +0.076 A 
ATOM     28  C   UNL     1       4.849  -3.619 -13.563  0.00  0.00    +0.288 A 
ATOM     29  O   UNL     1       4.452  -4.024 -14.793  0.00  0.00    -0.264 OA
ATOM     30  N   UNL     1       3.947  -3.374 -12.620  0.00  0.00    -0.106 NA
ATOM     31  N   UNL     1       4.277  -2.995 -11.440  0.00  0.00    -0.141 NA
ENDBRANCH  22  25
ENDBRANCH   6  21
TORSDOF 4
