REMARK  Name = ZINC15640628
REMARK  6 active torsions:
REMARK  status: ('A' for Active; 'I' for Inactive)
REMARK    1  A    between atoms: C_1  and  C_2
REMARK    2  A    between atoms: N_11  and  C_15
REMARK    3  A    between atoms: C_15  and  C_16
REMARK    4  A    between atoms: N_18  and  C_19
REMARK    5  A    between atoms: C_21  and  C_30
REMARK    6  A    between atoms: C_24  and  N_25
REMARK                            x       y       z     vdW  Elec       q    Type
REMARK                         _______ _______ _______ _____ _____    ______ ____
ROOT
ATOM      1  C   UNL     1       2.920   1.459  -1.434  0.00  0.00    +0.235 C 
ATOM      2  O   UNL     1       2.156   1.695  -2.345  0.00  0.00    -0.274 OA
ATOM      3  N   UNL     1       4.178   1.052  -1.698  0.00  0.00    -0.282 N 
ATOM      4  H   UNL     1       4.809   0.926  -0.972  0.00  0.00    +0.155 HD
ENDROOT
BRANCH   3   5
ATOM      5  C   UNL     1       4.573   0.811  -3.019  0.00  0.00    +0.060 A 
ATOM      6  C   UNL     1       4.072   1.595  -4.049  0.00  0.00    +0.037 A 
ATOM      7  C   UNL     1       4.467   1.359  -5.351  0.00  0.00    +0.057 A 
ATOM      8  C   UNL     1       5.354   0.336  -5.635  0.00  0.00    +0.014 A 
ATOM      9  C   UNL     1       5.854  -0.453  -4.616  0.00  0.00    +0.030 A 
ATOM     10  C   UNL     1       5.467  -0.220  -3.304  0.00  0.00    +0.086 A 
BRANCH  10  11
ATOM     11  N   UNL     1       5.973  -1.019  -2.269  0.00  0.00    -0.238 N 
ATOM     12  C   UNL     1       6.917  -1.979  -2.393  0.00  0.00    +0.114 A 
ATOM     13  C   UNL     1       7.125  -2.513  -1.168  0.00  0.00    +0.041 A 
ATOM     14  C   UNL     1       6.281  -1.859  -0.264  0.00  0.00    +0.135 A 
ATOM     15  N   UNL     1       5.595  -0.959  -0.921  0.00  0.00    -0.175 NA
ENDBRANCH  10  11
BRANCH   7  16
ATOM     16  C   UNL     1       3.926   2.214  -6.467  0.00  0.00    +0.417 C 
ATOM     17  F   UNL     1       4.462   1.785  -7.686  0.00  0.00    -0.166 F 
ATOM     18  F   UNL     1       2.532   2.104  -6.506  0.00  0.00    -0.166 F 
ATOM     19  F   UNL     1       4.282   3.549  -6.246  0.00  0.00    -0.166 F 
ENDBRANCH   7  16
ENDBRANCH   3   5
BRANCH   1  20
ATOM     20  C   UNL     1       2.464   1.620  -0.007  0.00  0.00    +0.214 C 
BRANCH  20  30
ATOM     21  C   UNL     1      -1.214   2.167  -2.453  0.00  0.00    +0.010 C 
ATOM     22  C   UNL     1      -2.055   1.897  -1.204  0.00  0.00    +0.018 C 
ATOM     23  C   UNL     1      -3.264   2.837  -1.191  0.00  0.00    +0.006 C 
ATOM     24  C   UNL     1      -4.094   2.581   0.069  0.00  0.00    +0.000 C 
ATOM     25  C   UNL     1      -3.238   2.850   1.308  0.00  0.00    +0.003 C 
ATOM     26  C   UNL     1      -2.030   1.911   1.306  0.00  0.00    +0.035 C 
ATOM     27  C   UNL     1      -1.208   2.138   0.041  0.00  0.00    +0.115 C 
ATOM     28  C   UNL     1       0.006   1.238   0.034  0.00  0.00    +0.247 C 
ATOM     29  O   UNL     1       0.022   0.026   0.039  0.00  0.00    -0.273 OA
ATOM     30  N   UNL     1       1.069   2.068   0.013  0.00  0.00    -0.215 N 
ATOM     31  C   UNL     1       0.692   3.353   0.011  0.00  0.00    +0.310 C 
ATOM     32  O   UNL     1       1.471   4.286  -0.006  0.00  0.00    -0.252 OA
ATOM     33  N   UNL     1      -0.647   3.495   0.031  0.00  0.00    -0.285 N 
ATOM     34  H   UNL     1      -1.143   4.329   0.034  0.00  0.00    +0.151 HD
ENDBRANCH  20  30
ENDBRANCH   1  20
TORSDOF 5
