REMARK  Name = ZINC39273139
REMARK  7 active torsions:
REMARK  status: ('A' for Active; 'I' for Inactive)
REMARK    1  A    between atoms: C_1  and  C_2
REMARK    2  A    between atoms: C_4  and  C_16
REMARK    3  A    between atoms: C_6  and  C_14
REMARK    4  A    between atoms: C_7  and  N_13
REMARK    5  A    between atoms: N_18  and  C_27
REMARK    6  A    between atoms: C_20  and  C_21
REMARK    7  A    between atoms: C_27  and  C_28
REMARK                            x       y       z     vdW  Elec       q    Type
REMARK                         _______ _______ _______ _____ _____    ______ ____
ROOT
ATOM      1  C   UNL     1      -3.212  -0.572  -1.199  0.00  0.00    +0.010 A 
ATOM      2  C   UNL     1      -3.255  -1.654  -2.006  0.00  0.00    +0.114 A 
ATOM      3  N   UNL     1      -3.952  -1.321  -3.114  0.00  0.00    -0.266 N 
ATOM      4  N   UNL     1      -4.357   0.015  -2.989  0.00  0.00    -0.171 NA
ATOM      5  C   UNL     1      -3.918   0.469  -1.834  0.00  0.00    +0.097 A 
ENDROOT
BRANCH   1   9
ATOM      6  C   UNL     1      -0.018   1.503   0.010  0.00  0.00    +0.067 C 
ATOM      7  C   UNL     1       0.002  -0.004   0.002  0.00  0.00    +0.066 C 
ATOM      8  C   UNL     1      -1.064  -0.768   0.003  0.00  0.00    +0.030 C 
ATOM      9  C   UNL     1      -2.536  -0.493   0.145  0.00  0.00    +0.101 C 
ATOM     10  C   UNL     1      -3.065  -1.577   1.066  0.00  0.00    +0.098 C 
ATOM     11  C   UNL     1      -2.303  -2.628   1.436  0.00  0.00    +0.195 C 
ATOM     12  O   UNL     1      -1.023  -2.853   1.091  0.00  0.00    -0.448 OA
ATOM     13  C   UNL     1      -0.529  -2.198  -0.081  0.00  0.00    +0.343 C 
ATOM     14  N   UNL     1       0.921  -1.985  -0.028  0.00  0.00    -0.138 NA
ATOM     15  N   UNL     1       1.127  -0.765  -0.013  0.00  0.00    -0.155 NA
BRANCH  11  16
ATOM     16  N   UNL     1      -2.896  -3.562   2.247  0.00  0.00    -0.329 N 
ATOM     17  H   UNL     1      -3.818  -3.448   2.526  0.00  0.00    +0.145 HD
ATOM     18  H   UNL     1      -2.393  -4.337   2.542  0.00  0.00    +0.145 HD
ENDBRANCH  11  16
BRANCH  10  19
ATOM     19  C   UNL     1      -4.407  -1.482   1.556  0.00  0.00    +0.101 C 
ATOM     20  N   UNL     1      -5.472  -1.407   1.944  0.00  0.00    -0.191 NA
ENDBRANCH  10  19
ENDBRANCH   1   9
BRANCH   5  21
ATOM     21  C   UNL     1      -4.128   1.836  -1.297  0.00  0.00    +0.002 A 
ATOM     22  C   UNL     1      -4.294   2.032   0.072  0.00  0.00    +0.010 A 
ATOM     23  C   UNL     1      -4.489   3.306   0.566  0.00  0.00    +0.001 A 
ATOM     24  C   UNL     1      -4.519   4.388  -0.296  0.00  0.00    +0.000 A 
ATOM     25  C   UNL     1      -4.355   4.199  -1.656  0.00  0.00    +0.001 A 
ATOM     26  C   UNL     1      -4.154   2.930  -2.160  0.00  0.00    +0.010 A 
ENDBRANCH   5  21
BRANCH   3  27
ATOM     27  C   UNL     1      -4.236  -2.203  -4.249  0.00  0.00    +0.178 C 
BRANCH  27  28
ATOM     28  C   UNL     1      -5.723  -2.248  -4.490  0.00  0.00    -0.026 A 
ATOM     29  C   UNL     1      -6.498  -3.197  -3.850  0.00  0.00    +0.006 A 
ATOM     30  C   UNL     1      -7.862  -3.238  -4.071  0.00  0.00    +0.015 A 
ATOM     31  C   UNL     1      -8.451  -2.331  -4.933  0.00  0.00    +0.018 A 
ATOM     32  C   UNL     1      -7.675  -1.382  -5.573  0.00  0.00    +0.015 A 
ATOM     33  C   UNL     1      -6.311  -1.338  -5.348  0.00  0.00    +0.006 A 
ATOM     34 BR   UNL     1     -10.316  -2.388  -5.236  0.00  0.00    -0.050 Br
ENDBRANCH  27  28
ENDBRANCH   3  27
TORSDOF 6
