REMARK  Name = ZINC48105538
REMARK  10 active torsions:
REMARK  status: ('A' for Active; 'I' for Inactive)
REMARK    1  A    between atoms: C_1  and  C_2
REMARK    2  A    between atoms: C_2  and  C_3
REMARK    3  A    between atoms: C_2  and  N_4
REMARK    4  A    between atoms: C_5  and  C_7
REMARK    5  A    between atoms: C_10  and  N_13
REMARK    6  A    between atoms: N_16  and  C_17
REMARK    7  A    between atoms: C_17  and  C_18
REMARK    8  A    between atoms: C_18  and  N_19
REMARK    9  A    between atoms: N_19  and  C_20
REMARK   10  A    between atoms: C_23  and  N_26
REMARK                            x       y       z     vdW  Elec       q    Type
REMARK                         _______ _______ _______ _____ _____    ______ ____
ROOT
ATOM      1  N   UNL     1      -7.344  -2.594  -1.104  0.00  0.00    -0.269 N 
ATOM      2  C   UNL     1      -8.055  -2.636  -2.248  0.00  0.00    +0.304 C 
ATOM      3  O   UNL     1      -7.528  -2.339  -3.303  0.00  0.00    -0.253 OA
ATOM      4  N   UNL     1      -9.351  -3.006  -2.223  0.00  0.00    -0.298 N 
ATOM      5  H   UNL     1      -7.744  -2.894  -0.273  0.00  0.00    +0.156 HD
ATOM      6  H   UNL     1      -9.771  -3.243  -1.381  0.00  0.00    +0.150 HD
ENDROOT
BRANCH   1  10
ATOM      7  C   UNL     1      -3.426  -1.178  -1.139  0.00  0.00    +0.037 A 
ATOM      8  C   UNL     1      -3.919  -1.903  -2.228  0.00  0.00    +0.015 A 
ATOM      9  C   UNL     1      -5.214  -2.369  -2.213  0.00  0.00    +0.024 A 
ATOM     10  C   UNL     1      -6.032  -2.120  -1.116  0.00  0.00    +0.035 A 
ATOM     11  C   UNL     1      -5.546  -1.399  -0.030  0.00  0.00    +0.024 A 
ATOM     12  C   UNL     1      -4.250  -0.934  -0.036  0.00  0.00    +0.015 A 
BRANCH   7  14
ATOM     13  N   UNL     1      -1.246  -0.913  -2.215  0.00  0.00    -0.309 N 
ATOM     14  C   UNL     1      -2.038  -0.677  -1.151  0.00  0.00    +0.244 C 
ATOM     15  O   UNL     1      -1.610  -0.051  -0.201  0.00  0.00    -0.270 OA
ATOM     16  H   UNL     1      -1.588  -1.412  -2.973  0.00  0.00    +0.149 HD
BRANCH  13  18
ATOM     17  C   UNL     1       1.042  -1.416  -1.512  0.00  0.00    +0.027 C 
ATOM     18  C   UNL     1       0.132  -0.415  -2.227  0.00  0.00    +0.067 C 
ATOM     19  C   UNL     1       0.600  -0.243  -3.673  0.00  0.00    +0.027 C 
ENDBRANCH  13  18
ENDBRANCH   7  14
ENDBRANCH   1  10
BRANCH   4  20
ATOM     20  C   UNL     1     -10.124  -3.051  -3.466  0.00  0.00    +0.124 C 
BRANCH  20  21
ATOM     21  C   UNL     1     -11.555  -3.499  -3.161  0.00  0.00    +0.120 C 
BRANCH  21  22
ATOM     22  N   UNL     1     -12.329  -3.544  -4.404  0.00  0.00    -0.342 N 
ATOM     23  H   UNL     1     -11.908  -3.308  -5.246  0.00  0.00    +0.146 HD
BRANCH  22  24
ATOM     24  C   UNL     1     -13.671  -3.928  -4.378  0.00  0.00    +0.027 A 
ATOM     25  C   UNL     1     -14.276  -4.262  -3.173  0.00  0.00    +0.025 A 
ATOM     26  C   UNL     1     -15.604  -4.641  -3.150  0.00  0.00    +0.034 A 
ATOM     27  C   UNL     1     -16.331  -4.688  -4.325  0.00  0.00    +0.126 A 
ATOM     28  C   UNL     1     -15.732  -4.356  -5.527  0.00  0.00    +0.034 A 
ATOM     29  C   UNL     1     -14.406  -3.972  -5.556  0.00  0.00    +0.025 A 
BRANCH  27  30
ATOM     30  N   UNL     1     -17.754  -5.095  -4.298  0.00  0.00    +0.056 N 
ATOM     31  O   UNL     1     -18.279  -5.385  -3.248  0.00  0.00    -0.126 OA
ATOM     32  O   UNL     1     -18.391  -5.136  -5.324  0.00  0.00    -0.126 OA
ENDBRANCH  27  30
ENDBRANCH  22  24
ENDBRANCH  21  22
ENDBRANCH  20  21
ENDBRANCH   4  20
TORSDOF 8
