REMARK  Name = ZINC41116939
REMARK  7 active torsions:
REMARK  status: ('A' for Active; 'I' for Inactive)
REMARK    1  A    between atoms: C_1  and  C_2
REMARK    2  A    between atoms: C_2  and  C_4
REMARK    3  A    between atoms: C_2  and  N_11
REMARK    4  A    between atoms: N_11  and  C_12
REMARK    5  A    between atoms: C_12  and  C_13
REMARK    6  A    between atoms: C_17  and  O_20
REMARK    7  A    between atoms: C_18  and  O_19
REMARK                            x       y       z     vdW  Elec       q    Type
REMARK                         _______ _______ _______ _____ _____    ______ ____
ROOT
ATOM      1  N   UNL     1       0.713  -0.491   1.192  0.00  0.00    +0.386 N 
ATOM      2  H   UNL     1       0.798  -1.495   1.145  0.00  0.00    -0.085 HD
ATOM      3  H   UNL     1       1.632  -0.076   1.228  0.00  0.00    -0.085 HD
ENDROOT
BRANCH   1   5
ATOM      4  C   UNL     1      -0.019   1.526   0.010  0.00  0.00    -0.009 C 
ATOM      5  C   UNL     1       0.002  -0.004   0.002  0.00  0.00    -0.043 C 
BRANCH   5   6
ATOM      6  C   UNL     1       0.707  -0.490  -1.238  0.00  0.00    -0.048 A 
ATOM      7  C   UNL     1       2.024  -0.904  -1.167  0.00  0.00    +0.003 A 
ATOM      8  C   UNL     1       2.671  -1.351  -2.304  0.00  0.00    +0.000 A 
ATOM      9  C   UNL     1       2.002  -1.383  -3.513  0.00  0.00    +0.001 A 
ATOM     10  C   UNL     1       0.685  -0.969  -3.585  0.00  0.00    +0.015 A 
ATOM     11  C   UNL     1       0.036  -0.527  -2.446  0.00  0.00    +0.019 A 
ATOM     12 BR   UNL     1      -1.768   0.033  -2.543  0.00  0.00    -0.050 Br
ENDBRANCH   5   6
ENDBRANCH   1   5
BRANCH   1  13
ATOM     13  C   UNL     1      -0.040  -0.119   2.398  0.00  0.00    -0.042 C 
BRANCH  13  14
ATOM     14  C   UNL     1       0.689  -0.618   3.619  0.00  0.00    -0.019 A 
ATOM     15  C   UNL     1       0.282  -1.786   4.238  0.00  0.00    +0.005 A 
ATOM     16  C   UNL     1       0.948  -2.246   5.358  0.00  0.00    +0.004 A 
ATOM     17  C   UNL     1       2.025  -1.541   5.864  0.00  0.00    +0.049 A 
ATOM     18  C   UNL     1       2.438  -0.371   5.249  0.00  0.00    +0.158 A 
ATOM     19  C   UNL     1       1.770   0.089   4.117  0.00  0.00    +0.160 A 
BRANCH  19  20
ATOM     20  O   UNL     1       2.176   1.235   3.506  0.00  0.00    -0.503 OA
ATOM     21  H   UNL     1       1.749   2.034   3.845  0.00  0.00    +0.292 HD
ENDBRANCH  19  20
BRANCH  18  22
ATOM     22  O   UNL     1       3.496   0.323   5.746  0.00  0.00    -0.503 OA
ATOM     23  H   UNL     1       4.349   0.060   5.374  0.00  0.00    +0.292 HD
ENDBRANCH  18  22
ENDBRANCH  13  14
ENDBRANCH   1  13
TORSDOF 6
