REMARK  Name = ZINC47549055
REMARK  8 active torsions:
REMARK  status: ('A' for Active; 'I' for Inactive)
REMARK    1  A    between atoms: C_1  and  N_2
REMARK    2  A    between atoms: C_6  and  C_8
REMARK    3  A    between atoms: C_8  and  N_9
REMARK    4  A    between atoms: N_9  and  C_10
REMARK    5  A    between atoms: N_9  and  C_16
REMARK    6  A    between atoms: C_10  and  C_11
REMARK    7  A    between atoms: C_16  and  C_17
REMARK    8  A    between atoms: N_22  and  C_23
REMARK                            x       y       z     vdW  Elec       q    Type
REMARK                         _______ _______ _______ _____ _____    ______ ____
ROOT
ATOM      1  N   UNL     1       1.730  -4.332  -3.140  0.00  0.00    +0.396 N 
ATOM      2  H   UNL     1       1.384  -3.764  -3.900  0.00  0.00    -0.080 HD
ENDROOT
BRANCH   1   3
ATOM      3  C   UNL     1       0.942  -4.065  -1.930  0.00  0.00    +0.020 C 
BRANCH   3   9
ATOM      4  C   UNL     1      -0.320   1.133   1.064  0.00  0.00    +0.129 C 
ATOM      5  N   UNL     1      -0.340  -0.303   0.775  0.00  0.00    -0.302 N 
ATOM      6  C   UNL     1       0.321  -0.785  -0.296  0.00  0.00    +0.306 C 
ATOM      7  O   UNL     1       0.934  -0.028  -1.023  0.00  0.00    -0.252 OA
ATOM      8  N   UNL     1       0.302  -2.106  -0.562  0.00  0.00    -0.242 N 
ATOM      9  C   UNL     1       0.963  -2.587  -1.633  0.00  0.00    +0.204 C 
ATOM     10  O   UNL     1       1.574  -1.832  -2.358  0.00  0.00    -0.277 OA
ATOM     11  H   UNL     1      -0.829  -0.908   1.355  0.00  0.00    +0.150 HD
ATOM     12  H   UNL     1      -0.187  -2.710   0.018  0.00  0.00    +0.159 HD
ENDBRANCH   3   9
ENDBRANCH   1   3
BRANCH   1  13
ATOM     13  C   UNL     1       3.140  -4.006  -2.888  0.00  0.00    -0.002 C 
BRANCH  13  14
ATOM     14  C   UNL     1       3.926  -4.151  -4.167  0.00  0.00    +0.089 A 
ATOM     15  C   UNL     1       4.054  -3.213  -5.122  0.00  0.00    +0.042 A 
ATOM     16  C   UNL     1       4.869  -3.768  -6.135  0.00  0.00    +0.041 A 
ATOM     17  C   UNL     1       5.191  -5.012  -5.738  0.00  0.00    +0.195 A 
ATOM     18  O   UNL     1       4.621  -5.237  -4.542  0.00  0.00    -0.470 OA
ENDBRANCH  13  14
ENDBRANCH   1  13
BRANCH   1  19
ATOM     19  C   UNL     1       1.612  -5.752  -3.498  0.00  0.00    +0.020 C 
BRANCH  19  20
ATOM     20  C   UNL     1       0.196  -6.048  -3.921  0.00  0.00    +0.204 C 
ATOM     21  O   UNL     1      -0.606  -5.145  -4.025  0.00  0.00    -0.277 OA
ATOM     22  N   UNL     1      -0.178  -7.315  -4.184  0.00  0.00    -0.242 N 
ATOM     23  C   UNL     1      -1.444  -7.580  -4.562  0.00  0.00    +0.306 C 
ATOM     24  O   UNL     1      -2.249  -6.675  -4.666  0.00  0.00    -0.252 OA
ATOM     25  N   UNL     1      -1.818  -8.847  -4.825  0.00  0.00    -0.302 N 
ATOM     26  C   UNL     1      -3.195  -9.134  -5.237  0.00  0.00    +0.129 C 
ATOM     27  H   UNL     1       0.464  -8.038  -4.101  0.00  0.00    +0.159 HD
ATOM     28  H   UNL     1      -1.176  -9.570  -4.742  0.00  0.00    +0.150 HD
ENDBRANCH  19  20
ENDBRANCH   1  19
TORSDOF 6
