REMARK  Name = ZINC23258237
REMARK  4 active torsions:
REMARK  status: ('A' for Active; 'I' for Inactive)
REMARK    1  A    between atoms: C_7  and  C_12
REMARK    2  A    between atoms: C_12  and  C_13
REMARK    3  A    between atoms: C_13  and  N_14
REMARK    4  A    between atoms: C_16  and  N_21
REMARK                            x       y       z     vdW  Elec       q    Type
REMARK                         _______ _______ _______ _____ _____    ______ ____
ROOT
ATOM      1  C   UNL     1       1.127  -2.823   1.274  0.00  0.00    +0.036 C 
ENDROOT
BRANCH   1   8
ATOM      2  C   UNL     1       0.168   1.461   0.236  0.00  0.00    +0.000 A 
ATOM      3  C   UNL     1       1.385   2.094   0.059  0.00  0.00    +0.002 A 
ATOM      4  C   UNL     1       2.533   1.355  -0.135  0.00  0.00    +0.023 A 
ATOM      5  C   UNL     1       2.475  -0.037  -0.153  0.00  0.00    +0.037 A 
ATOM      6  C   UNL     1       1.247  -0.661   0.026  0.00  0.00    -0.014 A 
ATOM      7  C   UNL     1       0.102   0.079   0.219  0.00  0.00    +0.006 A 
ATOM      8  C   UNL     1       1.510  -2.147  -0.044  0.00  0.00    +0.108 C 
ATOM      9  C   UNL     1       3.003  -2.246  -0.279  0.00  0.00    +0.225 C 
ATOM     10  O   UNL     1       3.647  -3.266  -0.400  0.00  0.00    -0.275 OA
ATOM     11  N   UNL     1       3.479  -0.990  -0.329  0.00  0.00    -0.285 N 
ATOM     12  H   UNL     1       4.413  -0.771  -0.470  0.00  0.00    +0.155 HD
ENDBRANCH   1   8
BRANCH   1  13
ATOM     13  C   UNL     1       1.284  -4.338   1.135  0.00  0.00    +0.104 C 
BRANCH  13  14
ATOM     14  N   UNL     1       0.917  -4.985   2.397  0.00  0.00    -0.327 N 
ATOM     15  C   UNL     1       0.981  -6.369   2.513  0.00  0.00    +0.149 A 
ATOM     16  C   UNL     1       0.523  -6.986   3.673  0.00  0.00    +0.166 A 
ATOM     17  C   UNL     1       0.592  -8.363   3.775  0.00  0.00    +0.038 A 
ATOM     18  C   UNL     1       1.120  -9.081   2.710  0.00  0.00    +0.022 A 
ATOM     19  C   UNL     1       1.556  -8.404   1.589  0.00  0.00    +0.113 A 
ATOM     20  N   UNL     1       1.473  -7.089   1.517  0.00  0.00    -0.238 NA
ATOM     21  H   UNL     1       0.629  -4.448   3.151  0.00  0.00    +0.148 HD
BRANCH  16  22
ATOM     22  N   UNL     1       0.016  -6.246   4.689  0.00  0.00    +0.060 N 
ATOM     23  O   UNL     1       0.249  -6.553   5.835  0.00  0.00    -0.126 OA
ATOM     24  O   UNL     1      -0.670  -5.280   4.450  0.00  0.00    -0.126 OA
ENDBRANCH  16  22
ENDBRANCH  13  14
ENDBRANCH   1  13
TORSDOF 4
