REMARK  Name = ZINC43761841
REMARK  5 active torsions:
REMARK  status: ('A' for Active; 'I' for Inactive)
REMARK    1  A    between atoms: C_1  and  C_2
REMARK    2  A    between atoms: C_5  and  S_8
REMARK    3  A    between atoms: S_8  and  N_11
REMARK    4  A    between atoms: N_11  and  N_12
REMARK    5  A    between atoms: C_25  and  O_28
REMARK                            x       y       z     vdW  Elec       q    Type
REMARK                         _______ _______ _______ _____ _____    ______ ____
ROOT
ATOM      1  N   UNL     1       2.500  -4.622   1.014  0.00  0.00    -0.175 NA
ATOM      2  C   UNL     1       3.728  -4.984   1.005  0.00  0.00    +0.045 C 
ATOM      3  C   UNL     1       4.796  -4.681   2.049  0.00  0.00    +0.060 C 
ATOM      4  C   UNL     1       5.599  -6.000   2.131  0.00  0.00    +0.021 C 
ATOM      5  C   UNL     1       7.040  -5.686   2.452  0.00  0.00    -0.027 C 
ATOM      6  C   UNL     1       7.765  -5.624   1.371  0.00  0.00    -0.027 C 
ATOM      7  C   UNL     1       6.936  -5.883   0.136  0.00  0.00    +0.018 C 
ATOM      8  C   UNL     1       5.608  -6.526   0.669  0.00  0.00    +0.014 C 
ATOM      9  C   UNL     1       4.442  -5.818  -0.044  0.00  0.00    +0.068 C 
ATOM     10  C   UNL     1       5.079  -4.873  -1.083  0.00  0.00    +0.124 C 
ATOM     11  C   UNL     1       6.512  -4.529  -0.478  0.00  0.00    +0.040 C 
ENDROOT
BRANCH   1  12
ATOM     12  N   UNL     1       1.651  -4.999  -0.034  0.00  0.00    -0.137 N 
ATOM     13  H   UNL     1       1.993  -5.536  -0.767  0.00  0.00    +0.197 HD
BRANCH  12  14
ATOM     14  S   UNL     1       0.063  -4.530  -0.023  0.00  0.00    +0.086 S 
ATOM     15  O   UNL     1      -0.476  -4.950   1.223  0.00  0.00    -0.149 OA
ATOM     16  O   UNL     1      -0.490  -4.937  -1.267  0.00  0.00    -0.149 OA
BRANCH  14  21
ATOM     17  C   UNL     1      -0.018   1.503   0.010  0.00  0.00    +0.044 C 
ATOM     18  C   UNL     1       0.002  -0.004   0.002  0.00  0.00    -0.050 A 
ATOM     19  C   UNL     1       0.006  -0.689  -1.199  0.00  0.00    +0.005 A 
ATOM     20  C   UNL     1       0.025  -2.071  -1.206  0.00  0.00    +0.029 A 
ATOM     21  C   UNL     1       0.040  -2.768  -0.013  0.00  0.00    +0.110 A 
ATOM     22  C   UNL     1       0.037  -2.084   1.188  0.00  0.00    +0.029 A 
ATOM     23  C   UNL     1       0.023  -0.702   1.195  0.00  0.00    +0.005 A 
ENDBRANCH  14  21
ENDBRANCH  12  14
ENDBRANCH   1  12
BRANCH  10  24
ATOM     24  O   UNL     1       5.206  -5.529  -2.346  0.00  0.00    -0.391 OA
ATOM     25  H   UNL     1       5.602  -4.980  -3.036  0.00  0.00    +0.210 HD
ENDBRANCH  10  24
TORSDOF 4
