REMARK  Name = ZINC10159572
REMARK  6 active torsions:
REMARK  status: ('A' for Active; 'I' for Inactive)
REMARK    1  A    between atoms: C_1  and  C_2
REMARK    2  A    between atoms: C_7  and  C_11
REMARK    3  A    between atoms: N_13  and  N_14
REMARK    4  A    between atoms: C_15  and  C_17
REMARK    5  A    between atoms: C_18  and  O_28
REMARK    6  A    between atoms: N_20  and  C_22
REMARK                            x       y       z     vdW  Elec       q    Type
REMARK                         _______ _______ _______ _____ _____    ______ ____
ROOT
ATOM      1  N   UNL     1      -1.191   1.870   0.018  0.00  0.00    -0.229 N 
ATOM      2  C   UNL     1      -0.014   1.212   0.009  0.00  0.00    +0.284 C 
ATOM      3  O   UNL     1       0.002  -0.004   0.002  0.00  0.00    -0.267 OA
ATOM      4  H   UNL     1      -1.204   2.840   0.023  0.00  0.00    +0.173 HD
ENDROOT
BRANCH   2   5
ATOM      5  C   UNL     1       1.253   1.966   0.001  0.00  0.00    +0.190 A 
ATOM      6  C   UNL     1       2.560   1.417  -0.009  0.00  0.00    +0.167 A 
ATOM      7  C   UNL     1       3.401   2.483  -0.017  0.00  0.00    +0.160 A 
ATOM      8  N   UNL     1       2.626   3.603  -0.003  0.00  0.00    -0.236 N 
ATOM      9  N   UNL     1       1.383   3.280   0.007  0.00  0.00    -0.158 NA
BRANCH   8  10
ATOM     10  C   UNL     1       3.114   4.916  -0.001  0.00  0.00    +0.065 A 
ATOM     11  C   UNL     1       4.483   5.150  -0.008  0.00  0.00    +0.028 A 
ATOM     12  C   UNL     1       4.961   6.446  -0.011  0.00  0.00    +0.002 A 
ATOM     13  C   UNL     1       4.078   7.510   0.005  0.00  0.00    +0.000 A 
ATOM     14  C   UNL     1       2.714   7.280   0.017  0.00  0.00    +0.002 A 
ATOM     15  C   UNL     1       2.230   5.987   0.014  0.00  0.00    +0.028 A 
ENDBRANCH   8  10
BRANCH   6  16
ATOM     16  O   UNL     1       2.901   0.100  -0.013  0.00  0.00    -0.503 OA
ATOM     17  H   UNL     1       2.993  -0.280  -0.897  0.00  0.00    +0.292 HD
ENDBRANCH   6  16
ENDBRANCH   2   5
BRANCH   1  20
ATOM     18  C   UNL     1      -3.571   1.811   0.029  0.00  0.00    +0.280 C 
ATOM     19  O   UNL     1      -3.587   3.026   0.035  0.00  0.00    -0.267 OA
ATOM     20  N   UNL     1      -2.394   1.153   0.020  0.00  0.00    -0.229 N 
ATOM     21  H   UNL     1      -2.381   0.183   0.014  0.00  0.00    +0.173 HD
BRANCH  18  28
ATOM     22  C   UNL     1      -8.997  -3.194   0.029  0.00  0.00    +0.044 C 
ATOM     23  C   UNL     1      -8.268  -1.875   0.033  0.00  0.00    -0.046 A 
ATOM     24  C   UNL     1      -8.990  -0.669   0.043  0.00  0.00    +0.021 A 
ATOM     25  C   UNL     1      -8.342   0.513   0.046  0.00  0.00    +0.093 A 
ATOM     26  N   UNL     1      -6.976   0.559   0.039  0.00  0.00    -0.306 N 
ATOM     27  C   UNL     1      -6.093   1.596   0.045  0.00  0.00    +0.125 A 
ATOM     28  C   UNL     1      -4.839   1.056   0.031  0.00  0.00    +0.146 A 
ATOM     29  N   UNL     1      -4.959  -0.285   0.025  0.00  0.00    -0.223 NA
ATOM     30  C   UNL     1      -6.243  -0.602   0.029  0.00  0.00    +0.139 A 
ATOM     31  C   UNL     1      -6.909  -1.847   0.026  0.00  0.00    +0.050 A 
ENDBRANCH  18  28
ENDBRANCH   1  20
TORSDOF 5
