REMARK  Name = ZINC20731844
REMARK  5 active torsions:
REMARK  status: ('A' for Active; 'I' for Inactive)
REMARK    1  A    between atoms: C_1  and  O_2
REMARK    2  A    between atoms: O_2  and  C_3
REMARK    3  A    between atoms: C_3  and  C_5
REMARK    4  A    between atoms: C_5  and  N_6
REMARK    5  A    between atoms: C_18  and  C_20
REMARK                            x       y       z     vdW  Elec       q    Type
REMARK                         _______ _______ _______ _____ _____    ______ ____
ROOT
ATOM      1  N   UNL     1       1.010  -4.888  -1.764  0.00  0.00    -0.289 N 
ATOM      2  C   UNL     1       1.480  -3.899  -2.550  0.00  0.00    +0.303 C 
ATOM      3  O   UNL     1       1.228  -2.739  -2.284  0.00  0.00    -0.253 OA
ATOM      4  N   UNL     1       2.229  -4.195  -3.631  0.00  0.00    -0.273 N 
ATOM      5  C   UNL     1       2.844  -3.129  -4.436  0.00  0.00    +0.116 C 
ATOM      6  C   UNL     1       2.237  -3.151  -5.845  0.00  0.00    +0.074 C 
ATOM      7  C   UNL     1       2.183  -4.577  -6.327  0.00  0.00    +0.040 A 
ATOM      8  C   UNL     1       2.273  -5.665  -5.532  0.00  0.00    +0.062 A 
ATOM      9  N   UNL     1       2.182  -6.751  -6.301  0.00  0.00    -0.348 N 
ATOM     10  C   UNL     1       2.041  -6.382  -7.548  0.00  0.00    +0.171 A 
ATOM     11  N   UNL     1       2.039  -5.030  -7.604  0.00  0.00    -0.349 N 
ATOM     12  H   UNL     1       1.951  -4.486  -8.402  0.00  0.00    +0.166 HD
ATOM     13  C   UNL     1       2.457  -5.595  -4.030  0.00  0.00    +0.159 C 
ATOM     14  H   UNL     1       1.148  -5.814  -2.016  0.00  0.00    +0.151 HD
ATOM     15  H   UNL     1       2.214  -7.668  -5.987  0.00  0.00    +0.167 HD
ENDROOT
BRANCH  13  16
ATOM     16  C   UNL     1       3.857  -6.012  -3.661  0.00  0.00    +0.015 A 
ATOM     17  C   UNL     1       4.834  -6.094  -4.636  0.00  0.00    +0.028 A 
ATOM     18  C   UNL     1       6.119  -6.476  -4.298  0.00  0.00    +0.041 A 
ATOM     19  C   UNL     1       6.429  -6.777  -2.983  0.00  0.00    +0.023 A 
ATOM     20  C   UNL     1       5.454  -6.696  -2.007  0.00  0.00    +0.040 A 
ATOM     21  C   UNL     1       4.168  -6.308  -2.345  0.00  0.00    +0.129 A 
ATOM     22  F   UNL     1       3.215  -6.222  -1.391  0.00  0.00    -0.205 F 
ATOM     23 CL   UNL     1       7.345  -6.580  -5.523  0.00  0.00    -0.084 Cl
ENDBRANCH  13  16
BRANCH   1  24
ATOM     24  C   UNL     1       0.289  -4.564  -0.531  0.00  0.00    +0.226 C 
BRANCH  24  25
ATOM     25  C   UNL     1      -0.127  -5.838   0.158  0.00  0.00    +0.324 C 
ATOM     26  O   UNL     1       0.150  -6.907  -0.332  0.00  0.00    -0.249 OA
BRANCH  25  28
ATOM     27  C   UNL     1      -1.167  -7.032   1.912  0.00  0.00    +0.280 C 
ATOM     28  O   UNL     1      -0.804  -5.785   1.315  0.00  0.00    -0.467 OA
ENDBRANCH  25  28
ENDBRANCH  24  25
ENDBRANCH   1  24
TORSDOF 4
