REMARK  Name = ZINC61858981
REMARK  4 active torsions:
REMARK  status: ('A' for Active; 'I' for Inactive)
REMARK    1  A    between atoms: C_5  and  C_6
REMARK    2  A    between atoms: N_8  and  N_9
REMARK    3  A    between atoms: N_12  and  C_13
REMARK    4  A    between atoms: C_18  and  C_19
REMARK                            x       y       z     vdW  Elec       q    Type
REMARK                         _______ _______ _______ _____ _____    ______ ____
ROOT
ATOM      1  N   UNL     1      -2.077  -3.108   0.006  0.00  0.00    -0.218 N 
ATOM      2  C   UNL     1      -1.890  -4.442  -0.003  0.00  0.00    +0.316 C 
ATOM      3  O   UNL     1      -2.849  -5.190   0.002  0.00  0.00    -0.251 OA
ATOM      4  N   UNL     1      -0.641  -4.948  -0.018  0.00  0.00    -0.295 N 
ATOM      5  H   UNL     1      -2.976  -2.744   0.017  0.00  0.00    +0.174 HD
ATOM      6  H   UNL     1       0.123  -4.351  -0.022  0.00  0.00    +0.151 HD
ENDROOT
BRANCH   4   7
ATOM      7  C   UNL     1      -0.438  -6.399  -0.028  0.00  0.00    +0.086 C 
ATOM      8  C   UNL     1      -0.506  -6.913  -1.467  0.00  0.00    +0.023 C 
ATOM      9  C   UNL     1       0.585  -6.240  -2.302  0.00  0.00    +0.002 C 
ATOM     10  C   UNL     1       1.957  -6.567  -1.707  0.00  0.00    +0.001 C 
ATOM     11  C   UNL     1       2.025  -6.052  -0.268  0.00  0.00    +0.014 C 
ATOM     12  C   UNL     1       0.933  -6.726   0.566  0.00  0.00    +0.113 C 
BRANCH  12  13
ATOM     13  C   UNL     1       1.001  -6.211   2.006  0.00  0.00    +0.395 C 
ATOM     14  F   UNL     1       0.004  -6.827   2.769  0.00  0.00    -0.170 F 
ATOM     15  F   UNL     1       2.255  -6.510   2.549  0.00  0.00    -0.170 F 
ATOM     16  F   UNL     1       0.807  -4.825   2.015  0.00  0.00    -0.170 F 
ENDBRANCH  12  13
ENDBRANCH   4   7
BRANCH   1  19
ATOM     17  C   UNL     1      -1.160  -0.911   0.009  0.00  0.00    +0.263 C 
ATOM     18  O   UNL     1      -2.287  -0.455   0.022  0.00  0.00    -0.269 OA
ATOM     19  N   UNL     1      -0.973  -2.246  -0.000  0.00  0.00    -0.229 N 
ATOM     20  H   UNL     1      -0.074  -2.609  -0.011  0.00  0.00    +0.173 HD
BRANCH  17  25
ATOM     21  C   UNL     1      -0.018   1.466   0.010  0.00  0.00    +0.054 A 
ATOM     22  C   UNL     1       1.267   1.852  -0.000  0.00  0.00    +0.195 A 
ATOM     23  O   UNL     1       2.053   0.765  -0.013  0.00  0.00    -0.470 OA
ATOM     24  C   UNL     1       1.321  -0.353  -0.012  0.00  0.00    +0.208 A 
ATOM     25  C   UNL     1       0.002  -0.004   0.002  0.00  0.00    +0.076 A 
ENDBRANCH  17  25
ENDBRANCH   1  19
TORSDOF 4
