REMARK  Name = ZINC53070878
REMARK  5 active torsions:
REMARK  status: ('A' for Active; 'I' for Inactive)
REMARK    1  A    between atoms: C_3  and  N_16
REMARK    2  A    between atoms: C_4  and  N_8
REMARK    3  A    between atoms: N_8  and  C_9
REMARK    4  A    between atoms: C_9  and  C_14
REMARK    5  A    between atoms: C_14  and  O_15
REMARK                            x       y       z     vdW  Elec       q    Type
REMARK                         _______ _______ _______ _____ _____    ______ ____
ROOT
ATOM      1  C   UNL     1       5.304   1.593   3.285  0.00  0.00    +0.041 A 
ATOM      2  C   UNL     1       4.790   2.300   2.213  0.00  0.00    +0.037 A 
ATOM      3  C   UNL     1       4.235   1.627   1.142  0.00  0.00    +0.147 A 
ATOM      4  C   UNL     1       4.195   0.239   1.140  0.00  0.00    +0.061 A 
ATOM      5  C   UNL     1       4.713  -0.470   2.216  0.00  0.00    +0.063 A 
ATOM      6  C   UNL     1       5.266   0.209   3.287  0.00  0.00    +0.125 A 
ATOM      7  F   UNL     1       5.770  -0.479   4.335  0.00  0.00    -0.205 F 
ENDROOT
BRANCH   3   8
ATOM      8  N   UNL     1       3.684   2.386  -0.003  0.00  0.00    +0.058 N 
ATOM      9  O   UNL     1       3.614   3.592   0.048  0.00  0.00    -0.126 OA
ATOM     10  O   UNL     1       3.304   1.800  -0.990  0.00  0.00    -0.126 OA
ENDBRANCH   3   8
BRANCH   4  11
ATOM     11  N   UNL     1       3.634  -0.443   0.058  0.00  0.00    -0.334 N 
ATOM     12  H   UNL     1       3.327   0.049  -0.719  0.00  0.00    +0.147 HD
BRANCH  11  13
ATOM     13  C   UNL     1       3.511  -1.903   0.096  0.00  0.00    +0.055 C 
ATOM     14  C   UNL     1       2.968  -2.423  -1.251  0.00  0.00    +0.028 C 
ATOM     15  C   UNL     1       4.238  -2.822  -2.043  0.00  0.00    +0.002 C 
ATOM     16  C   UNL     1       5.147  -3.432  -0.947  0.00  0.00    +0.002 C 
ATOM     17  C   UNL     1       4.896  -2.544   0.289  0.00  0.00    +0.028 C 
BRANCH  13  18
ATOM     18  C   UNL     1       2.577  -2.319   1.234  0.00  0.00    +0.181 C 
BRANCH  18  19
ATOM     19  O   UNL     1       1.323  -1.649   1.091  0.00  0.00    -0.393 OA
ATOM     20  H   UNL     1       0.680  -1.866   1.780  0.00  0.00    +0.209 HD
ENDBRANCH  18  19
ENDBRANCH  13  18
ENDBRANCH  11  13
ENDBRANCH   4  11
TORSDOF 5
