REMARK  Name = ZINC44731483
REMARK  8 active torsions:
REMARK  status: ('A' for Active; 'I' for Inactive)
REMARK    1  A    between atoms: C_1  and  C_2
REMARK    2  A    between atoms: C_5  and  O_21
REMARK    3  A    between atoms: C_6  and  C_8
REMARK    4  A    between atoms: N_10  and  C_11
REMARK    5  A    between atoms: C_11  and  C_13
REMARK    6  A    between atoms: C_11  and  C_14
REMARK    7  A    between atoms: C_16  and  C_20
REMARK    8  A    between atoms: C_18  and  C_19
REMARK                            x       y       z     vdW  Elec       q    Type
REMARK                         _______ _______ _______ _____ _____    ______ ____
ROOT
ATOM      1  C   UNL     1       0.053  -2.841   2.459  0.00  0.00    +0.248 C 
ATOM      2  O   UNL     1       0.070  -4.056   2.449  0.00  0.00    -0.270 OA
ATOM      3  N   UNL     1       0.050  -2.176   3.631  0.00  0.00    -0.305 N 
ATOM      4  H   UNL     1       0.037  -1.206   3.639  0.00  0.00    +0.150 HD
ENDROOT
BRANCH   1  10
ATOM      5  C   UNL     1      -0.018   1.503   0.010  0.00  0.00    +0.044 C 
ATOM      6  C   UNL     1       0.002  -0.004   0.002  0.00  0.00    -0.050 A 
ATOM      7  C   UNL     1       0.006  -0.687  -1.203  0.00  0.00    +0.007 A 
ATOM      8  C   UNL     1       0.024  -2.067  -1.224  0.00  0.00    +0.046 A 
ATOM      9  C   UNL     1       0.040  -2.780  -0.034  0.00  0.00    +0.129 A 
ATOM     10  C   UNL     1       0.037  -2.093   1.187  0.00  0.00    +0.078 A 
ATOM     11  C   UNL     1       0.023  -0.696   1.193  0.00  0.00    +0.020 A 
BRANCH   9  12
ATOM     12  O   UNL     1       0.058  -4.137  -0.053  0.00  0.00    -0.506 OA
ATOM     13  H   UNL     1       0.947  -4.518  -0.063  0.00  0.00    +0.292 HD
ENDBRANCH   9  12
ENDBRANCH   1  10
BRANCH   3  14
ATOM     14  C   UNL     1       0.067  -2.918   4.894  0.00  0.00    +0.104 C 
ATOM     15  C   UNL     1      -1.363  -3.304   5.277  0.00  0.00    +0.033 C 
BRANCH  14  16
ATOM     16  C   UNL     1       0.661  -2.054   5.977  0.00  0.00    +0.013 A 
ATOM     17  C   UNL     1       0.682  -0.641   6.010  0.00  0.00    +0.050 A 
ATOM     18  C   UNL     1       1.305  -0.288   7.149  0.00  0.00    +0.103 A 
ATOM     19  O   UNL     1       1.661  -1.406   7.803  0.00  0.00    -0.465 OA
ATOM     20  C   UNL     1       1.268  -2.480   7.099  0.00  0.00    +0.107 A 
ATOM     21  C   UNL     1       1.475  -3.919   7.498  0.00  0.00    +0.086 C 
ATOM     22  C   UNL     1       1.562   1.123   7.612  0.00  0.00    +0.086 C 
ENDBRANCH  14  16
ENDBRANCH   3  14
TORSDOF 4
