REMARK  Name = ZINC02103030
REMARK  6 active torsions:
REMARK  status: ('A' for Active; 'I' for Inactive)
REMARK    1  A    between atoms: C_1  and  C_2
REMARK    2  A    between atoms: C_8  and  C_35
REMARK    3  A    between atoms: C_9  and  O_34
REMARK    4  A    between atoms: C_19  and  C_21
REMARK    5  A    between atoms: C_21  and  N_63
REMARK    6  A    between atoms: C_27  and  C_29
REMARK                            x       y       z     vdW  Elec       q    Type
REMARK                         _______ _______ _______ _____ _____    ______ ____
ROOT
ATOM      1  C   UNL     1      -0.384  10.664   6.601  0.00  0.00    +0.008 C 
ATOM      2  C   UNL     1      -1.402  11.578   5.915  0.00  0.00    -0.001 C 
ATOM      3  C   UNL     1      -1.040  13.029   6.219  0.00  0.00    +0.008 C 
ATOM      4  C   UNL     1      -2.089  13.951   5.594  0.00  0.00    +0.027 C 
ATOM      5  C   UNL     1      -2.207  13.631   4.132  0.00  0.00    -0.027 C 
ATOM      6  C   UNL     1      -1.913  12.469   3.631  0.00  0.00    -0.061 C 
ATOM      7  C   UNL     1      -1.384  11.301   4.409  0.00  0.00    +0.018 C 
ATOM      8  C   UNL     1      -2.220  10.061   4.125  0.00  0.00    +0.132 C 
ATOM      9  C   UNL     1      -2.909   9.927   2.814  0.00  0.00    +0.071 C 
ATOM     10  C   UNL     1      -3.290  11.200   2.053  0.00  0.00    +0.187 C 
ATOM     11  C   UNL     1      -2.176  12.250   2.151  0.00  0.00    +0.076 C 
ATOM     12  O   UNL     1      -3.391  10.793   0.653  0.00  0.00    -0.460 OA
ATOM     13  C   UNL     1      -2.937   9.549   0.457  0.00  0.00    +0.309 C 
ATOM     14  O   UNL     1      -3.011   8.921  -0.577  0.00  0.00    -0.251 OA
ATOM     15  C   UNL     1      -2.301   9.028   1.742  0.00  0.00    +0.090 C 
ATOM     16  C   UNL     1       0.077  11.057   4.021  0.00  0.00    +0.018 C 
ENDROOT
BRANCH   8  17
ATOM     17  O   UNL     1      -1.443   8.886   4.393  0.00  0.00    -0.391 OA
ATOM     18  H   UNL     1      -1.963   8.072   4.431  0.00  0.00    +0.210 HD
ENDBRANCH   8  17
BRANCH  15  19
ATOM     19  C   UNL     1      -0.784   9.109   1.621  0.00  0.00    -0.064 C 
BRANCH  19  27
ATOM     20  C   UNL     1       1.146   8.146   0.520  0.00  0.00    -0.059 C 
ATOM     21  C   UNL     1       1.580   7.277  -0.665  0.00  0.00    +0.089 C 
ATOM     22  N   UNL     1       0.959   5.951  -0.525  0.00  0.00    -0.299 N 
ATOM     23  C   UNL     1      -0.494   5.883  -0.303  0.00  0.00    +0.089 C 
ATOM     24  C   UNL     1      -0.845   6.807   0.874  0.00  0.00    -0.059 C 
ATOM     25  C   UNL     1       1.700   4.828  -0.603  0.00  0.00    +0.282 C 
ATOM     26  O   UNL     1       2.912   4.904  -0.686  0.00  0.00    -0.267 OA
ATOM     27  N   UNL     1      -0.332   8.163   0.580  0.00  0.00    +0.382 N 
ATOM     28  H   UNL     1      -0.699   8.467  -0.329  0.00  0.00    -0.082 HD
BRANCH  25  29
ATOM     29  C   UNL     1       1.046   3.515  -0.588  0.00  0.00    +0.189 A 
ATOM     30  C   UNL     1       1.676   2.306  -0.522  0.00  0.00    +0.054 A 
ATOM     31  C   UNL     1       0.671   1.326  -0.532  0.00  0.00    +0.042 A 
ATOM     32  C   UNL     1      -0.513   1.972  -0.608  0.00  0.00    +0.196 A 
ATOM     33  O   UNL     1      -0.283   3.291  -0.636  0.00  0.00    -0.458 OA
ENDBRANCH  25  29
ENDBRANCH  19  27
ENDBRANCH  15  19
TORSDOF 4
