REMARK  Name = ZINC41979379
REMARK  6 active torsions:
REMARK  status: ('A' for Active; 'I' for Inactive)
REMARK    1  A    between atoms: C_1  and  C_2
REMARK    2  A    between atoms: C_7  and  S_10
REMARK    3  A    between atoms: S_10  and  C_11
REMARK    4  A    between atoms: C_11  and  C_12
REMARK    5  A    between atoms: C_11  and  C_13
REMARK    6  A    between atoms: C_11  and  C_20
REMARK                            x       y       z     vdW  Elec       q    Type
REMARK                         _______ _______ _______ _____ _____    ______ ____
ROOT
ATOM      1  C   UNL     1       0.075  -4.680   2.209  0.00  0.00    +0.148 C 
ATOM      2  C   UNL     1      -1.138  -4.686   1.276  0.00  0.00    +0.040 C 
ENDROOT
BRANCH   1   3
ATOM      3  C   UNL     1      -0.018  -5.844   3.161  0.00  0.00    -0.007 A 
ATOM      4  C   UNL     1      -1.115  -6.685   3.120  0.00  0.00    +0.006 A 
ATOM      5  C   UNL     1      -1.200  -7.754   3.993  0.00  0.00    +0.000 A 
ATOM      6  C   UNL     1      -0.189  -7.982   4.908  0.00  0.00    +0.001 A 
ATOM      7  C   UNL     1       0.908  -7.141   4.950  0.00  0.00    +0.015 A 
ATOM      8  C   UNL     1       0.996  -6.075   4.073  0.00  0.00    +0.023 A 
ATOM      9 BR   UNL     1       2.499  -4.929   4.125  0.00  0.00    -0.050 Br
ENDBRANCH   1   3
BRANCH   1  10
ATOM     10  C   UNL     1       1.337  -4.797   1.394  0.00  0.00    +0.376 C 
ATOM     11  O   UNL     1       2.149  -3.887   1.393  0.00  0.00    -0.244 OA
ATOM     12  O   UNL     1       1.546  -5.801   0.735  0.00  0.00    -0.244 OA
ENDBRANCH   1  10
BRANCH   1  13
ATOM     13  S   UNL     1       0.105  -3.130   3.151  0.00  0.00    -0.065 S 
BRANCH  13  20
ATOM     14  C   UNL     1       0.388   1.859   1.754  0.00  0.00    +0.063 C 
ATOM     15  C   UNL     1       0.341   0.411   1.341  0.00  0.00    +0.020 A 
ATOM     16  C   UNL     1       0.381   0.072   0.035  0.00  0.00    +0.093 A 
ATOM     17  C   UNL     1       0.334  -1.301  -0.320  0.00  0.00    +0.274 A 
ATOM     18  O   UNL     1       0.369  -1.633  -1.495  0.00  0.00    -0.266 OA
ATOM     19  N   UNL     1       0.252  -2.230   0.642  0.00  0.00    -0.185 NA
ATOM     20  C   UNL     1       0.214  -1.881   1.913  0.00  0.00    +0.171 A 
ATOM     21  N   UNL     1       0.262  -0.573   2.284  0.00  0.00    -0.338 N 
ATOM     22  H   UNL     1       0.237  -0.338   3.225  0.00  0.00    +0.167 HD
ENDBRANCH  13  20
ENDBRANCH   1  13
TORSDOF 4
