REMARK  Name = ZINC20468342
REMARK  5 active torsions:
REMARK  status: ('A' for Active; 'I' for Inactive)
REMARK    1  A    between atoms: C_5  and  O_7
REMARK    2  A    between atoms: O_7  and  C_8
REMARK    3  A    between atoms: C_11  and  C_17
REMARK    4  A    between atoms: C_13  and  N_14
REMARK    5  A    between atoms: C_17  and  O_18
REMARK                            x       y       z     vdW  Elec       q    Type
REMARK                         _______ _______ _______ _____ _____    ______ ____
ROOT
ATOM      1  C   UNL     1      -2.021   2.454   3.524  0.00  0.00    +0.159 A 
ATOM      2  C   UNL     1      -0.918   3.134   3.026  0.00  0.00    +0.049 A 
ATOM      3  C   UNL     1      -0.279   2.675   1.891  0.00  0.00    +0.009 A 
ATOM      4  C   UNL     1      -0.744   1.544   1.244  0.00  0.00    -0.020 A 
ATOM      5  C   UNL     1      -1.842   0.865   1.738  0.00  0.00    +0.042 A 
ATOM      6  C   UNL     1      -2.482   1.317   2.876  0.00  0.00    +0.168 A 
ENDROOT
BRANCH   6   7
ATOM      7  N   UNL     1      -3.657   0.589   3.404  0.00  0.00    +0.060 N 
ATOM      8  O   UNL     1      -4.062  -0.409   2.835  0.00  0.00    -0.126 OA
ATOM      9  O   UNL     1      -4.221   0.989   4.408  0.00  0.00    -0.126 OA
ENDBRANCH   6   7
BRANCH   1  10
ATOM     10  O   UNL     1      -2.648   2.901   4.643  0.00  0.00    -0.453 OA
BRANCH  10  15
ATOM     11  C   UNL     1      -0.790   0.996   7.124  0.00  0.00    +0.004 A 
ATOM     12  C   UNL     1      -1.477   1.334   8.276  0.00  0.00    +0.001 A 
ATOM     13  C   UNL     1      -2.556   2.197   8.213  0.00  0.00    +0.019 A 
ATOM     14  C   UNL     1      -2.950   2.723   6.997  0.00  0.00    +0.060 A 
ATOM     15  C   UNL     1      -2.262   2.385   5.840  0.00  0.00    +0.142 A 
ATOM     16  C   UNL     1      -1.183   1.515   5.906  0.00  0.00    +0.047 A 
ATOM     17 BR   UNL     1      -4.426   3.903   6.910  0.00  0.00    -0.046 Br
ENDBRANCH  10  15
ENDBRANCH   1  10
BRANCH   4  18
ATOM     18  C   UNL     1      -0.048   1.048   0.003  0.00  0.00    +0.191 C 
BRANCH  18  19
ATOM     19  O   UNL     1      -0.640   1.652  -1.149  0.00  0.00    -0.390 OA
ATOM     20  H   UNL     1      -0.262   1.409  -2.153  0.00  0.00    +0.210 HD
ENDBRANCH  18  19
ENDBRANCH   4  18
TORSDOF 5
