REMARK  Name = ZINC10040722
REMARK  11 active torsions:
REMARK  status: ('A' for Active; 'I' for Inactive)
REMARK    1  A    between atoms: C_1  and  C_2
REMARK    2  A    between atoms: C_2  and  C_3
REMARK    3  A    between atoms: C_2  and  C_4
REMARK    4  A    between atoms: C_4  and  C_6
REMARK    5  A    between atoms: C_4  and  N_23
REMARK    6  A    between atoms: N_8  and  N_9
REMARK    7  A    between atoms: C_10  and  C_11
REMARK    8  A    between atoms: C_16  and  O_17
REMARK    9  A    between atoms: O_17  and  C_18
REMARK   10  A    between atoms: C_18  and  C_19
REMARK   11  A    between atoms: C_24  and  C_26
REMARK                            x       y       z     vdW  Elec       q    Type
REMARK                         _______ _______ _______ _____ _____    ______ ____
ROOT
ATOM      1  C   UNL     1      -3.601  -2.419   0.584  0.00  0.00    +0.253 C 
ATOM      2  O   UNL     1      -2.517  -2.607   1.095  0.00  0.00    -0.272 OA
ATOM      3  N   UNL     1      -4.491  -3.427   0.503  0.00  0.00    -0.205 N 
ATOM      4  H   UNL     1      -5.385  -3.259   0.165  0.00  0.00    +0.177 HD
ENDROOT
BRANCH   3   5
ATOM      5  N   UNL     1      -4.127  -4.718   0.908  0.00  0.00    -0.188 NA
ATOM      6  C   UNL     1      -4.985  -5.689   0.829  0.00  0.00    +0.142 C 
BRANCH   6   7
ATOM      7  C   UNL     1      -4.601  -7.047   1.255  0.00  0.00    +0.038 A 
ATOM      8  C   UNL     1      -5.523  -8.094   1.177  0.00  0.00    +0.033 A 
ATOM      9  C   UNL     1      -5.156  -9.364   1.573  0.00  0.00    +0.042 A 
ATOM     10  C   UNL     1      -3.880  -9.603   2.057  0.00  0.00    +0.023 A 
ATOM     11  C   UNL     1      -2.961  -8.574   2.142  0.00  0.00    +0.048 A 
ATOM     12  C   UNL     1      -3.312  -7.294   1.744  0.00  0.00    +0.130 A 
ATOM     13 CL   UNL     1      -6.300 -10.666   1.471  0.00  0.00    -0.084 Cl
BRANCH  12  14
ATOM     14  O   UNL     1      -2.409  -6.283   1.828  0.00  0.00    -0.482 OA
BRANCH  14  15
ATOM     15  C   UNL     1      -1.114  -6.610   2.337  0.00  0.00    +0.324 C 
BRANCH  15  16
ATOM     16  C   UNL     1      -0.255  -5.372   2.357  0.00  0.00    +0.248 C 
ATOM     17  O   UNL     1      -0.707  -4.314   1.972  0.00  0.00    -0.272 OA
ATOM     18  N   UNL     1       1.016  -5.440   2.801  0.00  0.00    -0.327 N 
ATOM     19  H   UNL     1       1.377  -6.286   3.108  0.00  0.00    +0.145 HD
ATOM     20  H   UNL     1       1.569  -4.643   2.813  0.00  0.00    +0.145 HD
ENDBRANCH  15  16
ENDBRANCH  14  15
ENDBRANCH  12  14
ENDBRANCH   6   7
ENDBRANCH   3   5
BRANCH   1  21
ATOM     21  C   UNL     1      -3.952  -1.058   0.041  0.00  0.00    +0.163 C 
BRANCH  21  22
ATOM     22  N   UNL     1      -3.037  -0.059   0.599  0.00  0.00    -0.300 N 
ATOM     23  C   UNL     1      -3.419   1.231   0.686  0.00  0.00    +0.246 C 
ATOM     24  O   UNL     1      -4.524   1.564   0.303  0.00  0.00    -0.270 OA
ATOM     25  H   UNL     1      -2.156  -0.325   0.904  0.00  0.00    +0.150 HD
BRANCH  23  26
ATOM     26  C   UNL     1      -2.497   2.238   1.248  0.00  0.00    +0.055 A 
ATOM     27  C   UNL     1      -1.227   1.858   1.690  0.00  0.00    +0.016 A 
ATOM     28  C   UNL     1      -0.369   2.803   2.208  0.00  0.00    +0.021 A 
ATOM     29  C   UNL     1      -0.764   4.128   2.298  0.00  0.00    +0.042 A 
ATOM     30  C   UNL     1      -2.023   4.512   1.868  0.00  0.00    +0.040 A 
ATOM     31  C   UNL     1      -2.892   3.575   1.346  0.00  0.00    +0.054 A 
ATOM     32 CL   UNL     1      -4.470   4.057   0.806  0.00  0.00    -0.083 Cl
ATOM     33 CL   UNL     1       0.323   5.312   2.953  0.00  0.00    -0.083 Cl
ENDBRANCH  23  26
ENDBRANCH  21  22
BRANCH  21  35
ATOM     34  C   UNL     1      -4.295   0.275  -2.044  0.00  0.00    +0.009 C 
ATOM     35  C   UNL     1      -3.827  -1.070  -1.484  0.00  0.00    +0.012 C 
ATOM     36  C   UNL     1      -2.366  -1.304  -1.874  0.00  0.00    +0.009 C 
ENDBRANCH  21  35
ENDBRANCH   1  21
TORSDOF 9
