REMARK  Name = ZINC39958853
REMARK  7 active torsions:
REMARK  status: ('A' for Active; 'I' for Inactive)
REMARK    1  A    between atoms: C_1  and  C_2
REMARK    2  A    between atoms: C_2  and  C_30
REMARK    3  A    between atoms: C_4  and  N_10
REMARK    4  A    between atoms: C_6  and  C_8
REMARK    5  A    between atoms: C_6  and  C_9
REMARK    6  A    between atoms: C_11  and  C_13
REMARK    7  A    between atoms: C_16  and  C_20
REMARK                            x       y       z     vdW  Elec       q    Type
REMARK                         _______ _______ _______ _____ _____    ______ ____
ROOT
ATOM      1  N   UNL     1       2.615  -0.819  -2.626  0.00  0.00    -0.309 N 
ATOM      2  C   UNL     1       3.770  -0.334  -3.123  0.00  0.00    +0.259 C 
ATOM      3  O   UNL     1       4.374   0.530  -2.523  0.00  0.00    -0.271 OA
ATOM      4  H   UNL     1       2.133  -1.510  -3.106  0.00  0.00    +0.149 HD
ENDROOT
BRANCH   1   8
ATOM      5  C   UNL     1      -0.019   1.528   0.010  0.00  0.00    -0.010 C 
ATOM      6  C   UNL     1       0.002  -0.004   0.002  0.00  0.00    -0.072 C 
ATOM      7  C   UNL     1       0.573  -0.505  -1.321  0.00  0.00    +0.009 C 
ATOM      8  C   UNL     1       2.088  -0.301  -1.357  0.00  0.00    +0.070 C 
ATOM      9  C   UNL     1       2.703  -1.086  -0.198  0.00  0.00    +0.009 C 
ATOM     10  C   UNL     1       2.147  -0.590   1.133  0.00  0.00    -0.072 C 
ATOM     11  N   UNL     1       0.697  -0.529   1.164  0.00  0.00    +0.386 N 
ATOM     12  C   UNL     1       2.769   0.766   1.481  0.00  0.00    -0.010 C 
ATOM     13  C   UNL     1       2.600  -1.589   2.223  0.00  0.00    -0.010 C 
ATOM     14  C   UNL     1      -1.468  -0.478   0.079  0.00  0.00    -0.010 C 
ATOM     15  H   UNL     1       0.416   0.021   1.982  0.00  0.00    -0.084 HD
ATOM     16  H   UNL     1       0.341  -1.472   1.351  0.00  0.00    -0.084 HD
ENDBRANCH   1   8
BRANCH   2  17
ATOM     17  C   UNL     1       4.312  -0.866  -4.426  0.00  0.00    +0.297 C 
ATOM     18  N   UNL     1       4.793  -2.253  -4.242  0.00  0.00    -0.262 NA
ATOM     19  C   UNL     1       6.012  -2.328  -5.092  0.00  0.00    +0.180 C 
ATOM     20  N   UNL     1       6.602  -0.974  -4.917  0.00  0.00    -0.177 NA
ATOM     21  O   UNL     1       5.433  -0.074  -4.848  0.00  0.00    -0.270 OA
ATOM     22  H   UNL     1       5.016  -2.433  -3.274  0.00  0.00    +0.127 HD
ATOM     23  H   UNL     1       7.149  -0.925  -4.071  0.00  0.00    +0.156 HD
BRANCH  19  24
ATOM     24  C   UNL     1       6.950  -3.396  -4.591  0.00  0.00    -0.014 C 
ATOM     25  C   UNL     1       7.296  -4.439  -5.405  0.00  0.00    +0.012 C 
ATOM     26  C   UNL     1       8.222  -5.344  -4.857  0.00  0.00    -0.018 C 
ATOM     27  C   UNL     1       8.423  -6.661  -5.024  0.00  0.00    +0.025 C 
ATOM     28  C   UNL     1       9.291  -7.133  -4.013  0.00  0.00    +0.106 C 
ATOM     29  N   UNL     1       9.758  -6.166  -3.276  0.00  0.00    -0.279 NA
ATOM     30  C   UNL     1       9.246  -4.916  -3.818  0.00  0.00    +0.158 C 
ATOM     31  C   UNL     1       8.545  -4.031  -2.831  0.00  0.00    +0.004 C 
ATOM     32  C   UNL     1       7.494  -3.313  -3.239  0.00  0.00    +0.005 C 
ENDBRANCH  19  24
ENDBRANCH   2  17
TORSDOF 3
