REMARK  Name = ZINC05846073
REMARK  10 active torsions:
REMARK  status: ('A' for Active; 'I' for Inactive)
REMARK    1  A    between atoms: C_1  and  C_2
REMARK    2  A    between atoms: C_2  and  C_3
REMARK    3  A    between atoms: C_2  and  N_4
REMARK    4  A    between atoms: C_5  and  C_7
REMARK    5  A    between atoms: C_11  and  N_12
REMARK    6  A    between atoms: C_13  and  C_15
REMARK    7  A    between atoms: C_21  and  C_25
REMARK    8  A    between atoms: C_25  and  C_26
REMARK    9  A    between atoms: C_25  and  C_27
REMARK   10  A    between atoms: C_25  and  C_28
REMARK                            x       y       z     vdW  Elec       q    Type
REMARK                         _______ _______ _______ _____ _____    ______ ____
ROOT
ATOM      1  C   UNL     1       3.636   1.755  -0.029  0.00  0.00    +0.069 A 
ATOM      2  C   UNL     1       4.747   0.818  -0.038  0.00  0.00    -0.023 A 
ATOM      3  C   UNL     1       4.399  -0.487  -0.042  0.00  0.00    -0.004 A 
ATOM      4  S   UNL     1       2.629  -0.484  -0.026  0.00  0.00    -0.077 S 
ATOM      5  C   UNL     1       2.352   1.226  -0.014  0.00  0.00    +0.085 A 
ATOM      6  C   UNL     1       5.321  -1.667  -0.056  0.00  0.00    +0.046 C 
ATOM      7  C   UNL     1       6.731  -1.184   0.313  0.00  0.00    -0.000 C 
ATOM      8  C   UNL     1       7.061   0.058  -0.520  0.00  0.00    +0.009 C 
ATOM      9  C   UNL     1       6.211   1.240  -0.051  0.00  0.00    +0.037 C 
ENDROOT
BRANCH   1  11
ATOM     10  N   UNL     1       3.952   3.870  -1.198  0.00  0.00    -0.309 N 
ATOM     11  C   UNL     1       3.862   3.203  -0.030  0.00  0.00    +0.247 C 
ATOM     12  O   UNL     1       3.969   3.803   1.023  0.00  0.00    -0.270 OA
ATOM     13  H   UNL     1       3.866   3.391  -2.038  0.00  0.00    +0.149 HD
BRANCH  10  15
ATOM     14  C   UNL     1       5.678   5.599  -1.093  0.00  0.00    +0.027 C 
ATOM     15  C   UNL     1       4.178   5.317  -1.200  0.00  0.00    +0.067 C 
ATOM     16  C   UNL     1       3.638   5.916  -2.500  0.00  0.00    +0.027 C 
ENDBRANCH  10  15
ENDBRANCH   1  11
BRANCH   5  17
ATOM     17  N   UNL     1       1.143   1.903   0.001  0.00  0.00    -0.275 N 
ATOM     18  C   UNL     1      -0.014   1.213   0.009  0.00  0.00    +0.255 C 
ATOM     19  O   UNL     1       0.002  -0.004   0.002  0.00  0.00    -0.269 OA
ATOM     20  H   UNL     1       1.130   2.873   0.007  0.00  0.00    +0.156 HD
BRANCH  18  21
ATOM     21  C   UNL     1      -1.293   1.928   0.019  0.00  0.00    +0.074 A 
ATOM     22  C   UNL     1      -2.581   1.415   0.016  0.00  0.00    +0.021 A 
ATOM     23  C   UNL     1      -3.614   2.320   0.032  0.00  0.00    +0.008 A 
ATOM     24  C   UNL     1      -3.332   3.649   0.037  0.00  0.00    +0.046 A 
ATOM     25  S   UNL     1      -1.598   3.686   0.029  0.00  0.00    -0.092 S 
ENDBRANCH  18  21
ENDBRANCH   5  17
BRANCH   7  26
ATOM     26  C   UNL     1       7.747  -2.288   0.012  0.00  0.00    -0.035 C 
ATOM     27  C   UNL     1       9.153  -1.797   0.364  0.00  0.00    +0.011 C 
ATOM     28  C   UNL     1       7.416  -3.527   0.845  0.00  0.00    +0.011 C 
ATOM     29  C   UNL     1       7.689  -2.643  -1.475  0.00  0.00    +0.011 C 
ENDBRANCH   7  26
TORSDOF 5
