REMARK  Name = ZINC64427113
REMARK  8 active torsions:
REMARK  status: ('A' for Active; 'I' for Inactive)
REMARK    1  A    between atoms: C_1  and  C_2
REMARK    2  A    between atoms: C_2  and  C_3
REMARK    3  A    between atoms: C_10  and  N_25
REMARK    4  A    between atoms: C_11  and  C_23
REMARK    5  A    between atoms: C_12  and  C_14
REMARK    6  A    between atoms: C_17  and  O_21
REMARK    7  A    between atoms: C_18  and  O_20
REMARK    8  A    between atoms: O_21  and  C_22
REMARK                            x       y       z     vdW  Elec       q    Type
REMARK                         _______ _______ _______ _____ _____    ______ ____
ROOT
ATOM      1  C   UNL     1      -1.433  -0.534   0.013  0.00  0.00    +0.160 C 
ATOM      2  C   UNL     1      -1.448  -2.035  -0.054  0.00  0.00    +0.032 C 
ATOM      3  C   UNL     1      -2.040  -2.429   1.087  0.00  0.00    +0.243 C 
ATOM      4  N   UNL     1      -2.378  -1.347   1.825  0.00  0.00    -0.115 NA
ATOM      5  N   UNL     1      -2.084  -0.257   1.309  0.00  0.00    -0.176 NA
ATOM      6  O   UNL     1      -2.231  -3.747   1.375  0.00  0.00    -0.422 OA
ATOM      7  C   UNL     1      -2.066  -4.639   0.379  0.00  0.00    +0.200 C 
ATOM      8  C   UNL     1      -1.477  -4.351  -0.805  0.00  0.00    +0.098 C 
ATOM      9  C   UNL     1      -0.943  -2.971  -1.110  0.00  0.00    +0.098 C 
ENDROOT
BRANCH   9  10
ATOM     10  C   UNL     1       0.564  -2.992  -1.093  0.00  0.00    -0.031 A 
ATOM     11  C   UNL     1       1.236  -3.393   0.047  0.00  0.00    +0.008 A 
ATOM     12  C   UNL     1       2.618  -3.414   0.067  0.00  0.00    +0.050 A 
ATOM     13  C   UNL     1       3.333  -3.033  -1.057  0.00  0.00    +0.161 A 
ATOM     14  C   UNL     1       2.657  -2.630  -2.204  0.00  0.00    +0.159 A 
ATOM     15  C   UNL     1       1.272  -2.616  -2.220  0.00  0.00    +0.053 A 
BRANCH  14  16
ATOM     16  O   UNL     1       3.355  -2.255  -3.310  0.00  0.00    -0.503 OA
ATOM     17  H   UNL     1       3.548  -2.981  -3.918  0.00  0.00    +0.292 HD
ENDBRANCH  14  16
BRANCH  13  18
ATOM     18  O   UNL     1       4.693  -3.053  -1.038  0.00  0.00    -0.491 OA
ATOM     19  C   UNL     1       5.319  -3.478   0.174  0.00  0.00    +0.277 C 
ENDBRANCH  13  18
ENDBRANCH   9  10
BRANCH   7  20
ATOM     20  N   UNL     1      -2.522  -5.918   0.577  0.00  0.00    -0.328 N 
ATOM     21  H   UNL     1      -2.949  -6.157   1.415  0.00  0.00    +0.145 HD
ATOM     22  H   UNL     1      -2.419  -6.584  -0.121  0.00  0.00    +0.145 HD
ENDBRANCH   7  20
BRANCH   1  24
ATOM     23  C   UNL     1      -0.019   1.526   0.010  0.00  0.00    +0.006 C 
ATOM     24  C   UNL     1       0.002  -0.004   0.002  0.00  0.00    +0.030 C 
ENDBRANCH   1  24
BRANCH   8  25
ATOM     25  C   UNL     1      -1.358  -5.380  -1.793  0.00  0.00    +0.101 C 
ATOM     26  N   UNL     1      -1.263  -6.197  -2.577  0.00  0.00    -0.191 NA
ENDBRANCH   8  25
TORSDOF 6
