REMARK  Name = ZINC15802486
REMARK  10 active torsions:
REMARK  status: ('A' for Active; 'I' for Inactive)
REMARK    1  A    between atoms: C_1  and  C_2
REMARK    2  A    between atoms: C_5  and  C_17
REMARK    3  A    between atoms: C_7  and  S_8
REMARK    4  A    between atoms: S_8  and  N_11
REMARK    5  A    between atoms: C_17  and  O_19
REMARK    6  A    between atoms: O_19  and  C_20
REMARK    7  A    between atoms: C_20  and  C_22
REMARK    8  A    between atoms: C_20  and  C_23
REMARK    9  A    between atoms: N_28  and  C_29
REMARK   10  A    between atoms: C_29  and  C_30
REMARK                            x       y       z     vdW  Elec       q    Type
REMARK                         _______ _______ _______ _____ _____    ______ ____
ROOT
ATOM      1  C   UNL     1      -0.937  -6.099   5.369  0.00  0.00    +0.340 C 
ATOM      2  O   UNL     1      -1.401  -5.427   6.268  0.00  0.00    -0.245 OA
ENDROOT
BRANCH   1   7
ATOM      3  C   UNL     1      -1.045 -11.841   5.723  0.00  0.00    +0.046 C 
ATOM      4  C   UNL     1      -1.017 -10.337   5.630  0.00  0.00    -0.024 A 
ATOM      5  C   UNL     1      -0.462  -9.726   4.520  0.00  0.00    +0.006 A 
ATOM      6  C   UNL     1      -0.438  -8.350   4.426  0.00  0.00    +0.015 A 
ATOM      7  C   UNL     1      -0.965  -7.574   5.460  0.00  0.00    +0.061 A 
ATOM      8  C   UNL     1      -1.523  -8.197   6.578  0.00  0.00    +0.043 A 
ATOM      9  C   UNL     1      -1.546  -9.574   6.656  0.00  0.00    +0.109 A 
BRANCH   9  10
ATOM     10  S   UNL     1      -2.250 -10.363   8.066  0.00  0.00    +0.061 S 
ATOM     11  O   UNL     1      -1.344 -11.388   8.452  0.00  0.00    -0.153 OA
ATOM     12  O   UNL     1      -2.651  -9.327   8.952  0.00  0.00    -0.153 OA
BRANCH  10  13
ATOM     13  N   UNL     1      -3.635 -11.119   7.563  0.00  0.00    -0.177 NA
ATOM     14  C   UNL     1      -4.901 -10.379   7.471  0.00  0.00    +0.109 C 
ATOM     15  C   UNL     1      -5.473 -10.564   6.058  0.00  0.00    +0.017 C 
ATOM     16  C   UNL     1      -5.596 -12.059   5.754  0.00  0.00    +0.003 C 
ATOM     17  C   UNL     1      -4.210 -12.706   5.801  0.00  0.00    +0.017 C 
ATOM     18  C   UNL     1      -3.622 -12.544   7.206  0.00  0.00    +0.109 C 
ENDBRANCH  10  13
ENDBRANCH   9  10
ENDBRANCH   1   7
BRANCH   1  19
ATOM     19  O   UNL     1      -0.398  -5.501   4.289  0.00  0.00    -0.449 OA
BRANCH  19  20
ATOM     20  C   UNL     1      -0.405  -4.049   4.268  0.00  0.00    +0.259 C 
ATOM     21  C   UNL     1       0.879  -3.523   4.912  0.00  0.00    +0.062 C 
BRANCH  20  22
ATOM     22  C   UNL     1      -0.485  -3.568   2.842  0.00  0.00    +0.261 C 
ATOM     23  O   UNL     1      -0.440  -4.366   1.930  0.00  0.00    -0.271 OA
ATOM     24  N   UNL     1      -0.607  -2.252   2.580  0.00  0.00    -0.237 N 
ATOM     25  C   UNL     1      -0.679  -1.822   1.305  0.00  0.00    +0.306 C 
ATOM     26  O   UNL     1      -0.634  -2.621   0.391  0.00  0.00    -0.252 OA
ATOM     27  N   UNL     1      -0.800  -0.505   1.044  0.00  0.00    -0.295 N 
ATOM     28  H   UNL     1      -0.643  -1.614   3.310  0.00  0.00    +0.159 HD
ATOM     29  H   UNL     1      -0.836   0.133   1.773  0.00  0.00    +0.151 HD
BRANCH  27  30
ATOM     30  C   UNL     1      -0.878  -0.038  -0.343  0.00  0.00    +0.141 C 
BRANCH  30  31
ATOM     31  C   UNL     1      -1.010   1.463  -0.360  0.00  0.00    -0.030 A 
ATOM     32  C   UNL     1      -2.262   2.048  -0.342  0.00  0.00    +0.005 A 
ATOM     33  C   UNL     1      -2.382   3.425  -0.352  0.00  0.00    +0.000 A 
ATOM     34  C   UNL     1      -1.250   4.217  -0.392  0.00  0.00    +0.000 A 
ATOM     35  C   UNL     1       0.002   3.633  -0.416  0.00  0.00    +0.000 A 
ATOM     36  C   UNL     1       0.122   2.256  -0.400  0.00  0.00    +0.005 A 
ENDBRANCH  30  31
ENDBRANCH  27  30
ENDBRANCH  20  22
ENDBRANCH  19  20
ENDBRANCH   1  19
TORSDOF 8
