REMARK  Name = ZINC36609558
REMARK  13 active torsions:
REMARK  status: ('A' for Active; 'I' for Inactive)
REMARK    1  A    between atoms: C_1  and  C_2
REMARK    2  A    between atoms: C_2  and  C_3
REMARK    3  A    between atoms: C_3  and  C_4
REMARK    4  A    between atoms: C_4  and  N_5
REMARK    5  A    between atoms: C_6  and  C_8
REMARK    6  A    between atoms: C_8  and  C_10
REMARK    7  A    between atoms: C_8  and  N_19
REMARK    8  A    between atoms: C_11  and  O_18
REMARK    9  A    between atoms: C_13  and  O_17
REMARK   10  A    between atoms: C_15  and  O_16
REMARK   11  A    between atoms: N_19  and  C_20
REMARK   12  A    between atoms: C_26  and  C_28
REMARK   13  A    between atoms: C_29  and  C_30
REMARK                            x       y       z     vdW  Elec       q    Type
REMARK                         _______ _______ _______ _____ _____    ______ ____
ROOT
ATOM      1  C   UNL     1      -4.122  -4.072  -0.108  0.00  0.00    +0.205 C 
ENDROOT
BRANCH   1   2
ATOM      2  C   UNL     1      -5.313  -3.697  -0.951  0.00  0.00    +0.065 A 
ATOM      3  C   UNL     1      -5.618  -4.432  -2.087  0.00  0.00    +0.129 A 
ATOM      4  C   UNL     1      -6.714  -4.087  -2.862  0.00  0.00    +0.091 A 
ATOM      5  C   UNL     1      -7.505  -3.007  -2.503  0.00  0.00    +0.124 A 
ATOM      6  C   UNL     1      -7.201  -2.272  -1.367  0.00  0.00    +0.091 A 
ATOM      7  C   UNL     1      -6.107  -2.619  -0.589  0.00  0.00    +0.129 A 
BRANCH   7   8
ATOM      8  O   UNL     1      -5.811  -1.902   0.527  0.00  0.00    -0.506 OA
ATOM      9  H   UNL     1      -5.216  -1.157   0.369  0.00  0.00    +0.292 HD
ENDBRANCH   7   8
BRANCH   5  10
ATOM     10  O   UNL     1      -8.579  -2.668  -3.264  0.00  0.00    -0.507 OA
ATOM     11  H   UNL     1      -9.401  -3.105  -3.001  0.00  0.00    +0.292 HD
ENDBRANCH   5  10
BRANCH   3  12
ATOM     12  O   UNL     1      -4.842  -5.491  -2.439  0.00  0.00    -0.506 OA
ATOM     13  H   UNL     1      -5.172  -6.343  -2.121  0.00  0.00    +0.292 HD
ENDBRANCH   3  12
ENDBRANCH   1   2
BRANCH   1  15
ATOM     14  N   UNL     1      -2.202  -2.568  -0.523  0.00  0.00    -0.313 N 
ATOM     15  C   UNL     1      -2.854  -3.705  -0.837  0.00  0.00    +0.239 C 
ATOM     16  O   UNL     1      -2.422  -4.432  -1.705  0.00  0.00    -0.273 OA
ATOM     17  H   UNL     1      -2.548  -1.986   0.172  0.00  0.00    +0.149 HD
BRANCH  14  18
ATOM     18  C   UNL     1      -0.970  -2.211  -1.232  0.00  0.00    +0.104 C 
BRANCH  18  19
ATOM     19  C   UNL     1      -0.435  -0.885  -0.688  0.00  0.00    +0.018 C 
BRANCH  19  21
ATOM     20  C   UNL     1       1.386   0.814  -0.884  0.00  0.00    +0.004 C 
ATOM     21  C   UNL     1       0.851  -0.512  -1.428  0.00  0.00    -0.002 C 
ENDBRANCH  19  21
ENDBRANCH  18  19
ENDBRANCH  14  18
ENDBRANCH   1  15
BRANCH   1  22
ATOM     22  N   UNL     1      -4.138  -5.515   0.146  0.00  0.00    -0.244 N 
ATOM     23  C   UNL     1      -5.277  -6.115   0.545  0.00  0.00    +0.297 C 
ATOM     24  O   UNL     1      -6.318  -5.487   0.576  0.00  0.00    -0.260 OA
BRANCH  22  25
ATOM     25  C   UNL     1      -2.973  -6.268  -0.025  0.00  0.00    +0.038 A 
ATOM     26  C   UNL     1      -1.911  -6.119   0.859  0.00  0.00    +0.023 A 
ATOM     27  C   UNL     1      -0.762  -6.865   0.687  0.00  0.00    +0.002 A 
ATOM     28  C   UNL     1      -0.667  -7.760  -0.363  0.00  0.00    +0.000 A 
ATOM     29  C   UNL     1      -1.722  -7.910  -1.245  0.00  0.00    +0.002 A 
ATOM     30  C   UNL     1      -2.876  -7.171  -1.075  0.00  0.00    +0.023 A 
ENDBRANCH  22  25
BRANCH  23  31
ATOM     31  C   UNL     1      -5.261  -7.494   0.934  0.00  0.00    -0.002 C 
ATOM     32  C   UNL     1      -5.247  -8.623   1.252  0.00  0.00    -0.057 C 
BRANCH  32  33
ATOM     33  C   UNL     1      -5.231 -10.002   1.641  0.00  0.00    +0.025 A 
ATOM     34  C   UNL     1      -4.035 -10.726   1.613  0.00  0.00    +0.017 A 
ATOM     35  C   UNL     1      -4.028 -12.053   1.990  0.00  0.00    +0.001 A 
ATOM     36  C   UNL     1      -5.200 -12.668   2.393  0.00  0.00    +0.000 A 
ATOM     37  C   UNL     1      -6.388 -11.958   2.423  0.00  0.00    +0.001 A 
ATOM     38  C   UNL     1      -6.411 -10.629   2.056  0.00  0.00    +0.017 A 
ENDBRANCH  32  33
ENDBRANCH  23  31
ENDBRANCH   1  22
TORSDOF 12
