REMARK  Name = ZINC00753144
REMARK  9 active torsions:
REMARK  status: ('A' for Active; 'I' for Inactive)
REMARK    1  A    between atoms: C_1  and  C_2
REMARK    2  A    between atoms: C_2  and  C_3
REMARK    3  A    between atoms: C_4  and  C_23
REMARK    4  A    between atoms: C_8  and  C_16
REMARK    5  A    between atoms: C_17  and  C_21
REMARK    6  A    between atoms: C_18  and  N_20
REMARK    7  A    between atoms: C_23  and  O_25
REMARK    8  A    between atoms: O_25  and  C_26
REMARK    9  A    between atoms: C_26  and  C_27
REMARK                            x       y       z     vdW  Elec       q    Type
REMARK                         _______ _______ _______ _____ _____    ______ ____
ROOT
ATOM      1  C   UNL     1      -0.211   4.773   1.254  0.00  0.00    +0.119 C 
ATOM      2  C   UNL     1       1.049   4.317   1.214  0.00  0.00    +0.099 C 
ATOM      3  C   UNL     1       1.684   3.927  -0.090  0.00  0.00    +0.148 C 
ATOM      4  C   UNL     1       1.790   2.426  -0.197  0.00  0.00    -0.001 A 
ATOM      5  C   UNL     1       0.855   1.416  -0.209  0.00  0.00    +0.011 A 
ATOM      6  C   UNL     1       1.262   0.098  -0.321  0.00  0.00    -0.036 A 
ATOM      7  C   UNL     1       2.610  -0.199  -0.420  0.00  0.00    +0.023 A 
ATOM      8  C   UNL     1       3.550   0.812  -0.409  0.00  0.00    +0.039 A 
ATOM      9  C   UNL     1       3.147   2.141  -0.297  0.00  0.00    +0.039 A 
ATOM     10  N   UNL     1       3.892   3.320  -0.265  0.00  0.00    -0.284 N 
ATOM     11  C   UNL     1       3.113   4.410  -0.145  0.00  0.00    +0.238 C 
ATOM     12  O   UNL     1       3.488   5.563  -0.092  0.00  0.00    -0.274 OA
ATOM     13 BR   UNL     1       3.167  -2.000  -0.572  0.00  0.00    -0.050 Br
ATOM     14  C   UNL     1       0.241  -1.010  -0.334  0.00  0.00    +0.045 C 
ATOM     15  C   UNL     1       0.898   4.481  -1.243  0.00  0.00    +0.110 C 
ATOM     16  C   UNL     1      -0.367   4.934  -1.058  0.00  0.00    +0.199 C 
ATOM     17  O   UNL     1      -0.960   4.901   0.148  0.00  0.00    -0.445 OA
ATOM     18  H   UNL     1       4.860   3.351  -0.322  0.00  0.00    +0.155 HD
ENDROOT
BRANCH  16  19
ATOM     19  N   UNL     1      -1.060   5.439  -2.129  0.00  0.00    -0.328 N 
ATOM     20  H   UNL     1      -0.644   5.470  -3.005  0.00  0.00    +0.145 HD
ATOM     21  H   UNL     1      -1.966   5.766  -2.011  0.00  0.00    +0.145 HD
ENDBRANCH  16  19
BRANCH   1  23
ATOM     22  C   UNL     1      -0.372   6.577   2.947  0.00  0.00    +0.012 C 
ATOM     23  C   UNL     1      -0.806   5.156   2.584  0.00  0.00    +0.071 C 
ENDBRANCH   1  23
BRANCH  15  24
ATOM     24  C   UNL     1       1.488   4.533  -2.547  0.00  0.00    +0.102 C 
ATOM     25  N   UNL     1       1.957   4.573  -3.581  0.00  0.00    -0.191 NA
ENDBRANCH  15  24
BRANCH   2  26
ATOM     26  C   UNL     1       1.790   4.201   2.416  0.00  0.00    +0.340 C 
ATOM     27  O   UNL     1       1.334   4.638   3.455  0.00  0.00    -0.245 OA
BRANCH  26  28
ATOM     28  O   UNL     1       3.001   3.607   2.407  0.00  0.00    -0.462 OA
BRANCH  28  29
ATOM     29  C   UNL     1       3.692   3.525   3.655  0.00  0.00    +0.229 C 
ATOM     30  C   UNL     1       5.036   2.824   3.448  0.00  0.00    +0.048 C 
ENDBRANCH  28  29
ENDBRANCH  26  28
ENDBRANCH   2  26
TORSDOF 6
