REMARK  Name = ZINC65434872
REMARK  7 active torsions:
REMARK  status: ('A' for Active; 'I' for Inactive)
REMARK    1  A    between atoms: C_1  and  C_2
REMARK    2  A    between atoms: C_2  and  C_3
REMARK    3  A    between atoms: C_5  and  C_8
REMARK    4  A    between atoms: C_8  and  C_9
REMARK    5  A    between atoms: C_9  and  N_10
REMARK    6  A    between atoms: C_13  and  C_21
REMARK    7  A    between atoms: C_14  and  C_20
REMARK                            x       y       z     vdW  Elec       q    Type
REMARK                         _______ _______ _______ _____ _____    ______ ____
ROOT
ATOM      1  N   UNL     1      -0.289  -3.357   6.175  0.00  0.00    -0.328 N 
ATOM      2  C   UNL     1      -0.526  -4.687   6.474  0.00  0.00    +0.130 A 
ATOM      3  C   UNL     1      -0.352  -5.169   7.800  0.00  0.00    +0.051 A 
ATOM      4  C   UNL     1       0.063  -4.462   8.999  0.00  0.00    -0.028 A 
ATOM      5  C   UNL     1       0.158  -5.133  10.156  0.00  0.00    -0.008 A 
ATOM      6  S   UNL     1      -0.313  -6.795   9.713  0.00  0.00    -0.074 S 
ATOM      7  C   UNL     1      -0.624  -6.542   7.985  0.00  0.00    +0.114 A 
ATOM      8  N   UNL     1      -1.011  -7.308   6.984  0.00  0.00    -0.228 NA
ATOM      9  C   UNL     1      -1.155  -6.802   5.774  0.00  0.00    +0.224 A 
ATOM     10  N   UNL     1      -0.923  -5.524   5.529  0.00  0.00    -0.220 NA
ATOM     11  C   UNL     1       0.565  -4.609  11.509  0.00  0.00    +0.052 C 
ATOM     12  C   UNL     1       0.385  -2.991   8.943  0.00  0.00    +0.045 C 
ATOM     13  H   UNL     1      -0.085  -2.729   6.886  0.00  0.00    +0.147 HD
ENDROOT
BRANCH   1  14
ATOM     14  C   UNL     1      -0.346  -2.897   4.786  0.00  0.00    +0.111 C 
BRANCH  14  15
ATOM     15  C   UNL     1      -0.048  -1.397   4.733  0.00  0.00    +0.098 C 
BRANCH  15  18
ATOM     16  C   UNL     1      -0.907  -0.137   1.451  0.00  0.00    +0.227 A 
ATOM     17  N   UNL     1      -1.197  -0.464   2.680  0.00  0.00    -0.196 NA
ATOM     18  C   UNL     1      -0.106  -0.923   3.303  0.00  0.00    +0.173 A 
ATOM     19  N   UNL     1       0.897  -0.894   2.474  0.00  0.00    -0.061 NA
ATOM     20  O   UNL     1       0.393  -0.386   1.247  0.00  0.00    -0.338 OA
BRANCH  16  22
ATOM     21  C   UNL     1      -1.873   1.946   0.516  0.00  0.00    +0.014 C 
ATOM     22  C   UNL     1      -1.870   0.419   0.434  0.00  0.00    +0.095 C 
ENDBRANCH  16  22
ENDBRANCH  15  18
ENDBRANCH  14  15
ENDBRANCH   1  14
TORSDOF 4
