REMARK  Name = ZINC51393726
REMARK  5 active torsions:
REMARK  status: ('A' for Active; 'I' for Inactive)
REMARK    1  A    between atoms: C_1  and  C_2
REMARK    2  A    between atoms: C_7  and  O_8
REMARK    3  A    between atoms: O_8  and  C_9
REMARK    4  A    between atoms: C_9  and  C_10
REMARK    5  A    between atoms: C_14  and  C_17
REMARK                            x       y       z     vdW  Elec       q    Type
REMARK                         _______ _______ _______ _____ _____    ______ ____
ROOT
ATOM      1  O   UNL     1       0.025  -0.032   2.381  0.00  0.00    -0.488 OA
ENDROOT
BRANCH   1   8
ATOM      2  C   UNL     1      -0.018   1.503   0.010  0.00  0.00    +0.047 C 
ATOM      3  C   UNL     1       0.002  -0.004   0.002  0.00  0.00    -0.006 A 
ATOM      4  C   UNL     1       0.006  -0.689  -1.198  0.00  0.00    +0.022 A 
ATOM      5  C   UNL     1       0.025  -2.072  -1.207  0.00  0.00    +0.020 A 
ATOM      6  C   UNL     1       0.040  -2.773  -0.015  0.00  0.00    +0.039 A 
ATOM      7  C   UNL     1       0.036  -2.092   1.188  0.00  0.00    +0.084 A 
ATOM      8  C   UNL     1       0.023  -0.704   1.199  0.00  0.00    +0.142 A 
ATOM      9 CL   UNL     1       0.055  -2.973   2.685  0.00  0.00    -0.080 Cl
ATOM     10 BR   UNL     1       0.030  -3.005  -2.852  0.00  0.00    -0.050 Br
ENDBRANCH   1   8
BRANCH   1  11
ATOM     11  C   UNL     1      -1.247   0.271   2.957  0.00  0.00    +0.260 C 
BRANCH  11  12
ATOM     12  C   UNL     1      -1.044   1.024   4.273  0.00  0.00    +0.157 C 
ATOM     13  C   UNL     1      -2.407   1.438   4.871  0.00  0.00    +0.038 C 
ATOM     14  C   UNL     1      -2.218   1.263   6.394  0.00  0.00    +0.046 C 
ATOM     15  C   UNL     1      -0.763   0.764   6.537  0.00  0.00    +0.231 C 
ATOM     16  O   UNL     1      -0.453   0.154   5.263  0.00  0.00    -0.359 OA
BRANCH  15  17
ATOM     17  C   UNL     1      -0.663  -0.252   7.646  0.00  0.00    +0.384 C 
ATOM     18  O   UNL     1      -0.364  -1.406   7.390  0.00  0.00    -0.243 OA
ATOM     19  O   UNL     1      -0.880   0.081   8.798  0.00  0.00    -0.243 OA
ENDBRANCH  15  17
ENDBRANCH  11  12
ENDBRANCH   1  11
TORSDOF 4
