REMARK  Name = ZINC64011721
REMARK  6 active torsions:
REMARK  status: ('A' for Active; 'I' for Inactive)
REMARK    1  A    between atoms: C_4  and  C_7
REMARK    2  A    between atoms: C_9  and  C_17
REMARK    3  A    between atoms: C_17  and  C_19
REMARK    4  A    between atoms: C_19  and  N_20
REMARK    5  A    between atoms: C_21  and  C_30
REMARK    6  A    between atoms: C_24  and  C_27
REMARK                            x       y       z     vdW  Elec       q    Type
REMARK                         _______ _______ _______ _____ _____    ______ ____
ROOT
ATOM      1  C   UNL     1       4.194  -0.399  -2.594  0.00  0.00    +0.180 C 
ATOM      2  O   UNL     1       4.099   0.809  -2.523  0.00  0.00    -0.291 OA
ENDROOT
BRANCH   1   4
ATOM      3  C   UNL     1       3.711  -0.707  -0.038  0.00  0.00    +0.144 C 
ATOM      4  C   UNL     1       4.019  -1.190  -1.438  0.00  0.00    +0.032 C 
ATOM      5  C   UNL     1       4.095  -2.568  -1.348  0.00  0.00    +0.007 A 
ATOM      6  C   UNL     1       4.350  -3.582  -2.301  0.00  0.00    +0.010 A 
ATOM      7  C   UNL     1       4.362  -4.881  -1.927  0.00  0.00    +0.001 A 
ATOM      8  C   UNL     1       4.128  -5.286  -0.603  0.00  0.00    +0.002 A 
ATOM      9  C   UNL     1       3.876  -4.398   0.383  0.00  0.00    +0.026 A 
ATOM     10  C   UNL     1       3.844  -2.962   0.060  0.00  0.00    +0.044 A 
ATOM     11  N   UNL     1       3.628  -1.909   0.798  0.00  0.00    -0.373 N 
ATOM     12  H   UNL     1       3.442  -1.918   1.750  0.00  0.00    +0.161 HD
BRANCH   3  16
ATOM     13  C   UNL     1      -0.017   1.378   0.010  0.00  0.00    +0.000 A 
ATOM     14  C   UNL     1       1.171   2.086   0.002  0.00  0.00    +0.000 A 
ATOM     15  C   UNL     1       2.377   1.411  -0.013  0.00  0.00    +0.006 A 
ATOM     16  C   UNL     1       2.396   0.029  -0.020  0.00  0.00    -0.021 A 
ATOM     17  C   UNL     1       1.208  -0.679  -0.012  0.00  0.00    +0.006 A 
ATOM     18  C   UNL     1       0.002  -0.004   0.002  0.00  0.00    +0.000 A 
ENDBRANCH   3  16
ENDBRANCH   1   4
BRANCH   1  19
ATOM     19  C   UNL     1       4.498  -1.055  -3.916  0.00  0.00    +0.193 C 
BRANCH  19  20
ATOM     20  N   UNL     1       4.634  -0.027  -4.951  0.00  0.00    -0.260 N 
ATOM     21  C   UNL     1       3.514   0.380  -5.666  0.00  0.00    +0.113 C 
ATOM     22  C   UNL     1       3.524   1.481  -6.384  0.00  0.00    +0.002 C 
ATOM     23  C   UNL     1       4.747   2.359  -6.437  0.00  0.00    +0.051 C 
ATOM     24  C   UNL     1       6.005   1.496  -6.332  0.00  0.00    +0.165 C 
ATOM     25  C   UNL     1       5.840   0.517  -5.196  0.00  0.00    +0.232 C 
ATOM     26  O   UNL     1       6.793   0.217  -4.508  0.00  0.00    -0.274 OA
BRANCH  24  27
ATOM     27  C   UNL     1       6.210   0.746  -7.623  0.00  0.00    +0.223 C 
ATOM     28  O   UNL     1       5.427   0.888  -8.538  0.00  0.00    -0.275 OA
ATOM     29  N   UNL     1       7.264  -0.083  -7.761  0.00  0.00    -0.329 N 
ATOM     30  H   UNL     1       7.891  -0.196  -7.029  0.00  0.00    +0.145 HD
ATOM     31  H   UNL     1       7.396  -0.565  -8.592  0.00  0.00    +0.145 HD
ENDBRANCH  24  27
BRANCH  21  32
ATOM     32  C   UNL     1       2.263  -0.458  -5.617  0.00  0.00    +0.430 C 
ATOM     33  F   UNL     1       1.272   0.138  -6.404  0.00  0.00    -0.165 F 
ATOM     34  F   UNL     1       2.540  -1.739  -6.106  0.00  0.00    -0.165 F 
ATOM     35  F   UNL     1       1.815  -0.551  -4.294  0.00  0.00    -0.165 F 
ENDBRANCH  21  32
ENDBRANCH  19  20
ENDBRANCH   1  19
TORSDOF 6
