REMARK  Name = ZINC19758619
REMARK  6 active torsions:
REMARK  status: ('A' for Active; 'I' for Inactive)
REMARK    1  A    between atoms: C_1  and  C_2
REMARK    2  A    between atoms: N_5  and  C_14
REMARK    3  A    between atoms: C_9  and  N_13
REMARK    4  A    between atoms: C_14  and  C_15
REMARK    5  A    between atoms: C_15  and  O_17
REMARK    6  A    between atoms: O_17  and  C_18
REMARK                            x       y       z     vdW  Elec       q    Type
REMARK                         _______ _______ _______ _____ _____    ______ ____
ROOT
ATOM      1  C   UNL     1       5.574   1.611   0.252  0.00  0.00    +0.053 C 
ATOM      2  C   UNL     1       4.209   2.135  -0.199  0.00  0.00    +0.188 C 
ATOM      3  C   UNL     1       3.890   3.447   0.531  0.00  0.00    +0.150 C 
ATOM      4  N   UNL     1       2.611   3.962   0.030  0.00  0.00    -0.313 N 
ATOM      5  C   UNL     1       1.606   2.984   0.048  0.00  0.00    +0.073 A 
ATOM      6  C   UNL     1       0.277   3.396   0.015  0.00  0.00    +0.028 A 
ATOM      7  C   UNL     1      -0.742   2.465   0.022  0.00  0.00    +0.025 A 
ATOM      8  C   UNL     1      -0.444   1.109   0.057  0.00  0.00    +0.028 A 
ATOM      9  C   UNL     1       0.878   0.693   0.097  0.00  0.00    +0.070 A 
ATOM     10  C   UNL     1       1.904   1.628   0.092  0.00  0.00    +0.144 A 
ATOM     11  O   UNL     1       3.191   1.187   0.137  0.00  0.00    -0.486 OA
ENDROOT
BRANCH   8  12
ATOM     12  N   UNL     1      -1.477   0.165   0.056  0.00  0.00    -0.358 N 
ATOM     13  H   UNL     1      -1.240  -0.909   0.083  0.00  0.00    +0.142 HD
ATOM     14  H   UNL     1      -2.526   0.496   0.028  0.00  0.00    +0.142 HD
ENDBRANCH   8  12
BRANCH   4  15
ATOM     15  C   UNL     1       2.196   5.157   0.776  0.00  0.00    +0.225 C 
BRANCH  15  16
ATOM     16  C   UNL     1       1.996   4.800   2.226  0.00  0.00    +0.324 C 
ATOM     17  O   UNL     1       2.068   3.646   2.580  0.00  0.00    -0.249 OA
BRANCH  16  18
ATOM     18  O   UNL     1       1.737   5.762   3.126  0.00  0.00    -0.467 OA
ATOM     19  C   UNL     1       1.556   5.345   4.504  0.00  0.00    +0.280 C 
ENDBRANCH  16  18
ENDBRANCH  15  16
ENDBRANCH   4  15
TORSDOF 4
