REMARK  Name = ZINC39658868
REMARK  6 active torsions:
REMARK  status: ('A' for Active; 'I' for Inactive)
REMARK    1  A    between atoms: C_1  and  C_2
REMARK    2  A    between atoms: C_2  and  C_33
REMARK    3  A    between atoms: C_5  and  C_8
REMARK    4  A    between atoms: C_8  and  N_9
REMARK    5  A    between atoms: C_10  and  C_12
REMARK    6  A    between atoms: C_23  and  C_25
REMARK                            x       y       z     vdW  Elec       q    Type
REMARK                         _______ _______ _______ _____ _____    ______ ____
ROOT
ATOM      1  C   UNL     1       3.638  -2.113   5.174  0.00  0.00    +0.100 C 
ATOM      2  C   UNL     1       2.517  -1.390   5.955  0.00  0.00    +0.121 C 
ATOM      3  N   UNL     1       2.985  -1.385   7.362  0.00  0.00    -0.296 N 
ATOM      4  C   UNL     1       4.441  -1.124   7.265  0.00  0.00    +0.115 C 
ATOM      5  C   UNL     1       4.898  -1.935   6.037  0.00  0.00    -0.004 C 
ATOM      6  C   UNL     1       5.964  -1.165   5.263  0.00  0.00    -0.010 C 
ATOM      7  C   UNL     1       7.228  -1.052   6.119  0.00  0.00    -0.082 C 
ATOM      8  N   UNL     1       7.715  -2.395   6.456  0.00  0.00    +0.379 N 
ATOM      9  C   UNL     1       6.722  -3.096   7.279  0.00  0.00    -0.082 C 
ATOM     10  C   UNL     1       5.436  -3.295   6.472  0.00  0.00    -0.010 C 
ATOM     11  C   UNL     1       2.252  -1.576   8.476  0.00  0.00    +0.248 C 
ATOM     12  O   UNL     1       1.077  -1.878   8.387  0.00  0.00    -0.270 OA
ATOM     13  H   UNL     1       7.874  -2.916   5.606  0.00  0.00    -0.086 HD
ATOM     14  H   UNL     1       8.581  -2.319   6.968  0.00  0.00    -0.086 HD
ENDROOT
BRANCH  11  15
ATOM     15  C   UNL     1       2.874  -1.417   9.806  0.00  0.00    +0.055 A 
ATOM     16  C   UNL     1       3.858  -0.446  10.008  0.00  0.00    +0.016 A 
ATOM     17  C   UNL     1       4.436  -0.303  11.252  0.00  0.00    +0.021 A 
ATOM     18  C   UNL     1       4.044  -1.119  12.300  0.00  0.00    +0.042 A 
ATOM     19  C   UNL     1       3.070  -2.084  12.107  0.00  0.00    +0.040 A 
ATOM     20  C   UNL     1       2.478  -2.234  10.868  0.00  0.00    +0.054 A 
ATOM     21 CL   UNL     1       1.252  -3.438  10.630  0.00  0.00    -0.083 Cl
ATOM     22 CL   UNL     1       4.777  -0.932  13.862  0.00  0.00    -0.083 Cl
ENDBRANCH  11  15
BRANCH   1  24
ATOM     23  N   UNL     1       4.433  -2.161   2.832  0.00  0.00    -0.312 N 
ATOM     24  C   UNL     1       3.832  -1.473   3.823  0.00  0.00    +0.218 C 
ATOM     25  O   UNL     1       3.447  -0.340   3.628  0.00  0.00    -0.275 OA
ATOM     26  H   UNL     1       4.741  -3.068   2.989  0.00  0.00    +0.149 HD
BRANCH  23  27
ATOM     27  C   UNL     1       4.622  -1.540   1.519  0.00  0.00    +0.138 C 
BRANCH  27  32
ATOM     28  C   UNL     1       3.368  -3.645  -1.962  0.00  0.00    +0.074 C 
ATOM     29  C   UNL     1       4.660  -3.878  -1.176  0.00  0.00    +0.165 C 
ATOM     30  O   UNL     1       5.687  -2.998  -1.664  0.00  0.00    -0.347 OA
ATOM     31  C   UNL     1       5.650  -1.857  -0.774  0.00  0.00    +0.196 C 
ATOM     32  C   UNL     1       5.323  -2.527   0.584  0.00  0.00    +0.164 C 
ATOM     33  O   UNL     1       4.436  -3.601   0.213  0.00  0.00    -0.342 OA
ATOM     34  C   UNL     1       5.109  -5.331  -1.344  0.00  0.00    +0.074 C 
ENDBRANCH  27  32
ENDBRANCH  23  27
ENDBRANCH   1  24
TORSDOF 4
