REMARK  Name = ZINC25857906
REMARK  10 active torsions:
REMARK  status: ('A' for Active; 'I' for Inactive)
REMARK    1  A    between atoms: C_1  and  O_2
REMARK    2  A    between atoms: O_2  and  C_3
REMARK    3  A    between atoms: C_5  and  C_14
REMARK    4  A    between atoms: C_8  and  O_9
REMARK    5  A    between atoms: O_9  and  C_10
REMARK    6  A    between atoms: C_10  and  C_11
REMARK    7  A    between atoms: C_15  and  C_16
REMARK    8  A    between atoms: C_16  and  O_18
REMARK    9  A    between atoms: O_18  and  C_19
REMARK   10  A    between atoms: C_19  and  C_20
REMARK                            x       y       z     vdW  Elec       q    Type
REMARK                         _______ _______ _______ _____ _____    ______ ____
ROOT
ATOM      1  C   UNL     1      -2.975  -1.809  -0.901  0.00  0.00    +0.332 C 
ATOM      2  O   UNL     1      -3.530  -2.065   0.151  0.00  0.00    -0.246 OA
ENDROOT
BRANCH   1   4
ATOM      3  C   UNL     1      -4.721  -2.909  -2.125  0.00  0.00    +0.015 C 
ATOM      4  C   UNL     1      -3.554  -2.227  -2.126  0.00  0.00    +0.092 C 
BRANCH   3   7
ATOM      5  C   UNL     1      -7.087  -4.453  -4.592  0.00  0.00    +0.162 A 
ATOM      6  C   UNL     1      -6.526  -4.053  -3.395  0.00  0.00    +0.057 A 
ATOM      7  C   UNL     1      -5.320  -3.341  -3.395  0.00  0.00    -0.021 A 
ATOM      8  C   UNL     1      -4.684  -3.049  -4.607  0.00  0.00    +0.012 A 
ATOM      9  C   UNL     1      -5.248  -3.456  -5.796  0.00  0.00    +0.050 A 
ATOM     10  C   UNL     1      -6.447  -4.157  -5.796  0.00  0.00    +0.163 A 
BRANCH   5  12
ATOM     11  C   UNL     1      -8.860  -5.408  -3.328  0.00  0.00    +0.277 C 
ATOM     12  O   UNL     1      -8.260  -5.139  -4.597  0.00  0.00    -0.491 OA
ENDBRANCH   5  12
BRANCH  10  13
ATOM     13  O   UNL     1      -6.998  -4.556  -6.971  0.00  0.00    -0.479 OA
BRANCH  13  14
ATOM     14  C   UNL     1      -6.291  -4.221  -8.166  0.00  0.00    +0.324 C 
BRANCH  14  15
ATOM     15  C   UNL     1      -7.047  -4.742  -9.361  0.00  0.00    +0.248 C 
ATOM     16  O   UNL     1      -8.090  -5.341  -9.204  0.00  0.00    -0.272 OA
ATOM     17  N   UNL     1      -6.565  -4.541 -10.604  0.00  0.00    -0.327 N 
ATOM     18  H   UNL     1      -7.118  -4.921 -11.476  0.00  0.00    +0.145 HD
ATOM     19  H   UNL     1      -5.620  -3.998 -10.746  0.00  0.00    +0.145 HD
ENDBRANCH  14  15
ENDBRANCH  13  14
ENDBRANCH  10  13
ENDBRANCH   3   7
ENDBRANCH   1   4
BRANCH   1  20
ATOM     20  O   UNL     1      -1.811  -1.129  -0.902  0.00  0.00    -0.454 OA
BRANCH  20  21
ATOM     21  C   UNL     1      -1.285  -0.739   0.368  0.00  0.00    +0.308 C 
BRANCH  21  22
ATOM     22  C   UNL     1       0.010   0.005   0.169  0.00  0.00    +0.170 A 
ATOM     23  N   UNL     1       1.146  -0.670   0.149  0.00  0.00    -0.214 NA
ATOM     24  C   UNL     1       2.316  -0.075  -0.021  0.00  0.00    +0.128 A 
ATOM     25  C   UNL     1       2.356   1.337  -0.188  0.00  0.00    +0.051 A 
ATOM     26  C   UNL     1       3.525   2.200  -0.391  0.00  0.00    -0.025 A 
ATOM     27  C   UNL     1       3.287   3.521  -0.516  0.00  0.00    -0.004 A 
ATOM     28  S   UNL     1       1.526   3.693  -0.389  0.00  0.00    -0.073 S 
ATOM     29  C   UNL     1       1.107   1.986  -0.154  0.00  0.00    +0.114 A 
ATOM     30  N   UNL     1      -0.015   1.315   0.020  0.00  0.00    -0.221 NA
ATOM     31  C   UNL     1       4.287   4.619  -0.714  0.00  0.00    +0.043 C 
ATOM     32  C   UNL     1       5.243   4.235  -1.851  0.00  0.00    +0.005 C 
ATOM     33  C   UNL     1       6.421   3.474  -1.252  0.00  0.00    +0.001 C 
ATOM     34  C   UNL     1       5.957   2.659  -0.045  0.00  0.00    +0.005 C 
ATOM     35  C   UNL     1       4.932   1.615  -0.469  0.00  0.00    +0.037 C 
ATOM     36  N   UNL     1       3.483  -0.816  -0.037  0.00  0.00    -0.343 N 
ATOM     37  H   UNL     1       4.452  -0.314  -0.179  0.00  0.00    +0.144 HD
ATOM     38  H   UNL     1       3.444  -1.908   0.092  0.00  0.00    +0.144 HD
ENDBRANCH  21  22
ENDBRANCH  20  21
ENDBRANCH   1  20
TORSDOF 9
