REMARK  Name = ZINC67481857
REMARK  7 active torsions:
REMARK  status: ('A' for Active; 'I' for Inactive)
REMARK    1  A    between atoms: C_1  and  C_2
REMARK    2  A    between atoms: C_2  and  C_4
REMARK    3  A    between atoms: C_2  and  O_17
REMARK    4  A    between atoms: N_6  and  C_7
REMARK    5  A    between atoms: C_7  and  C_8
REMARK    6  A    between atoms: O_17  and  C_18
REMARK    7  A    between atoms: C_22  and  C_24
REMARK                            x       y       z     vdW  Elec       q    Type
REMARK                         _______ _______ _______ _____ _____    ______ ____
ROOT
ATOM      1  C   UNL     1       0.769  -0.712  -1.225  0.00  0.00    +0.254 C 
ATOM      2  O   UNL     1       1.893  -1.135  -1.061  0.00  0.00    -0.272 OA
ATOM      3  N   UNL     1       0.237  -0.673  -2.463  0.00  0.00    -0.305 N 
ATOM      4  H   UNL     1      -0.662  -0.334  -2.594  0.00  0.00    +0.149 HD
ENDROOT
BRANCH   1   6
ATOM      5  C   UNL     1      -0.292   1.273  -0.184  0.00  0.00    +0.062 C 
ATOM      6  C   UNL     1      -0.034  -0.229  -0.045  0.00  0.00    +0.255 C 
BRANCH   6   7
ATOM      7  O   UNL     1       0.693  -0.477   1.160  0.00  0.00    -0.480 OA
BRANCH   7   8
ATOM      8  C   UNL     1      -0.031  -0.600   2.304  0.00  0.00    +0.123 A 
ATOM      9  C   UNL     1      -1.401  -0.376   2.285  0.00  0.00    +0.046 A 
ATOM     10  C   UNL     1      -2.143  -0.499   3.445  0.00  0.00    +0.005 A 
ATOM     11  C   UNL     1      -1.526  -0.845   4.630  0.00  0.00    +0.019 A 
ATOM     12  C   UNL     1      -0.149  -1.072   4.659  0.00  0.00    +0.055 A 
ATOM     13  C   UNL     1       0.598  -0.953   3.485  0.00  0.00    +0.064 A 
BRANCH  12  14
ATOM     14  C   UNL     1       0.495  -1.432   5.886  0.00  0.00    +0.099 C 
ATOM     15  N   UNL     1       1.005  -1.717   6.861  0.00  0.00    -0.191 NA
ENDBRANCH  12  14
ENDBRANCH   7   8
ENDBRANCH   6   7
ENDBRANCH   1   6
BRANCH   3  16
ATOM     16  C   UNL     1       1.018  -1.142  -3.611  0.00  0.00    +0.178 C 
BRANCH  16  17
ATOM     17  C   UNL     1       0.201  -0.993  -4.868  0.00  0.00    +0.123 A 
ATOM     18  C   UNL     1       0.192   0.093  -5.652  0.00  0.00    +0.055 A 
ATOM     19  C   UNL     1      -0.735  -0.203  -6.751  0.00  0.00    +0.020 A 
ATOM     20  C   UNL     1      -1.176   0.501  -7.871  0.00  0.00    +0.011 A 
ATOM     21  C   UNL     1      -2.073  -0.079  -8.726  0.00  0.00    +0.001 A 
ATOM     22  C   UNL     1      -2.546  -1.360  -8.484  0.00  0.00    +0.004 A 
ATOM     23  C   UNL     1      -2.122  -2.071  -7.382  0.00  0.00    +0.047 A 
ATOM     24  C   UNL     1      -1.211  -1.501  -6.501  0.00  0.00    +0.135 A 
ATOM     25  O   UNL     1      -0.619  -1.933  -5.370  0.00  0.00    -0.458 OA
ENDBRANCH  16  17
ENDBRANCH   3  16
TORSDOF 6
