REMARK  Name = ZINC00625568
REMARK  6 active torsions:
REMARK  status: ('A' for Active; 'I' for Inactive)
REMARK    1  A    between atoms: C_1  and  C_2
REMARK    2  A    between atoms: C_2  and  C_31
REMARK    3  A    between atoms: C_6  and  C_14
REMARK    4  A    between atoms: C_8  and  C_12
REMARK    5  A    between atoms: C_9  and  N_11
REMARK    6  A    between atoms: C_17  and  C_19
REMARK                            x       y       z     vdW  Elec       q    Type
REMARK                         _______ _______ _______ _____ _____    ______ ____
ROOT
ATOM      1  C   UNL     1      -0.075   3.750   2.192  0.00  0.00    +0.012 C 
ATOM      2  C   UNL     1      -0.124   4.222   0.738  0.00  0.00    -0.021 C 
ATOM      3  C   UNL     1       1.112   3.716  -0.009  0.00  0.00    +0.081 C 
ATOM      4  C   UNL     1       1.131   2.206   0.003  0.00  0.00    +0.115 C 
ATOM      5  C   UNL     1      -0.018   1.505   0.010  0.00  0.00    +0.049 C 
ATOM      6  C   UNL     1       0.002  -0.004   0.002  0.00  0.00    +0.137 C 
ATOM      7  C   UNL     1       1.346  -0.500  -0.454  0.00  0.00    +0.101 C 
ATOM      8  C   UNL     1       2.424   0.322  -0.430  0.00  0.00    +0.198 C 
ATOM      9  O   UNL     1       2.327   1.589   0.001  0.00  0.00    -0.445 OA
ATOM     10  C   UNL     1      -1.270   2.151   0.032  0.00  0.00    +0.164 C 
ATOM     11  O   UNL     1      -2.285   1.485   0.028  0.00  0.00    -0.292 OA
ATOM     12  C   UNL     1      -1.372   3.652   0.054  0.00  0.00    +0.086 C 
ATOM     13  C   UNL     1      -0.162   5.751   0.694  0.00  0.00    +0.012 C 
ENDROOT
BRANCH   6  14
ATOM     14  C   UNL     1      -1.063  -0.513  -0.935  0.00  0.00    +0.118 A 
ATOM     15  C   UNL     1      -2.094  -1.310  -0.593  0.00  0.00    +0.046 A 
ATOM     16  C   UNL     1      -2.844  -1.540  -1.764  0.00  0.00    +0.050 A 
ATOM     17  C   UNL     1      -2.217  -0.871  -2.768  0.00  0.00    +0.138 A 
ATOM     18  O   UNL     1      -1.139  -0.252  -2.250  0.00  0.00    -0.459 OA
BRANCH  17  19
ATOM     19  C   UNL     1      -2.646  -0.829  -4.182  0.00  0.00    +0.054 A 
ATOM     20  C   UNL     1      -2.632  -1.993  -4.953  0.00  0.00    +0.054 A 
ATOM     21  C   UNL     1      -3.039  -1.949  -6.272  0.00  0.00    +0.040 A 
ATOM     22  C   UNL     1      -3.449  -0.751  -6.833  0.00  0.00    +0.044 A 
ATOM     23  C   UNL     1      -3.459   0.408  -6.075  0.00  0.00    +0.040 A 
ATOM     24  C   UNL     1      -3.060   0.376  -4.754  0.00  0.00    +0.054 A 
ATOM     25 CL   UNL     1      -3.073   1.830  -3.806  0.00  0.00    -0.083 Cl
ATOM     26 CL   UNL     1      -3.951  -0.702  -8.494  0.00  0.00    -0.083 Cl
ATOM     27 CL   UNL     1      -2.112  -3.494  -4.254  0.00  0.00    -0.083 Cl
ENDBRANCH  17  19
ENDBRANCH   6  14
BRANCH   8  28
ATOM     28  N   UNL     1       3.639  -0.153  -0.856  0.00  0.00    -0.328 N 
ATOM     29  H   UNL     1       3.721  -1.067  -1.170  0.00  0.00    +0.145 HD
ATOM     30  H   UNL     1       4.418   0.427  -0.843  0.00  0.00    +0.145 HD
ENDBRANCH   8  28
BRANCH   7  31
ATOM     31  C   UNL     1       1.488  -1.847  -0.918  0.00  0.00    +0.101 C 
ATOM     32  N   UNL     1       1.600  -2.916  -1.285  0.00  0.00    -0.191 NA
ENDBRANCH   7  31
TORSDOF 4
