REMARK  Name = ZINC43221909
REMARK  8 active torsions:
REMARK  status: ('A' for Active; 'I' for Inactive)
REMARK    1  A    between atoms: C_1  and  C_2
REMARK    2  A    between atoms: C_7  and  N_8
REMARK    3  A    between atoms: C_13  and  C_31
REMARK    4  A    between atoms: C_16  and  C_21
REMARK    5  A    between atoms: C_16  and  C_28
REMARK    6  A    between atoms: C_21  and  C_22
REMARK    7  A    between atoms: C_22  and  C_23
REMARK    8  A    between atoms: C_23  and  N_24
REMARK                            x       y       z     vdW  Elec       q    Type
REMARK                         _______ _______ _______ _____ _____    ______ ____
ROOT
ATOM      1  N   UNL     1       0.064   0.016   2.514  0.00  0.00    -0.210 N 
ATOM      2  C   UNL     1      -1.101   0.369   3.150  0.00  0.00    +0.229 C 
ATOM      3  O   UNL     1      -2.220  -0.039   2.927  0.00  0.00    -0.275 OA
ATOM      4  C   UNL     1      -0.695   1.335   4.145  0.00  0.00    +0.077 C 
ATOM      5  C   UNL     1      -1.186   1.950   5.385  0.00  0.00    -0.026 C 
ATOM      6  N   UNL     1       0.046   2.510   6.034  0.00  0.00    +0.395 N 
ATOM      7  C   UNL     1       1.222   2.090   5.206  0.00  0.00    +0.048 C 
ATOM      8  C   UNL     1       0.719   0.774   4.575  0.00  0.00    +0.086 C 
ATOM      9  C   UNL     1       1.179   0.430   3.185  0.00  0.00    +0.229 C 
ATOM     10  O   UNL     1       2.308   0.506   2.750  0.00  0.00    -0.275 OA
ATOM     11  H   UNL     1      -0.010   3.517   6.063  0.00  0.00    -0.083 HD
ATOM     12  H   UNL     1       0.137   2.143   6.970  0.00  0.00    -0.083 HD
ENDROOT
BRANCH   5  13
ATOM     13  C   UNL     1      -1.826   0.913   6.271  0.00  0.00    -0.053 A 
ATOM     14  C   UNL     1      -1.085   0.264   7.211  0.00  0.00    +0.002 A 
ATOM     15  C   UNL     1      -1.659  -0.699   8.039  0.00  0.00    +0.001 A 
ATOM     16  C   UNL     1      -2.978  -1.018   7.932  0.00  0.00    +0.008 A 
ATOM     17  C   UNL     1      -3.775  -0.370   6.973  0.00  0.00    -0.018 A 
ATOM     18  C   UNL     1      -3.192   0.614   6.136  0.00  0.00    -0.016 A 
ATOM     19  C   UNL     1      -3.991   1.267   5.181  0.00  0.00    +0.009 A 
ATOM     20  C   UNL     1      -5.311   0.951   5.078  0.00  0.00    +0.001 A 
ATOM     21  C   UNL     1      -5.885  -0.011   5.907  0.00  0.00    +0.001 A 
ATOM     22  C   UNL     1      -5.140  -0.673   6.833  0.00  0.00    +0.008 A 
ENDBRANCH   5  13
BRANCH   1  29
ATOM     23  C   UNL     1       0.071   1.489   0.079  0.00  0.00    +0.045 C 
ATOM     24  C   UNL     1       0.108  -0.018   0.098  0.00  0.00    -0.029 A 
ATOM     25  C   UNL     1       0.154  -0.723  -1.089  0.00  0.00    +0.005 A 
ATOM     26  C   UNL     1       0.189  -2.105  -1.072  0.00  0.00    +0.000 A 
ATOM     27  C   UNL     1       0.179  -2.785   0.132  0.00  0.00    +0.002 A 
ATOM     28  C   UNL     1       0.134  -2.085   1.321  0.00  0.00    +0.024 A 
ATOM     29  C   UNL     1       0.104  -0.697   1.308  0.00  0.00    +0.047 A 
ENDBRANCH   1  29
BRANCH   7  30
ATOM     30  C   UNL     1       2.424   1.830   6.078  0.00  0.00    +0.346 C 
ATOM     31  O   UNL     1       2.350   1.998   7.283  0.00  0.00    -0.248 OA
ATOM     32  O   UNL     1       3.469   1.451   5.578  0.00  0.00    -0.248 OA
ENDBRANCH   7  30
BRANCH   7  33
ATOM     33  C   UNL     1       1.541   3.143   4.142  0.00  0.00    +0.001 C 
BRANCH  33  34
ATOM     34  C   UNL     1       1.956   4.448   4.824  0.00  0.00    +0.018 C 
BRANCH  34  35
ATOM     35  C   UNL     1       2.274   5.500   3.761  0.00  0.00    +0.105 C 
BRANCH  35  36
ATOM     36  N   UNL     1       2.671   6.750   4.414  0.00  0.00    -0.300 N 
ATOM     37  C   UNL     1       3.000   7.825   3.670  0.00  0.00    +0.297 C 
ATOM     38  O   UNL     1       2.966   7.757   2.456  0.00  0.00    -0.253 OA
ATOM     39  N   UNL     1       3.365   8.974   4.271  0.00  0.00    -0.313 N 
ATOM     40  H   UNL     1       2.698   6.804   5.382  0.00  0.00    +0.150 HD
ATOM     41  H   UNL     1       3.392   9.028   5.239  0.00  0.00    +0.146 HD
ATOM     42  H   UNL     1       3.602   9.748   3.735  0.00  0.00    +0.146 HD
ENDBRANCH  35  36
ENDBRANCH  34  35
ENDBRANCH  33  34
ENDBRANCH   7  33
TORSDOF 7
