REMARK  Name = ZINC57991819
REMARK  2 active torsions:
REMARK  status: ('A' for Active; 'I' for Inactive)
REMARK    1  A    between atoms: C_1  and  C_2
REMARK    2  A    between atoms: C_8  and  C_10
REMARK                            x       y       z     vdW  Elec       q    Type
REMARK                         _______ _______ _______ _____ _____    ______ ____
ROOT
ATOM      1  C   UNL     1      -0.198  -3.955   3.079  0.00  0.00    +0.110 C 
ATOM      2  C   UNL     1       0.964  -4.833   2.539  0.00  0.00    +0.034 C 
ATOM      3  C   UNL     1       1.260  -5.745   3.753  0.00  0.00    +0.059 C 
ATOM      4  C   UNL     1       1.843  -7.077   3.255  0.00  0.00    +0.020 C 
ATOM      5  C   UNL     1       0.783  -8.143   3.616  0.00  0.00    +0.017 C 
ATOM      6  C   UNL     1      -0.519  -7.313   3.725  0.00  0.00    +0.086 C 
ATOM      7  N   UNL     1      -0.071  -6.024   4.353  0.00  0.00    -0.282 NA
ATOM      8  C   UNL     1      -0.978  -4.928   3.976  0.00  0.00    +0.137 C 
ATOM      9  C   UNL     1      -1.521  -4.221   5.188  0.00  0.00    +0.004 A 
ATOM     10  C   UNL     1      -0.929  -3.540   6.229  0.00  0.00    +0.008 A 
ATOM     11  C   UNL     1      -1.711  -2.983   7.225  0.00  0.00    +0.000 A 
ATOM     12  C   UNL     1      -3.087  -3.111   7.172  0.00  0.00    +0.002 A 
ATOM     13  C   UNL     1      -3.684  -3.792   6.132  0.00  0.00    +0.023 A 
ATOM     14  C   UNL     1      -2.904  -4.356   5.125  0.00  0.00    +0.039 A 
ATOM     15  N   UNL     1      -3.266  -5.080   3.987  0.00  0.00    -0.283 N 
ATOM     16  C   UNL     1      -2.196  -5.452   3.260  0.00  0.00    +0.243 C 
ATOM     17  O   UNL     1      -2.210  -6.088   2.227  0.00  0.00    -0.273 OA
ATOM     18  H   UNL     1      -4.182  -5.290   3.748  0.00  0.00    +0.155 HD
ENDROOT
BRANCH   1  26
ATOM     19  C   UNL     1      -5.227  -0.192   3.245  0.00  0.00    +0.007 C 
ATOM     20  C   UNL     1      -3.834  -0.526   2.709  0.00  0.00    -0.011 C 
ATOM     21  C   UNL     1      -3.960  -1.489   1.526  0.00  0.00    +0.022 C 
ATOM     22  C   UNL     1      -2.565  -1.794   0.971  0.00  0.00    +0.108 C 
ATOM     23  N   UNL     1      -1.718  -2.289   2.064  0.00  0.00    -0.301 N 
ATOM     24  C   UNL     1      -1.600  -1.483   3.287  0.00  0.00    +0.108 C 
ATOM     25  C   UNL     1      -3.005  -1.181   3.817  0.00  0.00    +0.022 C 
ATOM     26  C   UNL     1      -1.063  -3.461   1.948  0.00  0.00    +0.221 C 
ATOM     27  O   UNL     1      -1.169  -4.118   0.934  0.00  0.00    -0.275 OA
ENDBRANCH   1  26
TORSDOF 1
