REMARK  Name = ZINC19848627
REMARK  4 active torsions:
REMARK  status: ('A' for Active; 'I' for Inactive)
REMARK    1  A    between atoms: C_4  and  N_7
REMARK    2  A    between atoms: C_16  and  C_27
REMARK    3  A    between atoms: C_16  and  C_31
REMARK    4  A    between atoms: C_18  and  C_20
REMARK                            x       y       z     vdW  Elec       q    Type
REMARK                         _______ _______ _______ _____ _____    ______ ____
ROOT
ATOM      1  N   UNL     1      -1.276   3.906   0.681  0.00  0.00    -0.250 N 
ATOM      2  C   UNL     1      -0.255   4.033  -0.230  0.00  0.00    +0.124 A 
ATOM      3  C   UNL     1       0.766   3.129  -0.233  0.00  0.00    +0.100 A 
ATOM      4  C   UNL     1       0.754   2.086   0.710  0.00  0.00    +0.262 A 
ATOM      5  O   UNL     1       1.658   1.268   0.732  0.00  0.00    -0.267 OA
ATOM      6  N   UNL     1      -0.264   1.998   1.588  0.00  0.00    -0.274 N 
ATOM      7  H   UNL     1      -0.280   1.187   2.332  0.00  0.00    +0.173 HD
ATOM      8  C   UNL     1      -1.268   2.893   1.568  0.00  0.00    +0.335 A 
ATOM      9  O   UNL     1      -2.180   2.789   2.366  0.00  0.00    -0.246 OA
ATOM     10  C   UNL     1       1.885   3.239  -1.229  0.00  0.00    +0.285 C 
ATOM     11  N   UNL     1       1.912   4.556  -1.852  0.00  0.00    -0.239 NA
ATOM     12  C   UNL     1       0.917   5.381  -1.803  0.00  0.00    +0.128 C 
ATOM     13  N   UNL     1      -0.252   5.064  -1.140  0.00  0.00    -0.285 N 
ATOM     14  H   UNL     1      -1.176   5.629  -1.334  0.00  0.00    +0.155 HD
ENDROOT
BRANCH  12  15
ATOM     15  C   UNL     1       1.034   6.695  -2.474  0.00  0.00    +0.015 A 
ATOM     16  C   UNL     1      -0.030   7.597  -2.437  0.00  0.00    +0.014 A 
ATOM     17  C   UNL     1       0.085   8.822  -3.059  0.00  0.00    +0.039 A 
ATOM     18  C   UNL     1       1.253   9.154  -3.729  0.00  0.00    +0.123 A 
ATOM     19  C   UNL     1       2.311   8.260  -3.773  0.00  0.00    +0.039 A 
ATOM     20  C   UNL     1       2.207   7.034  -3.149  0.00  0.00    +0.014 A 
ATOM     21  F   UNL     1       1.359  10.353  -4.342  0.00  0.00    -0.205 F 
ENDBRANCH  12  15
BRANCH   1  25
ATOM     22  C   UNL     1      -4.410   6.653   0.689  0.00  0.00    +0.000 A 
ATOM     23  C   UNL     1      -3.278   6.895   1.446  0.00  0.00    +0.002 A 
ATOM     24  C   UNL     1      -2.238   5.987   1.446  0.00  0.00    +0.026 A 
ATOM     25  C   UNL     1      -2.329   4.830   0.683  0.00  0.00    +0.053 A 
ATOM     26  C   UNL     1      -3.464   4.592  -0.081  0.00  0.00    +0.026 A 
ATOM     27  C   UNL     1      -4.503   5.502  -0.071  0.00  0.00    +0.002 A 
ENDBRANCH   1  25
BRANCH  10  28
ATOM     28  C   UNL     1       3.216   2.994  -0.515  0.00  0.00    +0.428 C 
ATOM     29  F   UNL     1       3.366   1.627  -0.264  0.00  0.00    -0.167 F 
ATOM     30  F   UNL     1       4.267   3.438  -1.325  0.00  0.00    -0.167 F 
ATOM     31  F   UNL     1       3.232   3.696   0.695  0.00  0.00    -0.167 F 
ENDBRANCH  10  28
BRANCH  10  32
ATOM     32  C   UNL     1       1.696   2.176  -2.313  0.00  0.00    +0.428 C 
ATOM     33  F   UNL     1       0.471   2.379  -2.957  0.00  0.00    -0.167 F 
ATOM     34  F   UNL     1       2.735   2.271  -3.245  0.00  0.00    -0.167 F 
ATOM     35  F   UNL     1       1.710   0.905  -1.727  0.00  0.00    -0.167 F 
ENDBRANCH  10  32
TORSDOF 4
