REMARK  Name = ZINC11198371
REMARK  9 active torsions:
REMARK  status: ('A' for Active; 'I' for Inactive)
REMARK    1  A    between atoms: C_1  and  C_2
REMARK    2  A    between atoms: C_7  and  N_8
REMARK    3  A    between atoms: C_9  and  C_25
REMARK    4  A    between atoms: C_12  and  S_13
REMARK    5  A    between atoms: S_13  and  C_14
REMARK    6  A    between atoms: C_14  and  C_16
REMARK    7  A    between atoms: C_14  and  C_19
REMARK    8  A    between atoms: C_16  and  C_17
REMARK    9  A    between atoms: C_16  and  C_18
REMARK                            x       y       z     vdW  Elec       q    Type
REMARK                         _______ _______ _______ _____ _____    ______ ____
ROOT
ATOM      1  N   UNL     1      -6.432   1.165   0.743  0.00  0.00    -0.270 N 
ATOM      2  C   UNL     1      -7.135   0.002   0.518  0.00  0.00    +0.169 A 
ATOM      3  N   UNL     1      -6.264  -0.912   0.158  0.00  0.00    -0.128 NA
ATOM      4  N   UNL     1      -5.082  -0.407   0.136  0.00  0.00    -0.122 NA
ATOM      5  C   UNL     1      -5.123   0.858   0.489  0.00  0.00    +0.197 A 
ENDROOT
BRANCH   1  12
ATOM      6  C   UNL     1      -6.628   1.700   3.531  0.00  0.00    +0.046 C 
ATOM      7  C   UNL     1      -7.062   2.705   2.495  0.00  0.00    -0.026 A 
ATOM      8  C   UNL     1      -7.567   3.929   2.889  0.00  0.00    +0.005 A 
ATOM      9  C   UNL     1      -7.971   4.850   1.939  0.00  0.00    +0.000 A 
ATOM     10  C   UNL     1      -7.864   4.551   0.593  0.00  0.00    +0.002 A 
ATOM     11  C   UNL     1      -7.354   3.331   0.193  0.00  0.00    +0.026 A 
ATOM     12  C   UNL     1      -6.949   2.404   1.145  0.00  0.00    +0.053 A 
ENDBRANCH   1  12
BRANCH   2  13
ATOM     13  C   UNL     1      -8.595  -0.183   0.658  0.00  0.00    +0.020 A 
ATOM     14  C   UNL     1      -9.358   0.762   1.346  0.00  0.00    +0.013 A 
ATOM     15  C   UNL     1     -10.721   0.586   1.469  0.00  0.00    +0.021 A 
ATOM     16  C   UNL     1     -11.330  -0.530   0.921  0.00  0.00    +0.041 A 
ATOM     17  C   UNL     1     -10.578  -1.473   0.242  0.00  0.00    +0.021 A 
ATOM     18  C   UNL     1      -9.215  -1.306   0.108  0.00  0.00    +0.013 A 
ATOM     19 CL   UNL     1     -13.045  -0.747   1.085  0.00  0.00    -0.084 Cl
ENDBRANCH   2  13
BRANCH   5  20
ATOM     20  S   UNL     1      -3.749   1.955   0.609  0.00  0.00    -0.073 S 
BRANCH  20  21
ATOM     21  C   UNL     1      -2.431   0.876  -0.005  0.00  0.00    +0.143 C 
BRANCH  21  22
ATOM     22  C   UNL     1      -2.185  -0.231   0.987  0.00  0.00    +0.234 C 
ATOM     23  O   UNL     1      -2.547  -0.105   2.138  0.00  0.00    -0.274 OA
ATOM     24  N   UNL     1      -1.563  -1.361   0.596  0.00  0.00    -0.239 N 
ATOM     25  C   UNL     1      -1.338  -2.349   1.485  0.00  0.00    +0.303 C 
ATOM     26  O   UNL     1      -1.701  -2.223   2.638  0.00  0.00    -0.253 OA
ATOM     27  N   UNL     1      -0.711  -3.476   1.095  0.00  0.00    -0.313 N 
ATOM     28  H   UNL     1      -1.239  -1.477  -0.449  0.00  0.00    +0.159 HD
ATOM     29  H   UNL     1      -0.528  -4.282   1.820  0.00  0.00    +0.146 HD
ATOM     30  H   UNL     1      -0.383  -3.590   0.051  0.00  0.00    +0.146 HD
ENDBRANCH  21  22
BRANCH  21  31
ATOM     31  C   UNL     1      -1.149   1.691  -0.188  0.00  0.00    +0.005 C 
ATOM     32  C   UNL     1      -0.032   0.777  -0.695  0.00  0.00    +0.009 C 
ATOM     33  C   UNL     1      -1.395   2.807  -1.205  0.00  0.00    +0.009 C 
ENDBRANCH  21  31
ENDBRANCH  20  21
ENDBRANCH   5  20
TORSDOF 6
