REMARK  Name = ZINC06389559
REMARK  9 active torsions:
REMARK  status: ('A' for Active; 'I' for Inactive)
REMARK    1  A    between atoms: C_1  and  C_2
REMARK    2  A    between atoms: C_7  and  N_12
REMARK    3  A    between atoms: C_9  and  C_11
REMARK    4  A    between atoms: C_13  and  C_15
REMARK    5  A    between atoms: C_15  and  C_16
REMARK    6  A    between atoms: C_16  and  C_17
REMARK    7  A    between atoms: C_16  and  C_18
REMARK    8  A    between atoms: C_16  and  C_19
REMARK    9  A    between atoms: C_19  and  C_20
REMARK                            x       y       z     vdW  Elec       q    Type
REMARK                         _______ _______ _______ _____ _____    ______ ____
ROOT
ATOM      1  C   UNL     1      -4.975   4.461   0.302  0.00  0.00    -0.020 C 
ATOM      2  C   UNL     1      -4.933   3.367  -0.767  0.00  0.00    +0.012 C 
ATOM      3  C   UNL     1      -4.542   3.876   1.647  0.00  0.00    +0.012 C 
ENDROOT
BRANCH   1   4
ATOM      4  C   UNL     1      -6.401   5.005   0.418  0.00  0.00    +0.102 C 
BRANCH   4   6
ATOM      5  N   UNL     1      -8.650   4.135   0.966  0.00  0.00    -0.312 N 
ATOM      6  C   UNL     1      -7.335   3.888   0.805  0.00  0.00    +0.214 C 
ATOM      7  O   UNL     1      -6.904   2.767   0.972  0.00  0.00    -0.276 OA
ATOM      8  H   UNL     1      -9.041   5.152   0.814  0.00  0.00    +0.149 HD
BRANCH   5  14
ATOM      9  C   UNL     1     -13.341   2.583   0.791  0.00  0.00    +0.008 C 
ATOM     10  C   UNL     1     -11.924   2.249   1.263  0.00  0.00    -0.009 C 
ATOM     11  C   UNL     1     -11.919   2.083   2.784  0.00  0.00    +0.003 C 
ATOM     12  C   UNL     1     -10.502   1.750   3.256  0.00  0.00    +0.002 C 
ATOM     13  C   UNL     1      -9.553   2.884   2.863  0.00  0.00    +0.022 C 
ATOM     14  C   UNL     1      -9.559   3.049   1.342  0.00  0.00    +0.076 C 
ATOM     15  C   UNL     1     -10.975   3.383   0.870  0.00  0.00    +0.009 C 
ATOM     16  C   UNL     1     -11.438   4.685   1.526  0.00  0.00    +0.009 C 
ENDBRANCH   5  14
ENDBRANCH   4   6
ENDBRANCH   1   4
BRANCH   1  17
ATOM     17  C   UNL     1      -4.027   5.595  -0.091  0.00  0.00    +0.079 C 
BRANCH  17  18
ATOM     18  C   UNL     1      -2.623   5.059  -0.206  0.00  0.00    +0.116 C 
ATOM     19  N   UNL     1      -2.430   3.810   0.027  0.00  0.00    -0.234 NA
ATOM     20  C   UNL     1      -1.244   3.139   0.028  0.00  0.00    +0.092 A 
ATOM     21  C   UNL     1      -1.220   1.742   0.017  0.00  0.00    +0.030 A 
ATOM     22  C   UNL     1      -0.013   1.076   0.008  0.00  0.00    +0.002 A 
ATOM     23  C   UNL     1       1.180   1.777   0.000  0.00  0.00    +0.002 A 
ATOM     24  C   UNL     1       1.169   3.163   0.012  0.00  0.00    +0.031 A 
ATOM     25  C   UNL     1      -0.028   3.831   0.027  0.00  0.00    +0.134 A 
ATOM     26  S   UNL     1      -0.099   5.599   0.053  0.00  0.00    +0.075 S 
ATOM     27  O   UNL     1      -0.092   6.000   1.416  0.00  0.00    -0.150 OA
ATOM     28  O   UNL     1       0.846   6.072  -0.896  0.00  0.00    -0.150 OA
ATOM     29  N   UNL     1      -1.621   5.933  -0.552  0.00  0.00    -0.203 N 
ATOM     30  H   UNL     1      -1.777   6.814  -1.192  0.00  0.00    +0.175 HD
ENDBRANCH  17  18
ENDBRANCH   1  17
TORSDOF 5
