REMARK  Name = ZINC39667130
REMARK  7 active torsions:
REMARK  status: ('A' for Active; 'I' for Inactive)
REMARK    1  A    between atoms: C_1  and  C_2
REMARK    2  A    between atoms: C_5  and  C_9
REMARK    3  A    between atoms: C_6  and  C_8
REMARK    4  A    between atoms: C_9  and  C_10
REMARK    5  A    between atoms: C_10  and  N_11
REMARK    6  A    between atoms: C_12  and  C_14
REMARK    7  A    between atoms: C_25  and  C_27
REMARK                            x       y       z     vdW  Elec       q    Type
REMARK                         _______ _______ _______ _____ _____    ______ ____
ROOT
ATOM      1  C   UNL     1      -2.485  -8.466   0.197  0.00  0.00    +0.100 C 
ATOM      2  C   UNL     1      -2.062  -8.991  -1.193  0.00  0.00    +0.121 C 
ATOM      3  N   UNL     1      -2.893 -10.198  -1.406  0.00  0.00    -0.297 N 
ATOM      4  C   UNL     1      -4.221  -9.834  -0.857  0.00  0.00    +0.115 C 
ATOM      5  C   UNL     1      -3.903  -9.021   0.414  0.00  0.00    -0.004 C 
ATOM      6  C   UNL     1      -3.934  -9.926   1.641  0.00  0.00    -0.010 C 
ATOM      7  C   UNL     1      -5.366 -10.420   1.869  0.00  0.00    -0.082 C 
ATOM      8  N   UNL     1      -6.257  -9.270   2.061  0.00  0.00    +0.379 N 
ATOM      9  C   UNL     1      -6.293  -8.454   0.842  0.00  0.00    -0.082 C 
ATOM     10  C   UNL     1      -4.900  -7.877   0.571  0.00  0.00    -0.010 C 
ATOM     11  C   UNL     1      -2.526 -11.365  -1.972  0.00  0.00    +0.260 C 
ATOM     12  O   UNL     1      -3.328 -12.268  -2.077  0.00  0.00    -0.271 OA
ATOM     13  H   UNL     1      -7.188  -9.599   2.272  0.00  0.00    -0.086 HD
ATOM     14  H   UNL     1      -5.920  -8.710   2.830  0.00  0.00    -0.086 HD
ENDROOT
BRANCH  11  15
ATOM     15  C   UNL     1      -1.117 -11.547  -2.475  0.00  0.00    +0.296 C 
ATOM     16  C   UNL     1      -0.860 -10.597  -3.652  0.00  0.00    +0.283 C 
ATOM     17  O   UNL     1       0.479 -10.806  -4.114  0.00  0.00    -0.484 OA
ATOM     18  C   UNL     1       0.874 -12.098  -4.279  0.00  0.00    +0.162 A 
ATOM     19  C   UNL     1       1.995 -12.373  -5.049  0.00  0.00    +0.049 A 
ATOM     20  C   UNL     1       2.410 -13.680  -5.224  0.00  0.00    +0.004 A 
ATOM     21  C   UNL     1       1.710 -14.715  -4.633  0.00  0.00    +0.004 A 
ATOM     22  C   UNL     1       0.592 -14.447  -3.866  0.00  0.00    +0.049 A 
ATOM     23  C   UNL     1       0.169 -13.139  -3.688  0.00  0.00    +0.163 A 
ATOM     24  O   UNL     1      -0.939 -12.891  -2.936  0.00  0.00    -0.473 OA
ENDBRANCH  11  15
BRANCH   1  26
ATOM     25  N   UNL     1      -2.275  -6.288   1.352  0.00  0.00    -0.315 N 
ATOM     26  C   UNL     1      -2.505  -6.959   0.206  0.00  0.00    +0.218 C 
ATOM     27  O   UNL     1      -2.727  -6.349  -0.819  0.00  0.00    -0.275 OA
ATOM     28  H   UNL     1      -2.097  -6.775   2.172  0.00  0.00    +0.149 HD
BRANCH  25  29
ATOM     29  C   UNL     1      -2.294  -4.823   1.360  0.00  0.00    +0.109 C 
BRANCH  29  30
ATOM     30  C   UNL     1      -2.006  -4.317   2.775  0.00  0.00    +0.054 C 
BRANCH  30  35
ATOM     31  C   UNL     1      -2.080   1.461   2.803  0.00  0.00    +0.044 C 
ATOM     32  C   UNL     1      -2.061  -0.046   2.796  0.00  0.00    -0.050 A 
ATOM     33  C   UNL     1      -0.863  -0.721   2.652  0.00  0.00    +0.003 A 
ATOM     34  C   UNL     1      -0.845  -2.103   2.646  0.00  0.00    +0.004 A 
ATOM     35  C   UNL     1      -2.025  -2.811   2.783  0.00  0.00    -0.043 A 
ATOM     36  C   UNL     1      -3.223  -2.136   2.928  0.00  0.00    -0.047 A 
ATOM     37  C   UNL     1      -3.240  -0.753   2.939  0.00  0.00    +0.007 A 
ATOM     38  C   UNL     1      -4.509  -2.907   3.078  0.00  0.00    +0.044 C 
ENDBRANCH  30  35
ENDBRANCH  29  30
ENDBRANCH  25  29
ENDBRANCH   1  26
TORSDOF 5
