REMARK  Name = ZINC49224921
REMARK  10 active torsions:
REMARK  status: ('A' for Active; 'I' for Inactive)
REMARK    1  A    between atoms: C_1  and  C_2
REMARK    2  A    between atoms: C_2  and  C_3
REMARK    3  A    between atoms: C_3  and  N_4
REMARK    4  A    between atoms: C_5  and  C_7
REMARK    5  A    between atoms: C_7  and  C_9
REMARK    6  A    between atoms: C_7  and  N_10
REMARK    7  A    between atoms: C_12  and  C_19
REMARK    8  A    between atoms: C_13  and  C_18
REMARK    9  A    between atoms: C_15  and  C_17
REMARK   10  A    between atoms: C_19  and  N_21
REMARK                            x       y       z     vdW  Elec       q    Type
REMARK                         _______ _______ _______ _____ _____    ______ ____
ROOT
ATOM      1  N   UNL     1       1.703  -4.431   3.828  0.00  0.00    -0.319 N 
ATOM      2  C   UNL     1       1.623  -5.783   4.111  0.00  0.00    +0.107 A 
ATOM      3  C   UNL     1       2.442  -6.338   5.110  0.00  0.00    +0.044 A 
ATOM      4  C   UNL     1       2.342  -7.708   5.379  0.00  0.00    -0.036 A 
ATOM      5  C   UNL     1       1.438  -8.458   4.646  0.00  0.00    +0.025 A 
ATOM      6  C   UNL     1       0.667  -7.840   3.679  0.00  0.00    +0.015 A 
ATOM      7  N   UNL     1       0.772  -6.546   3.444  0.00  0.00    -0.347 N 
ATOM      8  C   UNL     1      -0.316  -8.659   2.882  0.00  0.00    +0.063 C 
ATOM      9  C   UNL     1       3.198  -8.352   6.439  0.00  0.00    +0.044 C 
ATOM     10  H   UNL     1       2.377  -3.884   4.261  0.00  0.00    +0.148 HD
ATOM     11  H   UNL     1       0.213  -6.144   2.761  0.00  0.00    +0.167 HD
ENDROOT
BRANCH   1  12
ATOM     12  C   UNL     1       0.770  -3.826   2.874  0.00  0.00    +0.155 C 
ATOM     13  C   UNL     1       1.306  -4.006   1.453  0.00  0.00    +0.038 C 
BRANCH  12  15
ATOM     14  N   UNL     1      -0.185  -1.590   2.421  0.00  0.00    -0.314 N 
ATOM     15  C   UNL     1       0.628  -2.356   3.175  0.00  0.00    +0.233 C 
ATOM     16  O   UNL     1       1.244  -1.863   4.096  0.00  0.00    -0.274 OA
ATOM     17  H   UNL     1      -0.679  -1.984   1.685  0.00  0.00    +0.149 HD
BRANCH  14  18
ATOM     18  C   UNL     1      -0.324  -0.161   2.714  0.00  0.00    +0.104 C 
BRANCH  18  20
ATOM     19  C   UNL     1      -1.443   1.963   2.023  0.00  0.00    +0.005 C 
ATOM     20  C   UNL     1      -1.298   0.471   1.718  0.00  0.00    +0.015 C 
ENDBRANCH  18  20
ENDBRANCH  14  18
ENDBRANCH  12  15
ENDBRANCH   1  12
BRANCH   3  21
ATOM     21  C   UNL     1       3.387  -5.494   5.860  0.00  0.00    +0.080 C 
ATOM     22  S   UNL     1       2.886  -4.721   7.303  0.00  0.00    -0.035 S 
BRANCH  21  23
ATOM     23  N   UNL     1       4.647  -5.330   5.410  0.00  0.00    -0.352 N 
ATOM     24  H   UNL     1       4.957  -5.833   4.641  0.00  0.00    +0.143 HD
ATOM     25  H   UNL     1       5.244  -4.709   5.856  0.00  0.00    +0.143 HD
ENDBRANCH  21  23
ENDBRANCH   3  21
TORSDOF 6
