REMARK  Name = ZINC02249550
REMARK  8 active torsions:
REMARK  status: ('A' for Active; 'I' for Inactive)
REMARK    1  A    between atoms: C_1  and  O_2
REMARK    2  A    between atoms: O_2  and  C_3
REMARK    3  A    between atoms: C_6  and  C_9
REMARK    4  A    between atoms: C_20  and  C_22
REMARK    5  A    between atoms: C_25  and  O_30
REMARK    6  A    between atoms: C_26  and  O_28
REMARK    7  A    between atoms: O_28  and  C_29
REMARK    8  A    between atoms: O_30  and  C_31
REMARK                            x       y       z     vdW  Elec       q    Type
REMARK                         _______ _______ _______ _____ _____    ______ ____
ROOT
ATOM      1  C   UNL     1       2.505  -2.503  -4.381  0.00  0.00    +0.159 C 
ATOM      2  C   UNL     1       1.436  -2.875  -5.386  0.00  0.00    +0.027 C 
ATOM      3  C   UNL     1       1.313  -4.173  -5.730  0.00  0.00    +0.083 C 
ATOM      4  C   UNL     1       0.254  -4.524  -6.710  0.00  0.00    +0.042 A 
ATOM      5  C   UNL     1       0.248  -5.748  -7.364  0.00  0.00    +0.013 A 
ATOM      6  C   UNL     1      -0.756  -6.033  -8.271  0.00  0.00    +0.001 A 
ATOM      7  C   UNL     1      -1.749  -5.103  -8.525  0.00  0.00    +0.004 A 
ATOM      8  C   UNL     1      -1.750  -3.882  -7.877  0.00  0.00    +0.046 A 
ATOM      9  C   UNL     1      -0.752  -3.584  -6.965  0.00  0.00    +0.131 A 
ATOM     10  O   UNL     1      -0.734  -2.395  -6.310  0.00  0.00    -0.479 OA
ATOM     11  C   UNL     1       0.542  -1.834  -5.994  0.00  0.00    +0.234 C 
ATOM     12  N   UNL     1       2.121  -5.126  -5.205  0.00  0.00    -0.213 NA
ATOM     13  C   UNL     1       3.071  -4.890  -4.330  0.00  0.00    +0.237 C 
ATOM     14  N   UNL     1       3.317  -3.615  -3.873  0.00  0.00    -0.208 N 
ATOM     15  N   UNL     1       4.372  -3.715  -2.963  0.00  0.00    -0.251 N 
ATOM     16  C   UNL     1       4.713  -5.033  -2.912  0.00  0.00    +0.203 C 
ATOM     17  N   UNL     1       3.953  -5.708  -3.713  0.00  0.00    -0.205 NA
ATOM     18  H   UNL     1       4.781  -2.990  -2.465  0.00  0.00    +0.171 HD
ENDROOT
BRANCH   1  22
ATOM     19  C   UNL     1       0.606  -0.607  -1.056  0.00  0.00    +0.120 A 
ATOM     20  C   UNL     1       1.173   0.161  -2.062  0.00  0.00    +0.046 A 
ATOM     21  C   UNL     1       1.786  -0.455  -3.136  0.00  0.00    +0.009 A 
ATOM     22  C   UNL     1       1.835  -1.835  -3.209  0.00  0.00    -0.021 A 
ATOM     23  C   UNL     1       1.270  -2.602  -2.207  0.00  0.00    +0.009 A 
ATOM     24  C   UNL     1       0.661  -1.992  -1.128  0.00  0.00    +0.046 A 
BRANCH  19  26
ATOM     25  C   UNL     1      -0.017   1.425   0.010  0.00  0.00    +0.277 C 
ATOM     26  O   UNL     1       0.002  -0.004   0.002  0.00  0.00    -0.495 OA
ENDBRANCH  19  26
ENDBRANCH   1  22
BRANCH  11  27
ATOM     27  C   UNL     1       1.179  -1.303  -7.253  0.00  0.00    +0.001 A 
ATOM     28  C   UNL     1       0.994  -1.967  -8.451  0.00  0.00    +0.011 A 
ATOM     29  C   UNL     1       1.576  -1.484  -9.609  0.00  0.00    +0.050 A 
ATOM     30  C   UNL     1       2.345  -0.333  -9.569  0.00  0.00    +0.162 A 
ATOM     31  C   UNL     1       2.530   0.336  -8.363  0.00  0.00    +0.162 A 
ATOM     32  C   UNL     1       1.940  -0.151  -7.207  0.00  0.00    +0.057 A 
BRANCH  31  33
ATOM     33  O   UNL     1       3.285   1.466  -8.319  0.00  0.00    -0.491 OA
ATOM     34  C   UNL     1       3.431   2.099  -7.046  0.00  0.00    +0.277 C 
ENDBRANCH  31  33
BRANCH  30  35
ATOM     35  O   UNL     1       2.919   0.143 -10.707  0.00  0.00    -0.491 OA
ATOM     36  C   UNL     1       2.686  -0.594 -11.908  0.00  0.00    +0.277 C 
ENDBRANCH  30  35
ENDBRANCH  11  27
TORSDOF 5
