REMARK  Name = ZINC39607778
REMARK  10 active torsions:
REMARK  status: ('A' for Active; 'I' for Inactive)
REMARK    1  A    between atoms: C_1  and  C_2
REMARK    2  A    between atoms: C_2  and  C_3
REMARK    3  A    between atoms: C_3  and  O_4
REMARK    4  A    between atoms: O_4  and  C_5
REMARK    5  A    between atoms: C_5  and  C_6
REMARK    6  A    between atoms: C_6  and  N_7
REMARK    7  A    between atoms: C_8  and  C_10
REMARK    8  A    between atoms: C_21  and  C_23
REMARK    9  A    between atoms: C_24  and  C_34
REMARK   10  A    between atoms: C_27  and  C_28
REMARK                            x       y       z     vdW  Elec       q    Type
REMARK                         _______ _______ _______ _____ _____    ______ ____
ROOT
ATOM      1  C   UNL     1      -1.047  -6.286   2.741  0.00  0.00    +0.100 C 
ATOM      2  C   UNL     1       0.424  -5.815   2.786  0.00  0.00    +0.121 C 
ATOM      3  N   UNL     1       1.156  -6.933   3.428  0.00  0.00    -0.296 N 
ATOM      4  C   UNL     1       0.532  -8.154   2.864  0.00  0.00    +0.115 C 
ATOM      5  C   UNL     1      -0.972  -7.822   2.792  0.00  0.00    -0.004 C 
ATOM      6  C   UNL     1      -1.584  -8.422   1.530  0.00  0.00    -0.010 C 
ATOM      7  C   UNL     1      -1.551  -9.950   1.629  0.00  0.00    -0.082 C 
ATOM      8  N   UNL     1      -2.301 -10.381   2.815  0.00  0.00    +0.379 N 
ATOM      9  C   UNL     1      -1.651  -9.876   4.030  0.00  0.00    -0.082 C 
ATOM     10  C   UNL     1      -1.689  -8.345   4.032  0.00  0.00    -0.010 C 
ATOM     11  C   UNL     1       2.161  -6.857   4.323  0.00  0.00    +0.252 C 
ATOM     12  O   UNL     1       2.663  -7.874   4.761  0.00  0.00    -0.270 OA
ATOM     13  H   UNL     1      -3.243 -10.022   2.764  0.00  0.00    -0.086 HD
ATOM     14  H   UNL     1      -2.330 -11.390   2.845  0.00  0.00    -0.086 HD
ENDROOT
BRANCH  11  15
ATOM     15  C   UNL     1       2.650  -5.542   4.770  0.00  0.00    +0.106 A 
ATOM     16  C   UNL     1       2.197  -4.825   5.838  0.00  0.00    +0.147 A 
ATOM     17  O   UNL     1       2.897  -3.689   5.908  0.00  0.00    -0.359 OA
ATOM     18  N   UNL     1       3.841  -3.652   4.856  0.00  0.00    -0.077 NA
ATOM     19  C   UNL     1       3.727  -4.751   4.154  0.00  0.00    +0.126 A 
ATOM     20  C   UNL     1       1.096  -5.242   6.778  0.00  0.00    +0.090 C 
BRANCH  19  21
ATOM     21  C   UNL     1       4.528  -5.125   2.963  0.00  0.00    +0.004 A 
ATOM     22  C   UNL     1       4.859  -6.459   2.735  0.00  0.00    +0.010 A 
ATOM     23  C   UNL     1       5.604  -6.802   1.625  0.00  0.00    +0.001 A 
ATOM     24  C   UNL     1       6.022  -5.824   0.740  0.00  0.00    +0.000 A 
ATOM     25  C   UNL     1       5.697  -4.498   0.963  0.00  0.00    +0.001 A 
ATOM     26  C   UNL     1       4.947  -4.145   2.066  0.00  0.00    +0.010 A 
ENDBRANCH  19  21
ENDBRANCH  11  15
BRANCH   1  28
ATOM     27  N   UNL     1      -3.031  -5.608   1.430  0.00  0.00    -0.313 N 
ATOM     28  C   UNL     1      -1.703  -5.835   1.462  0.00  0.00    +0.218 C 
ATOM     29  O   UNL     1      -1.037  -5.676   0.462  0.00  0.00    -0.275 OA
ATOM     30  H   UNL     1      -3.565  -5.735   2.230  0.00  0.00    +0.149 HD
BRANCH  27  31
ATOM     31  C   UNL     1      -3.670  -5.169   0.187  0.00  0.00    +0.132 C 
BRANCH  31  32
ATOM     32  C   UNL     1      -5.170  -4.985   0.421  0.00  0.00    +0.178 C 
BRANCH  32  33
ATOM     33  O   UNL     1      -5.380  -3.920   1.350  0.00  0.00    -0.378 OA
BRANCH  33  34
ATOM     34  C   UNL     1      -6.756  -3.664   1.640  0.00  0.00    +0.159 C 
BRANCH  34  36
ATOM     35  C   UNL     1      -8.334  -2.237   2.951  0.00  0.00    +0.006 C 
ATOM     36  C   UNL     1      -6.861  -2.511   2.640  0.00  0.00    +0.025 C 
ENDBRANCH  34  36
ENDBRANCH  33  34
ENDBRANCH  32  33
ENDBRANCH  31  32
ENDBRANCH  27  31
ENDBRANCH   1  28
TORSDOF 8
