REMARK  Name = ZINC00709949
REMARK  6 active torsions:
REMARK  status: ('A' for Active; 'I' for Inactive)
REMARK    1  A    between atoms: C_1  and  O_2
REMARK    2  A    between atoms: O_2  and  C_3
REMARK    3  A    between atoms: C_6  and  C_11
REMARK    4  A    between atoms: C_8  and  O_9
REMARK    5  A    between atoms: O_9  and  C_10
REMARK    6  A    between atoms: C_16  and  C_26
REMARK                            x       y       z     vdW  Elec       q    Type
REMARK                         _______ _______ _______ _____ _____    ______ ____
ROOT
ATOM      1  C   UNL     1      -2.513   0.975   0.020  0.00  0.00    +0.032 C 
ATOM      2  C   UNL     1      -2.575   0.067  -1.207  0.00  0.00    +0.059 C 
ATOM      3  C   UNL     1      -3.876  -0.720  -1.202  0.00  0.00    +0.017 C 
ATOM      4  C   UNL     1      -4.426  -1.109  -0.041  0.00  0.00    +0.037 C 
ATOM      5  C   UNL     1      -5.684  -1.933   0.113  0.00  0.00    +0.143 C 
ATOM      6  N   UNL     1      -6.449  -2.082  -1.107  0.00  0.00    -0.331 N 
ATOM      7  C   UNL     1      -5.927  -2.761  -2.205  0.00  0.00    +0.049 A 
ATOM      8  C   UNL     1      -6.463  -3.969  -2.627  0.00  0.00    +0.025 A 
ATOM      9  C   UNL     1      -5.867  -4.650  -3.674  0.00  0.00    +0.002 A 
ATOM     10  C   UNL     1      -4.747  -4.134  -4.298  0.00  0.00    +0.002 A 
ATOM     11  C   UNL     1      -4.222  -2.918  -3.895  0.00  0.00    +0.025 A 
ATOM     12  C   UNL     1      -4.827  -2.228  -2.860  0.00  0.00    +0.052 A 
ATOM     13  N   UNL     1      -4.381  -0.980  -2.435  0.00  0.00    -0.316 N 
ATOM     14  C   UNL     1      -3.826  -0.750   1.190  0.00  0.00    +0.163 C 
ATOM     15  O   UNL     1      -4.338  -1.133   2.224  0.00  0.00    -0.292 OA
ATOM     16  C   UNL     1      -2.582   0.083   1.265  0.00  0.00    +0.088 C 
ATOM     17  H   UNL     1      -7.340  -1.703  -1.161  0.00  0.00    +0.147 HD
ATOM     18  H   UNL     1      -4.434  -0.244  -3.064  0.00  0.00    +0.152 HD
ENDROOT
BRANCH   1  22
ATOM     19  C   UNL     1       1.159   3.167   0.007  0.00  0.00    +0.161 A 
ATOM     20  C   UNL     1       1.176   1.782   0.000  0.00  0.00    +0.049 A 
ATOM     21  C   UNL     1      -0.013   1.076   0.008  0.00  0.00    +0.008 A 
ATOM     22  C   UNL     1      -1.220   1.749   0.017  0.00  0.00    -0.040 A 
ATOM     23  C   UNL     1      -1.244   3.131   0.030  0.00  0.00    +0.053 A 
ATOM     24  C   UNL     1      -0.056   3.845   0.022  0.00  0.00    +0.162 A 
BRANCH  19  26
ATOM     25  C   UNL     1       3.536   3.101  -0.016  0.00  0.00    +0.277 C 
ATOM     26  O   UNL     1       2.327   3.863  -0.000  0.00  0.00    -0.491 OA
ENDBRANCH  19  26
BRANCH  24  27
ATOM     27  O   UNL     1      -0.078   5.205   0.030  0.00  0.00    -0.491 OA
ATOM     28  C   UNL     1      -1.362   5.833   0.045  0.00  0.00    +0.277 C 
ENDBRANCH  24  27
ENDBRANCH   1  22
BRANCH   5  29
ATOM     29  C   UNL     1      -5.301  -3.303   0.608  0.00  0.00    +0.014 A 
ATOM     30  C   UNL     1      -5.355  -3.801   1.868  0.00  0.00    +0.013 A 
ATOM     31  C   UNL     1      -4.948  -5.103   2.092  0.00  0.00    +0.008 A 
ATOM     32  C   UNL     1      -4.507  -5.843   1.046  0.00  0.00    +0.045 A 
ATOM     33  S   UNL     1      -4.666  -4.695  -0.312  0.00  0.00    -0.099 S 
ENDBRANCH   5  29
TORSDOF 4
