REMARK  Name = ZINC08707791
REMARK  4 active torsions:
REMARK  status: ('A' for Active; 'I' for Inactive)
REMARK    1  A    between atoms: C_1  and  C_2
REMARK    2  A    between atoms: C_9  and  C_10
REMARK    3  A    between atoms: C_9  and  N_49
REMARK    4  A    between atoms: C_23  and  C_25
REMARK                            x       y       z     vdW  Elec       q    Type
REMARK                         _______ _______ _______ _____ _____    ______ ____
ROOT
ATOM      1  C   UNL     1       0.288   5.992   1.013  0.00  0.00    +0.204 C 
ATOM      2  O   UNL     1       0.248   7.204   0.963  0.00  0.00    -0.277 OA
ATOM      3  N   UNL     1      -0.055   5.261  -0.066  0.00  0.00    -0.259 N 
ATOM      4  C   UNL     1      -0.013   3.861  -0.022  0.00  0.00    +0.058 A 
ATOM      5  C   UNL     1       1.199   3.190  -0.034  0.00  0.00    +0.025 A 
ATOM      6  C   UNL     1       1.220   1.808  -0.043  0.00  0.00    +0.002 A 
ATOM      7  C   UNL     1       0.037   1.092  -0.039  0.00  0.00    +0.002 A 
ATOM      8  C   UNL     1      -1.177   1.754  -0.022  0.00  0.00    +0.025 A 
ATOM      9  C   UNL     1      -1.207   3.139  -0.000  0.00  0.00    +0.055 A 
ATOM     10  N   UNL     1      -2.423   3.830   0.051  0.00  0.00    -0.284 N 
ATOM     11  C   UNL     1      -2.669   4.845  -0.805  0.00  0.00    +0.219 C 
ATOM     12  O   UNL     1      -3.691   5.490  -0.697  0.00  0.00    -0.275 OA
ATOM     13  C   UNL     1      -1.684   5.181  -1.894  0.00  0.00    +0.128 C 
ATOM     14  C   UNL     1      -0.479   5.915  -1.305  0.00  0.00    +0.194 C 
ATOM     15  H   UNL     1      -3.093   3.578   0.706  0.00  0.00    +0.155 HD
ENDROOT
BRANCH  14  16
ATOM     16  C   UNL     1       0.672   5.892  -2.312  0.00  0.00    +0.409 C 
ATOM     17  F   UNL     1       0.271   6.525  -3.494  0.00  0.00    -0.169 F 
ATOM     18  F   UNL     1       1.775   6.564  -1.775  0.00  0.00    -0.169 F 
ATOM     19  F   UNL     1       1.023   4.567  -2.589  0.00  0.00    -0.169 F 
ENDBRANCH  14  16
BRANCH   1  20
ATOM     20  C   UNL     1       0.723   5.305   2.282  0.00  0.00    +0.019 C 
BRANCH  20  29
ATOM     21  C   UNL     1       3.437   7.535   7.526  0.00  0.00    +0.109 C 
ATOM     22  C   UNL     1       3.463   8.018   6.099  0.00  0.00    +0.212 C 
ATOM     23  O   UNL     1       4.389   8.695   5.704  0.00  0.00    -0.276 OA
ATOM     24  N   UNL     1       2.457   7.700   5.260  0.00  0.00    -0.305 N 
ATOM     25  C   UNL     1       1.387   6.782   5.680  0.00  0.00    +0.089 C 
ATOM     26  C   UNL     1       1.238   5.689   4.617  0.00  0.00    -0.059 C 
ATOM     27  C   UNL     1       2.211   7.109   2.908  0.00  0.00    -0.059 C 
ATOM     28  C   UNL     1       2.400   8.260   3.902  0.00  0.00    +0.089 C 
ATOM     29  N   UNL     1       1.016   6.332   3.303  0.00  0.00    +0.387 N 
ATOM     30  H   UNL     1       0.214   6.969   3.375  0.00  0.00    -0.081 HD
ENDBRANCH  20  29
ENDBRANCH   1  20
TORSDOF 3
