REMARK  Name = ZINC19314858
REMARK  15 active torsions:
REMARK  status: ('A' for Active; 'I' for Inactive)
REMARK    1  A    between atoms: C_1  and  C_2
REMARK    2  A    between atoms: C_2  and  C_3
REMARK    3  A    between atoms: C_2  and  C_4
REMARK    4  A    between atoms: C_4  and  N_5
REMARK    5  A    between atoms: N_5  and  C_6
REMARK    6  A    between atoms: C_7  and  N_22
REMARK    7  A    between atoms: N_8  and  C_15
REMARK    8  A    between atoms: C_15  and  C_16
REMARK    9  A    between atoms: C_23  and  C_25
REMARK   10  A    between atoms: C_25  and  O_26
REMARK   11  A    between atoms: O_26  and  C_27
REMARK   12  A    between atoms: C_27  and  C_29
REMARK   13  A    between atoms: C_33  and  O_36
REMARK   14  A    between atoms: C_34  and  O_35
REMARK   15  A    between atoms: O_36  and  C_37
REMARK                            x       y       z     vdW  Elec       q    Type
REMARK                         _______ _______ _______ _____ _____    ______ ____
ROOT
ATOM      1  N   UNL     1      -1.420   7.516   0.138  0.00  0.00    -0.261 N 
ATOM      2  C   UNL     1      -1.193   6.186   0.115  0.00  0.00    +0.258 C 
ATOM      3  O   UNL     1      -2.126   5.411   0.153  0.00  0.00    -0.272 OA
ENDROOT
BRANCH   1   4
ATOM      4  C   UNL     1      -2.733   8.005   0.305  0.00  0.00    +0.140 A 
ATOM      5  C   UNL     1      -3.321   8.784  -0.670  0.00  0.00    +0.128 A 
ATOM      6  N   UNL     1      -4.604   9.242  -0.481  0.00  0.00    -0.276 N 
ATOM      7  C   UNL     1      -5.275   8.942   0.646  0.00  0.00    +0.331 A 
ATOM      8  O   UNL     1      -6.407   9.359   0.796  0.00  0.00    -0.246 OA
ATOM      9  N   UNL     1      -4.716   8.188   1.609  0.00  0.00    -0.273 N 
ATOM     10  H   UNL     1      -5.283   7.955   2.523  0.00  0.00    +0.173 HD
ATOM     11  C   UNL     1      -3.464   7.710   1.471  0.00  0.00    +0.277 A 
ATOM     12  O   UNL     1      -2.967   7.028   2.351  0.00  0.00    -0.266 OA
BRANCH   5  13
ATOM     13  N   UNL     1      -2.634   9.096  -1.819  0.00  0.00    -0.343 N 
ATOM     14  H   UNL     1      -3.109   9.718  -2.592  0.00  0.00    +0.144 HD
ATOM     15  H   UNL     1      -1.609   8.724  -1.965  0.00  0.00    +0.144 HD
ENDBRANCH   5  13
BRANCH   6  16
ATOM     16  C   UNL     1      -5.243  10.066  -1.511  0.00  0.00    +0.163 C 
BRANCH  16  17
ATOM     17  C   UNL     1      -4.947  11.519  -1.246  0.00  0.00    -0.028 A 
ATOM     18  C   UNL     1      -5.800  12.265  -0.455  0.00  0.00    +0.005 A 
ATOM     19  C   UNL     1      -5.526  13.598  -0.208  0.00  0.00    +0.000 A 
ATOM     20  C   UNL     1      -4.404  14.186  -0.760  0.00  0.00    +0.000 A 
ATOM     21  C   UNL     1      -3.553  13.441  -1.555  0.00  0.00    +0.000 A 
ATOM     22  C   UNL     1      -3.825  12.108  -1.798  0.00  0.00    +0.005 A 
ENDBRANCH  16  17
ENDBRANCH   6  16
ENDBRANCH   1   4
BRANCH   1  23
ATOM     23  C   UNL     1      -0.303   8.452  -0.011  0.00  0.00    +0.117 C 
BRANCH  23  25
ATOM     24  C   UNL     1       1.500   9.674   1.214  0.00  0.00    +0.009 C 
ATOM     25  C   UNL     1       0.235   8.827   1.371  0.00  0.00    +0.001 C 
ATOM     26  C   UNL     1      -0.824   9.628   2.132  0.00  0.00    +0.009 C 
ENDBRANCH  23  25
ENDBRANCH   1  23
BRANCH   2  27
ATOM     27  C   UNL     1       0.218   5.663   0.043  0.00  0.00    +0.328 C 
BRANCH  27  28
ATOM     28  O   UNL     1       0.205   4.216   0.152  0.00  0.00    -0.452 OA
BRANCH  28  29
ATOM     29  C   UNL     1       1.396   3.587   0.105  0.00  0.00    +0.343 C 
ATOM     30  O   UNL     1       2.418   4.232  -0.024  0.00  0.00    -0.245 OA
BRANCH  29  31
ATOM     31  C   UNL     1       1.459   2.119   0.210  0.00  0.00    +0.104 A 
ATOM     32  C   UNL     1       0.285   1.373   0.359  0.00  0.00    +0.019 A 
ATOM     33  C   UNL     1       0.348   0.001   0.457  0.00  0.00    +0.005 A 
ATOM     34  C   UNL     1       1.571  -0.649   0.409  0.00  0.00    +0.049 A 
ATOM     35  C   UNL     1       2.742   0.075   0.262  0.00  0.00    +0.162 A 
ATOM     36  C   UNL     1       2.695   1.462   0.162  0.00  0.00    +0.173 A 
BRANCH  36  37
ATOM     37  O   UNL     1       3.841   2.175   0.018  0.00  0.00    -0.503 OA
ATOM     38  H   UNL     1       4.811   1.656  -0.019  0.00  0.00    +0.292 HD
ENDBRANCH  36  37
BRANCH  35  39
ATOM     39  O   UNL     1       3.939  -0.570   0.216  0.00  0.00    -0.491 OA
ATOM     40  C   UNL     1       3.913  -1.995   0.326  0.00  0.00    +0.277 C 
ENDBRANCH  35  39
ENDBRANCH  29  31
ENDBRANCH  28  29
ENDBRANCH  27  28
ENDBRANCH   2  27
TORSDOF 12
