REMARK  Name = ZINC12859106
REMARK  13 active torsions:
REMARK  status: ('A' for Active; 'I' for Inactive)
REMARK    1  A    between atoms: C_1  and  C_2
REMARK    2  A    between atoms: C_2  and  C_3
REMARK    3  A    between atoms: C_3  and  C_4
REMARK    4  A    between atoms: C_4  and  N_5
REMARK    5  A    between atoms: C_6  and  N_28
REMARK    6  A    between atoms: C_7  and  N_14
REMARK    7  A    between atoms: N_14  and  C_15
REMARK    8  A    between atoms: C_15  and  C_16
REMARK    9  A    between atoms: C_17  and  C_19
REMARK   10  A    between atoms: C_19  and  N_54
REMARK   11  A    between atoms: C_20  and  N_54
REMARK   12  A    between atoms: C_21  and  C_22
REMARK   13  A    between atoms: C_21  and  N_54
REMARK                            x       y       z     vdW  Elec       q    Type
REMARK                         _______ _______ _______ _____ _____    ______ ____
ROOT
ATOM      1  N   UNL     1       6.699  -3.705  -6.556  0.00  0.00    -0.280 N 
ATOM      2  C   UNL     1       6.373  -3.311  -5.279  0.00  0.00    +0.127 A 
ATOM      3  C   UNL     1       7.261  -2.532  -4.567  0.00  0.00    +0.140 A 
ATOM      4  C   UNL     1       8.476  -2.159  -5.174  0.00  0.00    +0.277 A 
ATOM      5  O   UNL     1       9.277  -1.467  -4.569  0.00  0.00    -0.266 OA
ATOM      6  N   UNL     1       8.749  -2.577  -6.425  0.00  0.00    -0.273 N 
ATOM      7  H   UNL     1       9.615  -2.319  -6.854  0.00  0.00    +0.173 HD
ATOM      8  C   UNL     1       7.870  -3.336  -7.104  0.00  0.00    +0.331 A 
ATOM      9  O   UNL     1       8.140  -3.695  -8.235  0.00  0.00    -0.246 OA
ENDROOT
BRANCH   3  10
ATOM     10  N   UNL     1       6.956  -2.112  -3.255  0.00  0.00    -0.266 N 
ATOM     11  C   UNL     1       5.898  -1.304  -3.035  0.00  0.00    +0.203 C 
ATOM     12  O   UNL     1       5.260  -0.871  -3.971  0.00  0.00    -0.277 OA
BRANCH  10  13
ATOM     13  C   UNL     1       7.787  -2.554  -2.132  0.00  0.00    +0.110 C 
ATOM     14  C   UNL     1       7.266  -3.893  -1.608  0.00  0.00    +0.025 C 
ENDBRANCH  10  13
BRANCH  11  15
ATOM     15  C   UNL     1       5.510  -0.939  -1.625  0.00  0.00    +0.019 C 
BRANCH  15  17
ATOM     16  C   UNL     1       4.664   1.236  -2.272  0.00  0.00    -0.095 C 
ATOM     17  N   UNL     1       4.316  -0.068  -1.670  0.00  0.00    +0.387 N 
ATOM     18  H   UNL     1       3.596  -0.520  -2.245  0.00  0.00    -0.081 HD
BRANCH  17  19
ATOM     19  C   UNL     1       3.785   0.131  -0.305  0.00  0.00    -0.035 C 
BRANCH  19  20
ATOM     20  C   UNL     1       2.454   0.832  -0.399  0.00  0.00    -0.026 A 
ATOM     21  C   UNL     1       1.215   0.297  -0.521  0.00  0.00    +0.010 A 
ATOM     22  C   UNL     1       0.123   1.142  -0.591  0.00  0.00    +0.023 A 
ATOM     23  C   UNL     1       0.326   2.482  -0.534  0.00  0.00    +0.055 A 
ATOM     24  S   UNL     1       2.101   2.581  -0.378  0.00  0.00    -0.088 S 
ATOM     25 BR   UNL     1      -0.943   3.882  -0.610  0.00  0.00    -0.043 Br
ENDBRANCH  19  20
ENDBRANCH  17  19
ENDBRANCH  15  17
ENDBRANCH  11  15
ENDBRANCH   3  10
BRANCH   2  26
ATOM     26  N   UNL     1       5.176  -3.689  -4.719  0.00  0.00    -0.343 N 
ATOM     27  H   UNL     1       4.998  -3.504  -3.784  0.00  0.00    +0.144 HD
ATOM     28  H   UNL     1       4.509  -4.142  -5.259  0.00  0.00    +0.144 HD
ENDBRANCH   2  26
BRANCH   1  29
ATOM     29  C   UNL     1       5.764  -4.532  -7.324  0.00  0.00    +0.128 C 
BRANCH  29  30
ATOM     30  C   UNL     1       4.817  -3.629  -8.117  0.00  0.00    +0.021 C 
BRANCH  30  32
ATOM     31  C   UNL     1       2.895  -3.590  -9.713  0.00  0.00    +0.004 C 
ATOM     32  C   UNL     1       3.842  -4.492  -8.919  0.00  0.00    -0.002 C 
ENDBRANCH  30  32
ENDBRANCH  29  30
ENDBRANCH   1  29
TORSDOF 10
