REMARK  Name = ZINC63209075
REMARK  12 active torsions:
REMARK  status: ('A' for Active; 'I' for Inactive)
REMARK    1  A    between atoms: C_1  and  C_2
REMARK    2  A    between atoms: C_3  and  C_33
REMARK    3  A    between atoms: C_4  and  C_32
REMARK    4  A    between atoms: C_7  and  C_8
REMARK    5  A    between atoms: N_10  and  C_11
REMARK    6  A    between atoms: C_11  and  C_12
REMARK    7  A    between atoms: C_12  and  C_14
REMARK    8  A    between atoms: C_12  and  C_23
REMARK    9  A    between atoms: C_17  and  N_20
REMARK   10  A    between atoms: N_20  and  C_21
REMARK   11  A    between atoms: N_20  and  C_22
REMARK   12  A    between atoms: C_33  and  C_35
REMARK                            x       y       z     vdW  Elec       q    Type
REMARK                         _______ _______ _______ _____ _____    ______ ____
ROOT
ATOM      1  C   UNL     1       0.083  -2.141   5.786  0.00  0.00    +0.064 C 
ENDROOT
BRANCH   1   2
ATOM      2  C   UNL     1      -1.201  -2.910   5.611  0.00  0.00    -0.033 C 
ATOM      3  C   UNL     1      -1.331  -4.193   5.201  0.00  0.00    -0.000 A 
ATOM      4  C   UNL     1      -0.354  -5.215   4.810  0.00  0.00    +0.010 A 
ATOM      5  C   UNL     1      -0.796  -6.438   4.437  0.00  0.00    +0.001 A 
ATOM      6  C   UNL     1      -2.162  -6.752   4.416  0.00  0.00    +0.002 A 
ATOM      7  C   UNL     1      -3.120  -5.865   4.762  0.00  0.00    +0.026 A 
ATOM      8  C   UNL     1      -2.767  -4.550   5.170  0.00  0.00    +0.043 A 
ATOM      9  N   UNL     1      -3.497  -3.527   5.546  0.00  0.00    -0.380 N 
ATOM     10  C   UNL     1      -2.605  -2.407   5.864  0.00  0.00    +0.145 C 
ATOM     11  H   UNL     1      -4.465  -3.515   5.608  0.00  0.00    +0.160 HD
ENDBRANCH   1   2
BRANCH   1  12
ATOM     12  C   UNL     1       0.213  -1.700   7.221  0.00  0.00    -0.039 A 
ATOM     13  C   UNL     1      -0.752  -0.884   7.782  0.00  0.00    +0.006 A 
ATOM     14  C   UNL     1      -0.635  -0.479   9.098  0.00  0.00    +0.023 A 
ATOM     15  C   UNL     1       0.452  -0.892   9.856  0.00  0.00    +0.029 A 
ATOM     16  C   UNL     1       1.419  -1.712   9.289  0.00  0.00    +0.023 A 
ATOM     17  C   UNL     1       1.294  -2.119   7.975  0.00  0.00    +0.006 A 
BRANCH  15  18
ATOM     18  N   UNL     1       0.573  -0.484  11.187  0.00  0.00    -0.336 N 
ATOM     19  C   UNL     1      -0.502   0.285  11.817  0.00  0.00    +0.129 C 
ATOM     20  C   UNL     1       1.776  -0.825  11.951  0.00  0.00    +0.129 C 
ENDBRANCH  15  18
ENDBRANCH   1  12
BRANCH   1  21
ATOM     21  C   UNL     1       0.069  -0.912   4.874  0.00  0.00    +0.117 C 
BRANCH  21  24
ATOM     22  C   UNL     1       0.050  -0.424   2.487  0.00  0.00    +0.261 C 
ATOM     23  O   UNL     1       0.044   0.762   2.759  0.00  0.00    -0.269 OA
ATOM     24  N   UNL     1       0.062  -1.342   3.474  0.00  0.00    -0.309 N 
ATOM     25  H   UNL     1       0.067  -2.288   3.257  0.00  0.00    +0.149 HD
BRANCH  22  32
ATOM     26  C   UNL     1       0.021   1.473   0.013  0.00  0.00    +0.047 C 
ATOM     27  C   UNL     1       0.031  -0.034  -0.003  0.00  0.00    -0.010 A 
ATOM     28  C   UNL     1       0.035  -0.864  -1.150  0.00  0.00    +0.041 A 
ATOM     29  C   UNL     1       0.044  -2.175  -0.700  0.00  0.00    +0.024 A 
ATOM     30  N   UNL     1       0.046  -2.161   0.641  0.00  0.00    -0.354 N 
ATOM     31  H   UNL     1       0.052  -2.946   1.210  0.00  0.00    +0.166 HD
ATOM     32  C   UNL     1       0.043  -0.856   1.083  0.00  0.00    +0.106 A 
ATOM     33  C   UNL     1       0.051  -3.406  -1.570  0.00  0.00    +0.064 C 
BRANCH  28  34
ATOM     34  C   UNL     1       0.030  -0.421  -2.547  0.00  0.00    +0.162 C 
ATOM     35  O   UNL     1      -1.018  -0.331  -3.151  0.00  0.00    -0.292 OA
ATOM     36  C   UNL     1       1.327  -0.077  -3.233  0.00  0.00    +0.091 C 
ENDBRANCH  28  34
ENDBRANCH  22  32
ENDBRANCH  21  24
ENDBRANCH   1  21
TORSDOF 7
