REMARK  Name = ZINC03222457
REMARK  4 active torsions:
REMARK  status: ('A' for Active; 'I' for Inactive)
REMARK    1  A    between atoms: C_4  and  C_7
REMARK    2  A    between atoms: C_10  and  N_18
REMARK    3  A    between atoms: N_18  and  N_19
REMARK    4  A    between atoms: C_20  and  C_22
REMARK                            x       y       z     vdW  Elec       q    Type
REMARK                         _______ _______ _______ _____ _____    ______ ____
ROOT
ATOM      1  C   UNL     1      -0.018   1.503   0.010  0.00  0.00    +0.229 C 
ATOM      2  C   UNL     1       1.397   2.019  -0.000  0.00  0.00    +0.047 C 
ATOM      3  C   UNL     1       2.020   2.235  -1.167  0.00  0.00    +0.055 C 
ATOM      4  C   UNL     1       1.269   1.963  -2.415  0.00  0.00    +0.039 A 
ATOM      5  C   UNL     1       1.917   1.833  -3.638  0.00  0.00    +0.013 A 
ATOM      6  C   UNL     1       1.177   1.580  -4.777  0.00  0.00    +0.001 A 
ATOM      7  C   UNL     1      -0.200   1.456  -4.703  0.00  0.00    +0.004 A 
ATOM      8  C   UNL     1      -0.852   1.584  -3.490  0.00  0.00    +0.046 A 
ATOM      9  C   UNL     1      -0.125   1.838  -2.341  0.00  0.00    +0.131 A 
ATOM     10  O   UNL     1      -0.732   1.970  -1.135  0.00  0.00    -0.479 OA
ENDROOT
BRANCH   1  14
ATOM     11  C   UNL     1       0.039  -2.768  -0.013  0.00  0.00    +0.000 A 
ATOM     12  C   UNL     1      -0.166  -2.087   1.171  0.00  0.00    +0.000 A 
ATOM     13  C   UNL     1      -0.185  -0.704   1.179  0.00  0.00    +0.007 A 
ATOM     14  C   UNL     1       0.002  -0.004   0.002  0.00  0.00    -0.003 A 
ATOM     15  C   UNL     1       0.202  -0.686  -1.184  0.00  0.00    +0.007 A 
ATOM     16  C   UNL     1       0.226  -2.068  -1.190  0.00  0.00    +0.000 A 
ENDBRANCH   1  14
BRANCH   3  17
ATOM     17  N   UNL     1       3.334   2.700  -1.204  0.00  0.00    -0.264 N 
ATOM     18  H   UNL     1       3.771   2.852  -2.057  0.00  0.00    +0.170 HD
BRANCH  17  19
ATOM     19  N   UNL     1       4.024   2.950  -0.010  0.00  0.00    -0.231 N 
ATOM     20  C   UNL     1       5.293   3.400  -0.047  0.00  0.00    +0.278 C 
ATOM     21  O   UNL     1       5.841   3.589  -1.115  0.00  0.00    -0.267 OA
ATOM     22  H   UNL     1       3.587   2.799   0.843  0.00  0.00    +0.173 HD
BRANCH  20  23
ATOM     23  C   UNL     1       6.023   3.663   1.216  0.00  0.00    +0.127 A 
ATOM     24  C   UNL     1       7.335   4.128   1.171  0.00  0.00    +0.033 A 
ATOM     25  C   UNL     1       8.004   4.371   2.361  0.00  0.00    +0.004 A 
ATOM     26  C   UNL     1       7.337   4.139   3.554  0.00  0.00    +0.020 A 
ATOM     27  C   UNL     1       6.031   3.677   3.523  0.00  0.00    +0.111 A 
ATOM     28  N   UNL     1       5.418   3.460   2.380  0.00  0.00    -0.250 NA
ENDBRANCH  20  23
ENDBRANCH  17  19
ENDBRANCH   3  17
TORSDOF 4
