REMARK  Name = ZINC64181863
REMARK  9 active torsions:
REMARK  status: ('A' for Active; 'I' for Inactive)
REMARK    1  A    between atoms: C_1  and  C_2
REMARK    2  A    between atoms: C_4  and  C_12
REMARK    3  A    between atoms: C_12  and  C_14
REMARK    4  A    between atoms: C_14  and  C_16
REMARK    5  A    between atoms: C_14  and  O_17
REMARK    6  A    between atoms: O_17  and  C_18
REMARK    7  A    between atoms: C_18  and  C_20
REMARK    8  A    between atoms: C_20  and  C_21
REMARK    9  A    between atoms: C_21  and  N_22
REMARK                            x       y       z     vdW  Elec       q    Type
REMARK                         _______ _______ _______ _____ _____    ______ ____
ROOT
ATOM      1  O   UNL     1      -4.366  -1.158  -2.065  0.00  0.00    -0.454 OA
ENDROOT
BRANCH   1   2
ATOM      2  C   UNL     1      -3.750  -1.043  -0.781  0.00  0.00    +0.244 C 
ATOM      3  C   UNL     1      -4.663  -0.245   0.153  0.00  0.00    +0.061 C 
BRANCH   2   4
ATOM      4  C   UNL     1      -2.428  -0.333  -0.919  0.00  0.00    +0.202 C 
ATOM      5  O   UNL     1      -2.204   0.348  -1.899  0.00  0.00    -0.288 OA
BRANCH   4   8
ATOM      6  C   UNL     1      -0.141   1.664   0.033  0.00  0.00    +0.035 C 
ATOM      7  C   UNL     1      -0.060   0.137   0.098  0.00  0.00    +0.111 C 
ATOM      8  C   UNL     1      -1.451  -0.458   0.091  0.00  0.00    +0.030 C 
ATOM      9  C   UNL     1      -1.564  -1.153   1.283  0.00  0.00    +0.007 A 
ATOM     10  C   UNL     1      -2.608  -1.914   1.858  0.00  0.00    +0.010 A 
ATOM     11  C   UNL     1      -2.442  -2.495   3.067  0.00  0.00    +0.001 A 
ATOM     12  C   UNL     1      -1.251  -2.380   3.801  0.00  0.00    +0.002 A 
ATOM     13  C   UNL     1      -0.193  -1.676   3.342  0.00  0.00    +0.026 A 
ATOM     14  C   UNL     1      -0.291  -1.010   2.032  0.00  0.00    +0.043 A 
ATOM     15  N   UNL     1       0.556  -0.282   1.361  0.00  0.00    -0.377 N 
ATOM     16  H   UNL     1       1.454  -0.053   1.650  0.00  0.00    +0.160 HD
ENDBRANCH   4   8
ENDBRANCH   2   4
ENDBRANCH   1   2
BRANCH   1  17
ATOM     17  C   UNL     1      -5.161  -2.220  -2.268  0.00  0.00    +0.309 C 
ATOM     18  O   UNL     1      -5.329  -3.026  -1.383  0.00  0.00    -0.251 OA
BRANCH  17  19
ATOM     19  C   UNL     1      -5.844  -2.407  -3.598  0.00  0.00    +0.139 C 
BRANCH  19  20
ATOM     20  C   UNL     1      -6.684  -3.686  -3.564  0.00  0.00    +0.121 C 
BRANCH  20  21
ATOM     21  N   UNL     1      -7.349  -3.868  -4.856  0.00  0.00    -0.281 N 
ATOM     22  C   UNL     1      -8.669  -3.275  -5.046  0.00  0.00    +0.213 C 
ATOM     23  N   UNL     1      -8.867  -2.847  -6.442  0.00  0.00    -0.322 N 
ATOM     24  C   UNL     1      -8.344  -3.660  -7.419  0.00  0.00    +0.079 A 
ATOM     25  C   UNL     1      -7.272  -4.533  -7.180  0.00  0.00    +0.065 A 
ATOM     26  C   UNL     1      -6.846  -5.304  -8.325  0.00  0.00    +0.022 A 
ATOM     27  C   UNL     1      -7.526  -5.098  -9.470  0.00  0.00    +0.048 A 
ATOM     28  S   UNL     1      -8.736  -3.871  -9.016  0.00  0.00    -0.081 S 
ATOM     29  C   UNL     1      -6.707  -4.571  -5.813  0.00  0.00    +0.250 C 
ATOM     30  O   UNL     1      -5.704  -5.213  -5.561  0.00  0.00    -0.270 OA
ATOM     31  H   UNL     1      -9.345  -2.032  -6.662  0.00  0.00    +0.148 HD
ENDBRANCH  20  21
ENDBRANCH  19  20
ENDBRANCH  17  19
ENDBRANCH   1  17
TORSDOF 7
