REMARK  Name = ZINC20680258
REMARK  6 active torsions:
REMARK  status: ('A' for Active; 'I' for Inactive)
REMARK    1  A    between atoms: C_3  and  O_34
REMARK    2  A    between atoms: C_6  and  C_7
REMARK    3  A    between atoms: C_18  and  S_23
REMARK    4  A    between atoms: S_23  and  N_26
REMARK    5  A    between atoms: N_26  and  C_27
REMARK    6  A    between atoms: C_27  and  C_28
REMARK                            x       y       z     vdW  Elec       q    Type
REMARK                         _______ _______ _______ _____ _____    ______ ____
ROOT
ATOM      1  C   UNL     1       2.318   4.168   6.355  0.00  0.00    +0.105 C 
ATOM      2  C   UNL     1       2.045   2.711   6.680  0.00  0.00    +0.029 C 
ATOM      3  C   UNL     1       2.681   2.146   7.957  0.00  0.00    +0.033 C 
ATOM      4  C   UNL     1       2.853   0.671   7.588  0.00  0.00    -0.030 C 
ATOM      5  C   UNL     1       2.948   0.541   6.270  0.00  0.00    -0.023 C 
ATOM      6  C   UNL     1       2.884   1.891   5.654  0.00  0.00    +0.049 C 
ATOM      7  C   UNL     1       2.301   2.111   4.313  0.00  0.00    -0.018 A 
ATOM      8  C   UNL     1       2.281   1.130   3.345  0.00  0.00    +0.034 A 
ATOM      9  C   UNL     1       1.741   1.390   2.099  0.00  0.00    +0.106 A 
ATOM     10  C   UNL     1       1.227   2.643   1.816  0.00  0.00    +0.030 A 
ATOM     11  C   UNL     1       1.237   3.630   2.780  0.00  0.00    +0.025 A 
ATOM     12  C   UNL     1       1.770   3.377   4.039  0.00  0.00    +0.031 A 
ATOM     13  N   UNL     1       1.752   4.388   5.006  0.00  0.00    -0.336 N 
ATOM     14  H   UNL     1       1.307   5.361   4.749  0.00  0.00    +0.147 HD
ENDROOT
BRANCH   1  20
ATOM     15  C   UNL     1       4.444   4.795   7.518  0.00  0.00    +0.009 A 
ATOM     16  C   UNL     1       5.805   5.031   7.516  0.00  0.00    +0.046 A 
ATOM     17  C   UNL     1       6.527   4.911   6.338  0.00  0.00    +0.117 A 
ATOM     18  C   UNL     1       5.880   4.551   5.164  0.00  0.00    +0.046 A 
ATOM     19  C   UNL     1       4.519   4.311   5.173  0.00  0.00    +0.009 A 
ATOM     20  C   UNL     1       3.803   4.430   6.349  0.00  0.00    -0.027 A 
BRANCH  17  21
ATOM     21  O   UNL     1       7.865   5.148   6.332  0.00  0.00    -0.507 OA
ATOM     22  H   UNL     1       8.436   5.053   5.397  0.00  0.00    +0.292 HD
ENDBRANCH  17  21
ENDBRANCH   1  20
BRANCH   9  23
ATOM     23  S   UNL     1       1.713   0.128   0.870  0.00  0.00    +0.058 S 
ATOM     24  O   UNL     1       2.751  -0.784   1.201  0.00  0.00    -0.153 OA
ATOM     25  O   UNL     1       1.650   0.787  -0.387  0.00  0.00    -0.153 OA
BRANCH  23  26
ATOM     26  N   UNL     1       0.287  -0.695   1.045  0.00  0.00    -0.187 NA
ATOM     27  H   UNL     1       0.295  -1.693   1.507  0.00  0.00    +0.148 HD
BRANCH  26  28
ATOM     28  C   UNL     1      -0.987  -0.016   0.792  0.00  0.00    +0.137 C 
BRANCH  28  29
ATOM     29  C   UNL     1      -2.099  -1.056   0.648  0.00  0.00    +0.134 C 
ATOM     30  C   UNL     1      -3.423  -0.357   0.268  0.00  0.00    +0.035 C 
ATOM     31  C   UNL     1      -4.465  -1.151   1.102  0.00  0.00    +0.031 C 
ATOM     32  C   UNL     1      -3.640  -1.478   2.371  0.00  0.00    +0.160 C 
ATOM     33  O   UNL     1      -2.306  -1.723   1.899  0.00  0.00    -0.375 OA
ENDBRANCH  28  29
ENDBRANCH  26  28
ENDBRANCH  23  26
ENDBRANCH   9  23
TORSDOF 6
