REMARK  Name = ZINC04089782
REMARK  3 active torsions:
REMARK  status: ('A' for Active; 'I' for Inactive)
REMARK    1  A    between atoms: C_11  and  C_19
REMARK    2  A    between atoms: C_13  and  C_17
REMARK    3  A    between atoms: C_14  and  N_16
REMARK                            x       y       z     vdW  Elec       q    Type
REMARK                         _______ _______ _______ _____ _____    ______ ____
ROOT
ATOM      1  C   UNL     1      -0.016   1.357   0.009  0.00  0.00    +0.001 A 
ATOM      2  C   UNL     1       1.169   2.091   0.002  0.00  0.00    +0.001 A 
ATOM      3  C   UNL     1       2.378   1.468  -0.013  0.00  0.00    +0.008 A 
ATOM      4  C   UNL     1       2.437   0.063  -0.020  0.00  0.00    -0.014 A 
ATOM      5  C   UNL     1       3.665  -0.615  -0.035  0.00  0.00    +0.055 A 
ATOM      6  C   UNL     1       3.690  -1.984  -0.040  0.00  0.00    +0.135 A 
ATOM      7  C   UNL     1       2.499  -2.718  -0.032  0.00  0.00    +0.009 A 
ATOM      8  C   UNL     1       1.292  -2.086  -0.020  0.00  0.00    +0.016 A 
ATOM      9  C   UNL     1       1.232  -0.683  -0.013  0.00  0.00    -0.017 A 
ATOM     10  C   UNL     1       0.002  -0.004   0.002  0.00  0.00    +0.008 A 
ATOM     11  C   UNL     1       2.533  -4.225  -0.036  0.00  0.00    +0.105 C 
ATOM     12  C   UNL     1       3.889  -4.713  -0.459  0.00  0.00    +0.098 C 
ATOM     13  C   UNL     1       4.970  -3.898  -0.443  0.00  0.00    +0.199 C 
ATOM     14  O   UNL     1       4.891  -2.616  -0.053  0.00  0.00    -0.441 OA
ENDROOT
BRANCH  11  15
ATOM     15  C   UNL     1       2.232  -4.734   1.350  0.00  0.00    +0.002 A 
ATOM     16  C   UNL     1       1.225  -5.542   1.762  0.00  0.00    +0.012 A 
ATOM     17  C   UNL     1       1.145  -5.885   3.099  0.00  0.00    +0.008 A 
ATOM     18  C   UNL     1       2.076  -5.402   3.958  0.00  0.00    +0.045 A 
ATOM     19  S   UNL     1       3.114  -4.437   2.873  0.00  0.00    -0.101 S 
ENDBRANCH  11  15
BRANCH  13  20
ATOM     20  N   UNL     1       6.185  -4.398  -0.840  0.00  0.00    -0.328 N 
ATOM     21  H   UNL     1       6.260  -5.322  -1.125  0.00  0.00    +0.145 HD
ATOM     22  H   UNL     1       6.970  -3.828  -0.835  0.00  0.00    +0.145 HD
ENDBRANCH  13  20
BRANCH  12  23
ATOM     23  C   UNL     1       4.042  -6.071  -0.887  0.00  0.00    +0.101 C 
ATOM     24  N   UNL     1       4.164  -7.148  -1.227  0.00  0.00    -0.191 NA
ENDBRANCH  12  23
TORSDOF 3
