REMARK  Name = ZINC18286168
REMARK  4 active torsions:
REMARK  status: ('A' for Active; 'I' for Inactive)
REMARK    1  A    between atoms: C_5  and  N_7
REMARK    2  A    between atoms: C_11  and  N_15
REMARK    3  A    between atoms: C_18  and  C_21
REMARK    4  A    between atoms: C_18  and  N_24
REMARK                            x       y       z     vdW  Elec       q    Type
REMARK                         _______ _______ _______ _____ _____    ______ ____
ROOT
ATOM      1  N   UNL     1       0.376  -5.225  -1.284  0.00  0.00    -0.291 NA
ATOM      2  C   UNL     1       0.108  -6.575  -0.773  0.00  0.00    +0.084 C 
ATOM      3  C   UNL     1      -1.315  -6.992  -1.151  0.00  0.00    +0.013 C 
ATOM      4  C   UNL     1      -1.463  -6.964  -2.675  0.00  0.00    +0.015 C 
ATOM      5  C   UNL     1      -1.131  -5.559  -3.186  0.00  0.00    +0.013 C 
ATOM      6  C   UNL     1       0.287  -5.184  -2.749  0.00  0.00    +0.084 C 
ENDROOT
BRANCH   1  11
ATOM      7  N   UNL     1       2.001  -2.583  -0.001  0.00  0.00    -0.208 N 
ATOM      8  C   UNL     1       1.970  -3.336   1.106  0.00  0.00    +0.228 C 
ATOM      9  O   UNL     1       2.088  -2.923   2.239  0.00  0.00    -0.275 OA
ATOM     10  C   UNL     1       1.766  -4.784   0.717  0.00  0.00    +0.125 C 
ATOM     11  C   UNL     1       1.682  -4.737  -0.822  0.00  0.00    +0.153 C 
ATOM     12  C   UNL     1       1.843  -3.267  -1.141  0.00  0.00    +0.244 C 
ATOM     13  O   UNL     1       1.833  -2.784  -2.253  0.00  0.00    -0.273 OA
BRANCH   7  18
ATOM     14  C   UNL     1       1.254   1.017   0.154  0.00  0.00    +0.002 A 
ATOM     15  C   UNL     1       2.527   1.552   0.096  0.00  0.00    +0.002 A 
ATOM     16  C   UNL     1       3.627   0.720   0.005  0.00  0.00    +0.022 A 
ATOM     17  C   UNL     1       3.456  -0.652  -0.027  0.00  0.00    +0.063 A 
ATOM     18  C   UNL     1       2.178  -1.192   0.032  0.00  0.00    +0.062 A 
ATOM     19  C   UNL     1       1.076  -0.353   0.123  0.00  0.00    +0.025 A 
ATOM     20 CL   UNL     1       4.838  -1.697  -0.142  0.00  0.00    -0.082 Cl
ENDBRANCH   7  18
ENDBRANCH   1  11
BRANCH   4  21
ATOM     21  N   UNL     1      -2.843  -7.306  -3.042  0.00  0.00    +0.389 N 
ATOM     22  C   UNL     1      -3.162  -8.649  -2.542  0.00  0.00    -0.077 C 
ATOM     23  C   UNL     1      -4.624  -8.979  -2.850  0.00  0.00    -0.019 C 
ATOM     24  C   UNL     1      -4.844  -8.930  -4.365  0.00  0.00    -0.004 C 
ATOM     25  C   UNL     1      -4.439  -7.548  -4.886  0.00  0.00    -0.019 C 
ATOM     26  C   UNL     1      -2.983  -7.272  -4.502  0.00  0.00    -0.077 C 
ATOM     27  H   UNL     1      -3.476  -6.637  -2.628  0.00  0.00    -0.080 HD
ENDBRANCH   4  21
BRANCH   4  28
ATOM     28  C   UNL     1      -0.515  -7.960  -3.291  0.00  0.00    +0.200 C 
ATOM     29  O   UNL     1       0.017  -8.800  -2.597  0.00  0.00    -0.278 OA
ATOM     30  N   UNL     1      -0.258  -7.918  -4.614  0.00  0.00    -0.330 N 
ATOM     31  H   UNL     1      -0.623  -7.200  -5.156  0.00  0.00    +0.145 HD
ATOM     32  H   UNL     1       0.290  -8.605  -5.024  0.00  0.00    +0.145 HD
ENDBRANCH   4  28
TORSDOF 4
