REMARK  Name = ZINC63480111
REMARK  5 active torsions:
REMARK  status: ('A' for Active; 'I' for Inactive)
REMARK    1  A    between atoms: C_1  and  C_2
REMARK    2  A    between atoms: C_4  and  C_40
REMARK    3  A    between atoms: C_6  and  N_8
REMARK    4  A    between atoms: C_13  and  C_30
REMARK    5  A    between atoms: C_30  and  C_31
REMARK                            x       y       z     vdW  Elec       q    Type
REMARK                         _______ _______ _______ _____ _____    ______ ____
ROOT
ATOM      1  N   UNL     1       0.050  -2.798   2.395  0.00  0.00    -0.210 N 
ATOM      2  C   UNL     1      -0.025  -4.133   2.452  0.00  0.00    +0.232 C 
ATOM      3  O   UNL     1      -0.112  -4.870   1.494  0.00  0.00    -0.274 OA
ATOM      4  C   UNL     1       0.014  -4.578   3.897  0.00  0.00    +0.107 C 
ATOM      5  C   UNL     1      -1.363  -5.160   4.283  0.00  0.00    +0.072 C 
ATOM      6  N   UNL     1      -1.682  -4.544   5.598  0.00  0.00    -0.295 NA
ATOM      7  C   UNL     1      -1.194  -3.158   5.476  0.00  0.00    +0.136 C 
ATOM      8  C   UNL     1       0.132  -3.240   4.680  0.00  0.00    +0.123 C 
ATOM      9  C   UNL     1       0.146  -2.196   3.587  0.00  0.00    +0.233 C 
ATOM     10  O   UNL     1       0.229  -1.000   3.762  0.00  0.00    -0.274 OA
ATOM     11  C   UNL     1      -0.984  -2.528   6.823  0.00  0.00    +0.003 A 
ATOM     12  C   UNL     1      -0.195  -2.846   7.906  0.00  0.00    +0.008 A 
ATOM     13  C   UNL     1      -0.220  -2.051   9.038  0.00  0.00    +0.000 A 
ATOM     14  C   UNL     1      -1.039  -0.938   9.080  0.00  0.00    +0.002 A 
ATOM     15  C   UNL     1      -1.830  -0.615   7.997  0.00  0.00    +0.023 A 
ATOM     16  C   UNL     1      -1.812  -1.409   6.853  0.00  0.00    +0.039 A 
ATOM     17  N   UNL     1      -2.509  -1.292   5.649  0.00  0.00    -0.283 N 
ATOM     18  C   UNL     1      -2.203  -2.280   4.787  0.00  0.00    +0.243 C 
ATOM     19  O   UNL     1      -2.654  -2.433   3.671  0.00  0.00    -0.273 OA
ATOM     20  H   UNL     1      -2.675  -4.564   5.775  0.00  0.00    +0.124 HD
ATOM     21  H   UNL     1      -3.140  -0.581   5.456  0.00  0.00    +0.155 HD
ENDROOT
BRANCH   1  27
ATOM     22  C   UNL     1       2.381   0.038  -0.878  0.00  0.00    +0.044 C 
ATOM     23  C   UNL     1       1.151  -0.705  -0.423  0.00  0.00    -0.048 A 
ATOM     24  C   UNL     1       0.007  -0.687  -1.199  0.00  0.00    +0.006 A 
ATOM     25  C   UNL     1      -1.124  -1.368  -0.785  0.00  0.00    -0.048 A 
ATOM     26  C   UNL     1      -1.112  -2.068   0.406  0.00  0.00    +0.027 A 
ATOM     27  C   UNL     1       0.035  -2.088   1.186  0.00  0.00    +0.044 A 
ATOM     28  C   UNL     1       1.171  -1.409   0.765  0.00  0.00    +0.027 A 
ATOM     29  C   UNL     1      -2.369  -1.345  -1.633  0.00  0.00    +0.044 C 
ENDBRANCH   1  27
BRANCH   5  30
ATOM     30  C   UNL     1      -1.280  -6.683   4.412  0.00  0.00    +0.052 C 
BRANCH  30  31
ATOM     31  C   UNL     1      -2.656  -7.241   4.668  0.00  0.00    -0.040 C 
ATOM     32  C   UNL     1      -3.518  -7.733   3.749  0.00  0.00    -0.001 A 
ATOM     33  C   UNL     1      -3.436  -7.888   2.292  0.00  0.00    +0.010 A 
ATOM     34  C   UNL     1      -4.485  -8.426   1.629  0.00  0.00    +0.001 A 
ATOM     35  C   UNL     1      -5.646  -8.837   2.298  0.00  0.00    +0.002 A 
ATOM     36  C   UNL     1      -5.796  -8.727   3.635  0.00  0.00    +0.026 A 
ATOM     37  C   UNL     1      -4.755  -8.176   4.431  0.00  0.00    +0.043 A 
ATOM     38  N   UNL     1      -4.661  -7.966   5.722  0.00  0.00    -0.380 N 
ATOM     39  C   UNL     1      -3.350  -7.371   6.005  0.00  0.00    +0.144 C 
ATOM     40  H   UNL     1      -5.342  -8.173   6.380  0.00  0.00    +0.160 HD
ENDBRANCH  30  31
ENDBRANCH   5  30
TORSDOF 3
