REMARK  Name = ZINC16819438
REMARK  13 active torsions:
REMARK  status: ('A' for Active; 'I' for Inactive)
REMARK    1  A    between atoms: C_1  and  C_2
REMARK    2  A    between atoms: C_2  and  C_4
REMARK    3  A    between atoms: C_2  and  O_15
REMARK    4  A    between atoms: N_6  and  C_7
REMARK    5  A    between atoms: C_8  and  C_12
REMARK    6  A    between atoms: O_15  and  C_16
REMARK    7  A    between atoms: C_16  and  C_18
REMARK    8  A    between atoms: C_18  and  C_20
REMARK    9  A    between atoms: C_18  and  N_24
REMARK   10  A    between atoms: C_20  and  C_21
REMARK   11  A    between atoms: C_21  and  S_22
REMARK   12  A    between atoms: S_22  and  C_23
REMARK   13  A    between atoms: C_25  and  C_27
REMARK                            x       y       z     vdW  Elec       q    Type
REMARK                         _______ _______ _______ _____ _____    ______ ____
ROOT
ATOM      1  C   UNL     1       2.768  -3.815   0.691  0.00  0.00    +0.328 C 
ATOM      2  O   UNL     1       1.826  -4.439   1.122  0.00  0.00    -0.249 OA
ENDROOT
BRANCH   1   3
ATOM      3  O   UNL     1       2.570  -2.635   0.084  0.00  0.00    -0.451 OA
BRANCH   3   5
ATOM      4  C   UNL     1       0.584  -2.680  -1.325  0.00  0.00    +0.062 C 
ATOM      5  C   UNL     1       1.199  -2.169  -0.021  0.00  0.00    +0.259 C 
BRANCH   5   6
ATOM      6  C   UNL     1       1.178  -0.662  -0.012  0.00  0.00    +0.258 C 
ATOM      7  O   UNL     1       2.220  -0.041  -0.018  0.00  0.00    -0.271 OA
ATOM      8  N   UNL     1       0.002  -0.004   0.002  0.00  0.00    -0.276 N 
ATOM      9  H   UNL     1      -0.831  -0.500   0.007  0.00  0.00    +0.155 HD
BRANCH   8  10
ATOM     10  C   UNL     1      -0.017   1.382   0.010  0.00  0.00    +0.084 A 
ATOM     11  C   UNL     1      -1.117   2.231   0.019  0.00  0.00    +0.065 A 
ATOM     12  C   UNL     1      -0.845   3.648   0.029  0.00  0.00    +0.022 A 
ATOM     13  C   UNL     1       0.447   4.025   0.019  0.00  0.00    +0.048 A 
ATOM     14  S   UNL     1       1.325   2.476   0.003  0.00  0.00    -0.081 S 
BRANCH  11  15
ATOM     15  C   UNL     1      -2.489   1.712   0.021  0.00  0.00    +0.244 C 
ATOM     16  O   UNL     1      -2.685   0.510   0.015  0.00  0.00    -0.270 OA
ATOM     17  N   UNL     1      -3.532   2.565   0.030  0.00  0.00    -0.325 N 
ATOM     18  H   UNL     1      -3.376   3.522   0.034  0.00  0.00    +0.145 HD
ATOM     19  H   UNL     1      -4.439   2.221   0.032  0.00  0.00    +0.145 HD
ENDBRANCH  11  15
ENDBRANCH   8  10
ENDBRANCH   5   6
ENDBRANCH   3   5
ENDBRANCH   1   3
BRANCH   1  20
ATOM     20  C   UNL     1       4.164  -4.363   0.837  0.00  0.00    +0.183 C 
BRANCH  20  21
ATOM     21  N   UNL     1       4.113  -5.653   1.529  0.00  0.00    -0.298 N 
ATOM     22  C   UNL     1       5.096  -6.556   1.345  0.00  0.00    +0.246 C 
ATOM     23  O   UNL     1       6.026  -6.300   0.605  0.00  0.00    -0.270 OA
ATOM     24  H   UNL     1       3.371  -5.858   2.119  0.00  0.00    +0.150 HD
BRANCH  22  25
ATOM     25  C   UNL     1       5.045  -7.858   2.043  0.00  0.00    +0.055 A 
ATOM     26  C   UNL     1       3.981  -8.153   2.898  0.00  0.00    +0.014 A 
ATOM     27  C   UNL     1       3.936  -9.372   3.542  0.00  0.00    +0.001 A 
ATOM     28  C   UNL     1       4.947 -10.297   3.352  0.00  0.00    +0.001 A 
ATOM     29  C   UNL     1       6.007 -10.010   2.511  0.00  0.00    +0.021 A 
ATOM     30  C   UNL     1       6.062  -8.796   1.855  0.00  0.00    +0.053 A 
ATOM     31 CL   UNL     1       7.394  -8.436   0.800  0.00  0.00    -0.083 Cl
ENDBRANCH  22  25
ENDBRANCH  20  21
BRANCH  20  32
ATOM     32  C   UNL     1       5.015  -3.383   1.647  0.00  0.00    +0.044 C 
BRANCH  32  33
ATOM     33  C   UNL     1       6.462  -3.878   1.689  0.00  0.00    +0.071 C 
BRANCH  33  34
ATOM     34  S   UNL     1       7.471  -2.716   2.650  0.00  0.00    -0.164 S 
ATOM     35  C   UNL     1       9.134  -3.437   2.604  0.00  0.00    +0.084 C 
ENDBRANCH  33  34
ENDBRANCH  32  33
ENDBRANCH  20  32
ENDBRANCH   1  20
TORSDOF 11
