REMARK  Name = ZINC59829687
REMARK  8 active torsions:
REMARK  status: ('A' for Active; 'I' for Inactive)
REMARK    1  A    between atoms: C_1  and  C_2
REMARK    2  A    between atoms: C_2  and  C_20
REMARK    3  A    between atoms: N_3  and  N_4
REMARK    4  A    between atoms: C_8  and  S_11
REMARK    5  A    between atoms: N_9  and  N_10
REMARK    6  A    between atoms: S_11  and  C_12
REMARK    7  A    between atoms: C_12  and  C_13
REMARK    8  A    between atoms: C_25  and  O_26
REMARK                            x       y       z     vdW  Elec       q    Type
REMARK                         _______ _______ _______ _____ _____    ______ ____
ROOT
ATOM      1  N   UNL     1       0.024   0.035   2.340  0.00  0.00    -0.204 N 
ATOM      2  C   UNL     1       0.045  -0.665   3.538  0.00  0.00    +0.254 A 
ATOM      3  N   UNL     1       0.069  -1.970   3.668  0.00  0.00    -0.109 NA
ATOM      4  N   UNL     1       0.084  -2.268   5.036  0.00  0.00    -0.119 NA
ATOM      5  C   UNL     1       0.068  -1.136   5.698  0.00  0.00    +0.210 A 
ATOM      6  N   UNL     1       0.049  -0.116   4.790  0.00  0.00    -0.211 N 
ATOM      7  H   UNL     1       0.011   1.004   2.345  0.00  0.00    +0.178 HD
ENDROOT
BRANCH   1  10
ATOM      8  C   UNL     1      -0.018   1.503   0.010  0.00  0.00    +0.068 C 
ATOM      9  C   UNL     1       0.002  -0.004   0.002  0.00  0.00    +0.067 C 
ATOM     10  N   UNL     1       0.022  -0.659   1.123  0.00  0.00    -0.184 NA
BRANCH   9  11
ATOM     11  C   UNL     1      -0.000  -0.734  -1.278  0.00  0.00    +0.039 A 
ATOM     12  C   UNL     1      -0.015  -0.033  -2.486  0.00  0.00    +0.013 A 
ATOM     13  C   UNL     1      -0.017  -0.722  -3.681  0.00  0.00    +0.001 A 
ATOM     14  C   UNL     1      -0.005  -2.107  -3.688  0.00  0.00    +0.004 A 
ATOM     15  C   UNL     1       0.010  -2.812  -2.499  0.00  0.00    +0.046 A 
ATOM     16  C   UNL     1       0.019  -2.135  -1.290  0.00  0.00    +0.126 A 
BRANCH  16  17
ATOM     17  O   UNL     1       0.040  -2.827  -0.122  0.00  0.00    -0.506 OA
ATOM     18  H   UNL     1      -0.837  -3.040   0.225  0.00  0.00    +0.292 HD
ENDBRANCH  16  17
ENDBRANCH   9  11
ENDBRANCH   1  10
BRANCH   6  19
ATOM     19  N   UNL     1       0.034   1.218   5.081  0.00  0.00    -0.294 N 
ATOM     20  H   UNL     1      -0.912   1.559   5.167  0.00  0.00    +0.163 HD
ATOM     21  H   UNL     1       0.565   1.412   5.917  0.00  0.00    +0.163 HD
ENDBRANCH   6  19
BRANCH   5  22
ATOM     22  S   UNL     1       0.075  -0.961   7.452  0.00  0.00    -0.080 S 
BRANCH  22  23
ATOM     23  C   UNL     1       0.111  -2.669   8.063  0.00  0.00    +0.112 C 
BRANCH  23  24
ATOM     24  C   UNL     1       0.120  -2.663   9.570  0.00  0.00    -0.036 A 
ATOM     25  C   UNL     1       1.321  -2.633  10.253  0.00  0.00    +0.004 A 
ATOM     26  C   UNL     1       1.331  -2.627  11.636  0.00  0.00    +0.001 A 
ATOM     27  C   UNL     1       0.139  -2.652  12.335  0.00  0.00    +0.015 A 
ATOM     28  C   UNL     1      -1.063  -2.682  11.652  0.00  0.00    +0.018 A 
ATOM     29  C   UNL     1      -1.072  -2.682  10.268  0.00  0.00    +0.019 A 
ATOM     30 BR   UNL     1      -2.695  -2.717  12.608  0.00  0.00    -0.050 Br
ENDBRANCH  23  24
ENDBRANCH  22  23
ENDBRANCH   5  22
TORSDOF 7
