REMARK  Name = ZINC43150708
REMARK  8 active torsions:
REMARK  status: ('A' for Active; 'I' for Inactive)
REMARK    1  A    between atoms: C_1  and  C_2
REMARK    2  A    between atoms: C_4  and  C_24
REMARK    3  A    between atoms: C_5  and  N_9
REMARK    4  A    between atoms: C_6  and  C_8
REMARK    5  A    between atoms: N_12  and  C_13
REMARK    6  A    between atoms: C_13  and  C_14
REMARK    7  A    between atoms: C_16  and  N_21
REMARK    8  A    between atoms: C_19  and  O_20
REMARK                            x       y       z     vdW  Elec       q    Type
REMARK                         _______ _______ _______ _____ _____    ______ ____
ROOT
ATOM      1  N   UNL     1      -0.306  -4.139  -0.235  0.00  0.00    -0.269 N 
ATOM      2  C   UNL     1      -0.293  -4.881   0.890  0.00  0.00    +0.304 C 
ATOM      3  O   UNL     1      -0.065  -4.356   1.962  0.00  0.00    -0.252 OA
ATOM      4  N   UNL     1      -0.533  -6.206   0.826  0.00  0.00    -0.295 N 
ATOM      5  H   UNL     1      -0.435  -4.566  -1.096  0.00  0.00    +0.156 HD
ATOM      6  H   UNL     1      -0.715  -6.625  -0.029  0.00  0.00    +0.151 HD
ENDROOT
BRANCH   1  11
ATOM      7  C   UNL     1       0.392   1.483   0.066  0.00  0.00    +0.044 C 
ATOM      8  C   UNL     1       0.206  -0.010  -0.014  0.00  0.00    -0.050 A 
ATOM      9  C   UNL     1       1.197  -0.855   0.452  0.00  0.00    +0.008 A 
ATOM     10  C   UNL     1       1.030  -2.224   0.381  0.00  0.00    -0.029 A 
ATOM     11  C   UNL     1      -0.134  -2.752  -0.160  0.00  0.00    +0.041 A 
ATOM     12  C   UNL     1      -1.128  -1.902  -0.628  0.00  0.00    -0.029 A 
ATOM     13  C   UNL     1      -0.957  -0.534  -0.548  0.00  0.00    +0.008 A 
ATOM     14  C   UNL     1      -2.393  -2.471  -1.216  0.00  0.00    +0.045 C 
ATOM     15  C   UNL     1       2.111  -3.143   0.888  0.00  0.00    +0.045 C 
ENDBRANCH   1  11
BRANCH   4  16
ATOM     16  C   UNL     1      -0.518  -7.013   2.049  0.00  0.00    +0.144 C 
BRANCH  16  17
ATOM     17  C   UNL     1      -0.814  -8.450   1.706  0.00  0.00    +0.013 A 
ATOM     18  C   UNL     1       0.204  -9.385   1.710  0.00  0.00    +0.041 A 
ATOM     19  C   UNL     1      -0.067 -10.704   1.395  0.00  0.00    +0.127 A 
ATOM     20  C   UNL     1      -1.355 -11.091   1.077  0.00  0.00    +0.036 A 
ATOM     21  C   UNL     1      -2.376 -10.160   1.072  0.00  0.00    +0.048 A 
ATOM     22  C   UNL     1      -2.108  -8.837   1.393  0.00  0.00    +0.122 A 
BRANCH  19  23
ATOM     23  N   UNL     1       1.025 -11.703   1.399  0.00  0.00    +0.056 N 
ATOM     24  O   UNL     1       2.152 -11.365   1.677  0.00  0.00    -0.126 OA
ATOM     25  O   UNL     1       0.790 -12.856   1.124  0.00  0.00    -0.126 OA
ENDBRANCH  19  23
BRANCH  22  26
ATOM     26  O   UNL     1      -3.112  -7.920   1.393  0.00  0.00    -0.506 OA
ATOM     27  H   UNL     1      -3.247  -7.484   0.541  0.00  0.00    +0.292 HD
ENDBRANCH  22  26
ENDBRANCH  16  17
ENDBRANCH   4  16
TORSDOF 5
