REMARK  Name = ZINC00707183
REMARK  5 active torsions:
REMARK  status: ('A' for Active; 'I' for Inactive)
REMARK    1  A    between atoms: C_4  and  N_9
REMARK    2  A    between atoms: C_5  and  C_7
REMARK    3  A    between atoms: C_12  and  C_19
REMARK    4  A    between atoms: C_14  and  C_17
REMARK    5  A    between atoms: C_15  and  N_16
REMARK                            x       y       z     vdW  Elec       q    Type
REMARK                         _______ _______ _______ _____ _____    ______ ____
ROOT
ATOM      1  N   UNL     1       2.061  -1.750  -0.057  0.00  0.00    -0.259 N 
ATOM      2  C   UNL     1       2.361  -1.155   1.141  0.00  0.00    +0.024 C 
ATOM      3  C   UNL     1       2.582   0.174   1.214  0.00  0.00    +0.025 C 
ATOM      4  C   UNL     1       2.489   1.043  -0.015  0.00  0.00    +0.097 C 
ATOM      5  C   UNL     1       2.577   0.222  -1.268  0.00  0.00    +0.077 C 
ATOM      6  C   UNL     1       2.360  -1.118  -1.244  0.00  0.00    +0.107 C 
ATOM      7  C   UNL     1       2.908   0.789   2.436  0.00  0.00    +0.162 C 
ATOM      8  O   UNL     1       3.091   1.990   2.469  0.00  0.00    -0.292 OA
ATOM      9  C   UNL     1       3.033  -0.011   3.703  0.00  0.00    +0.080 C 
ATOM     10  C   UNL     1       3.461  -1.440   3.350  0.00  0.00    +0.014 C 
ATOM     11  C   UNL     1       2.439  -2.025   2.372  0.00  0.00    +0.052 C 
ENDROOT
BRANCH   4  12
ATOM     12  C   UNL     1       1.176   1.782   0.000  0.00  0.00    -0.031 A 
ATOM     13  C   UNL     1      -0.013   1.076   0.008  0.00  0.00    +0.008 A 
ATOM     14  C   UNL     1      -1.220   1.749   0.017  0.00  0.00    +0.050 A 
ATOM     15  C   UNL     1      -1.241   3.134   0.029  0.00  0.00    +0.166 A 
ATOM     16  C   UNL     1      -0.044   3.846   0.022  0.00  0.00    +0.167 A 
ATOM     17  C   UNL     1       1.163   3.164   0.007  0.00  0.00    +0.054 A 
ATOM     18  O   UNL     1      -0.329   5.180   0.031  0.00  0.00    -0.453 OA
ATOM     19  C   UNL     1      -1.701   5.277   0.456  0.00  0.00    +0.466 C 
ATOM     20  O   UNL     1      -2.277   4.024   0.043  0.00  0.00    -0.453 OA
ENDBRANCH   4  12
BRANCH   1  24
ATOM     21  C   UNL     1       0.230  -5.498  -0.110  0.00  0.00    +0.001 A 
ATOM     22  C   UNL     1      -0.538  -4.345  -0.092  0.00  0.00    +0.002 A 
ATOM     23  C   UNL     1       0.065  -3.103  -0.075  0.00  0.00    +0.025 A 
ATOM     24  C   UNL     1       1.450  -3.003  -0.075  0.00  0.00    +0.057 A 
ATOM     25  C   UNL     1       2.231  -4.168  -0.098  0.00  0.00    +0.073 A 
ATOM     26  C   UNL     1       1.606  -5.418  -0.111  0.00  0.00    +0.021 A 
BRANCH  25  27
ATOM     27  C   UNL     1       3.660  -4.078  -0.104  0.00  0.00    +0.101 C 
ATOM     28  N   UNL     1       4.793  -4.006  -0.108  0.00  0.00    -0.191 NA
ENDBRANCH  25  27
ENDBRANCH   1  24
BRANCH   6  29
ATOM     29  N   UNL     1       2.439  -1.846  -2.408  0.00  0.00    -0.345 N 
ATOM     30  H   UNL     1       2.284  -2.804  -2.392  0.00  0.00    +0.144 HD
ATOM     31  H   UNL     1       2.649  -1.403  -3.244  0.00  0.00    +0.144 HD
ENDBRANCH   6  29
BRANCH   5  32
ATOM     32  C   UNL     1       2.894   0.862  -2.509  0.00  0.00    +0.099 C 
ATOM     33  N   UNL     1       3.146   1.370  -3.493  0.00  0.00    -0.191 NA
ENDBRANCH   5  32
TORSDOF 5
