REMARK  Name = ZINC40729964
REMARK  11 active torsions:
REMARK  status: ('A' for Active; 'I' for Inactive)
REMARK    1  A    between atoms: C_1  and  C_2
REMARK    2  A    between atoms: C_2  and  CA_3
REMARK    3  A    between atoms: CA_3  and  C_5
REMARK    4  A    between atoms: CA_3  and  N_7
REMARK    5  A    between atoms: C_5  and  O_6
REMARK    6  A    between atoms: N_7  and  C_8
REMARK    7  A    between atoms: C_8  and  C_9
REMARK    8  A    between atoms: C_14  and  O_15
REMARK    9  A    between atoms: O_15  and  C_16
REMARK   10  A    between atoms: C_16  and  C_17
REMARK   11  A    between atoms: C_16  and  C_18
REMARK                            x       y       z     vdW  Elec       q    Type
REMARK                         _______ _______ _______ _____ _____    ______ ____
ROOT
ATOM      1  C   UNL     1      -0.871   1.488  -4.106  0.00  0.00    -0.021 A 
ATOM      2  C   UNL     1      -0.203   1.641  -5.305  0.00  0.00    +0.020 A 
ATOM      3  C   UNL     1      -0.911   1.897  -6.465  0.00  0.00    +0.019 A 
ATOM      4  C   UNL     1      -2.291   2.000  -6.428  0.00  0.00    +0.034 A 
ATOM      5  C   UNL     1      -2.963   1.847  -5.230  0.00  0.00    +0.061 A 
ATOM      6  C   UNL     1      -2.254   1.585  -4.066  0.00  0.00    +0.136 A 
ATOM      7 BR   UNL     1      -4.848   1.989  -5.179  0.00  0.00    -0.046 Br
ATOM      8 BR   UNL     1       0.006   2.107  -8.105  0.00  0.00    -0.050 Br
ENDROOT
BRANCH   1   9
ATOM      9  C   UNL     1      -0.099   1.210  -2.842  0.00  0.00    -0.043 C 
BRANCH   9  10
ATOM     10  N   UNL     1      -0.153  -0.227  -2.541  0.00  0.00    +0.385 N 
ATOM     11  H1  UNL     1       0.328  -0.741  -3.264  0.00  0.00    -0.085 HD
ATOM     12  H2  UNL     1      -1.116  -0.526  -2.502  0.00  0.00    -0.085 HD
BRANCH  10  13
ATOM     13  CA  UNL     1       0.492  -0.481  -1.246  0.00  0.00    -0.046 C 
BRANCH  13  15
ATOM     14  C   UNL     1      -1.167  -2.249  -0.644  0.00  0.00    +0.002 C 
ATOM     15  C   UNL     1       0.317  -1.954  -0.870  0.00  0.00    -0.017 C 
ENDBRANCH  13  15
BRANCH  13  16
ATOM     16  C   UNL     1       1.983  -0.155  -1.347  0.00  0.00    +0.140 C 
BRANCH  16  17
ATOM     17  O   UNL     1       2.608  -1.056  -2.264  0.00  0.00    -0.397 OA
ATOM     18  H   UNL     1       3.556  -0.907  -2.378  0.00  0.00    +0.209 HD
ENDBRANCH  16  17
ENDBRANCH  13  16
ENDBRANCH  10  13
ENDBRANCH   9  10
ENDBRANCH   1   9
BRANCH   6  19
ATOM     19  O   UNL     1      -2.914   1.428  -2.888  0.00  0.00    -0.488 OA
BRANCH  19  20
ATOM     20  C   UNL     1      -3.135   2.604  -2.107  0.00  0.00    +0.167 C 
ATOM     21  C   UNL     1      -4.471   3.236  -2.503  0.00  0.00    +0.051 C 
ATOM     22  C   UNL     1      -3.167   2.232  -0.623  0.00  0.00    +0.051 C 
ENDBRANCH  19  20
ENDBRANCH   6  19
TORSDOF 8
