REMARK  Name = ZINC08747087
REMARK  8 active torsions:
REMARK  status: ('A' for Active; 'I' for Inactive)
REMARK    1  A    between atoms: C_1  and  C_2
REMARK    2  A    between atoms: C_4  and  C_21
REMARK    3  A    between atoms: C_6  and  N_8
REMARK    4  A    between atoms: N_8  and  C_9
REMARK    5  A    between atoms: N_14  and  C_17
REMARK    6  A    between atoms: C_17  and  C_18
REMARK    7  A    between atoms: C_18  and  O_19
REMARK    8  A    between atoms: O_19  and  C_20
REMARK                            x       y       z     vdW  Elec       q    Type
REMARK                         _______ _______ _______ _____ _____    ______ ____
ROOT
ATOM      1  C   UNL     1       0.048  -2.073   3.665  0.00  0.00    +0.166 C 
ATOM      2  C   UNL     1       0.626  -2.955   4.790  0.00  0.00    +0.128 C 
ATOM      3  C   UNL     1      -0.526  -3.089   5.763  0.00  0.00    +0.224 C 
ATOM      4  O   UNL     1      -0.498  -3.711   6.803  0.00  0.00    -0.275 OA
ATOM      5  N   UNL     1      -1.580  -2.411   5.292  0.00  0.00    -0.238 N 
ATOM      6  C   UNL     1      -1.369  -1.798   4.117  0.00  0.00    +0.243 C 
ATOM      7  O   UNL     1      -2.182  -1.132   3.513  0.00  0.00    -0.273 OA
ENDROOT
BRANCH   1   8
ATOM      8  N   UNL     1       0.051  -2.796   2.390  0.00  0.00    -0.333 N 
ATOM      9  H   UNL     1       0.064  -3.766   2.383  0.00  0.00    +0.147 HD
BRANCH   8  15
ATOM     10  C   UNL     1      -0.018   1.503   0.010  0.00  0.00    +0.044 C 
ATOM     11  C   UNL     1       0.002  -0.004   0.002  0.00  0.00    -0.048 A 
ATOM     12  C   UNL     1       0.006  -0.688  -1.200  0.00  0.00    +0.006 A 
ATOM     13  C   UNL     1       0.024  -2.071  -1.212  0.00  0.00    -0.048 A 
ATOM     14  C   UNL     1       0.039  -2.773  -0.023  0.00  0.00    +0.026 A 
ATOM     15  C   UNL     1       0.036  -2.089   1.186  0.00  0.00    +0.028 A 
ATOM     16  C   UNL     1       0.023  -0.700   1.195  0.00  0.00    +0.026 A 
ATOM     17  C   UNL     1       0.027  -2.812  -2.524  0.00  0.00    +0.044 C 
ENDBRANCH   8  15
ENDBRANCH   1   8
BRANCH   5  18
ATOM     18  C   UNL     1      -2.860  -2.343   6.003  0.00  0.00    +0.144 C 
BRANCH  18  19
ATOM     19  C   UNL     1      -2.856  -1.137   6.944  0.00  0.00    +0.179 C 
BRANCH  19  20
ATOM     20  O   UNL     1      -2.785   0.067   6.177  0.00  0.00    -0.381 OA
ATOM     21  C   UNL     1      -2.776   1.259   6.965  0.00  0.00    +0.194 C 
ENDBRANCH  19  20
ENDBRANCH  18  19
ENDBRANCH   5  18
TORSDOF 5
