REMARK  Name = ZINC37872345
REMARK  4 active torsions:
REMARK  status: ('A' for Active; 'I' for Inactive)
REMARK    1  A    between atoms: C_2  and  C_3
REMARK    2  A    between atoms: C_7  and  N_9
REMARK    3  A    between atoms: N_9  and  C_10
REMARK    4  A    between atoms: C_15  and  O_17
REMARK                            x       y       z     vdW  Elec       q    Type
REMARK                         _______ _______ _______ _____ _____    ______ ____
ROOT
ATOM      1  N   UNL     1       2.348   4.252  -0.009  0.00  0.00    -0.336 N 
ATOM      2  H   UNL     1       3.197   3.783  -0.023  0.00  0.00    +0.147 HD
ENDROOT
BRANCH   1   7
ATOM      3  C   UNL     1      -0.017   1.428   0.010  0.00  0.00    +0.026 A 
ATOM      4  C   UNL     1      -1.234   2.111   0.031  0.00  0.00    +0.017 A 
ATOM      5  C   UNL     1      -1.251   3.491   0.039  0.00  0.00    +0.003 A 
ATOM      6  C   UNL     1      -0.065   4.201   0.026  0.00  0.00    +0.023 A 
ATOM      7  C   UNL     1       1.152   3.530   0.005  0.00  0.00    +0.029 A 
ATOM      8  C   UNL     1       1.179   2.143   0.002  0.00  0.00    +0.039 A 
BRANCH   3  10
ATOM      9  C   UNL     1       0.018  -1.178  -0.004  0.00  0.00    +0.009 C 
ATOM     10  C   UNL     1       0.002  -0.004   0.002  0.00  0.00    -0.070 C 
ENDBRANCH   3  10
ENDBRANCH   1   7
BRANCH   1  11
ATOM     11  C   UNL     1       2.320   5.716  -0.000  0.00  0.00    +0.127 C 
ATOM     12  C   UNL     1       2.287   6.249   1.449  0.00  0.00    +0.184 C 
ATOM     13  O   UNL     1       3.670   6.510   1.778  0.00  0.00    -0.375 OA
ATOM     14  C   UNL     1       4.239   7.096   0.587  0.00  0.00    +0.193 C 
ATOM     15  C   UNL     1       3.632   6.287  -0.584  0.00  0.00    +0.162 C 
BRANCH  15  16
ATOM     16  O   UNL     1       3.356   7.141  -1.696  0.00  0.00    -0.388 OA
ATOM     17  H   UNL     1       4.145   7.526  -2.101  0.00  0.00    +0.210 HD
ENDBRANCH  15  16
ENDBRANCH   1  11
TORSDOF 4
