REMARK  Name = ZINC46555665
REMARK  6 active torsions:
REMARK  status: ('A' for Active; 'I' for Inactive)
REMARK    1  A    between atoms: C_6  and  C_7
REMARK    2  A    between atoms: N_11  and  C_15
REMARK    3  A    between atoms: C_15  and  C_16
REMARK    4  A    between atoms: C_16  and  N_17
REMARK    5  A    between atoms: C_18  and  C_20
REMARK    6  A    between atoms: C_25  and  C_26
REMARK                            x       y       z     vdW  Elec       q    Type
REMARK                         _______ _______ _______ _____ _____    ______ ____
ROOT
ATOM      1  N   UNL     1      -4.929  -6.143  -2.080  0.00  0.00    -0.310 N 
ATOM      2  C   UNL     1      -5.277  -6.621  -3.291  0.00  0.00    +0.248 C 
ATOM      3  O   UNL     1      -4.847  -6.094  -4.299  0.00  0.00    -0.270 OA
ATOM      4  H   UNL     1      -5.272  -6.563  -1.276  0.00  0.00    +0.149 HD
ENDROOT
BRANCH   2   5
ATOM      5  C   UNL     1      -6.177  -7.782  -3.393  0.00  0.00    +0.082 A 
ATOM      6  C   UNL     1      -6.833  -8.413  -2.357  0.00  0.00    +0.118 A 
ATOM      7  N   UNL     1      -7.550  -9.421  -2.876  0.00  0.00    -0.283 N 
ATOM      8  H   UNL     1      -8.108 -10.030  -2.367  0.00  0.00    +0.188 HD
ATOM      9  N   UNL     1      -7.370  -9.462  -4.261  0.00  0.00    -0.173 NA
ATOM     10  C   UNL     1      -6.558  -8.493  -4.618  0.00  0.00    +0.105 A 
BRANCH  10  11
ATOM     11  C   UNL     1      -6.109  -8.180  -5.995  0.00  0.00    +0.007 A 
ATOM     12  C   UNL     1      -4.765  -7.910  -6.248  0.00  0.00    +0.014 A 
ATOM     13  C   UNL     1      -4.349  -7.618  -7.530  0.00  0.00    +0.050 A 
ATOM     14  C   UNL     1      -5.266  -7.592  -8.573  0.00  0.00    +0.162 A 
ATOM     15  C   UNL     1      -6.608  -7.863  -8.327  0.00  0.00    +0.163 A 
ATOM     16  C   UNL     1      -7.029  -8.161  -7.042  0.00  0.00    +0.059 A 
ATOM     17  O   UNL     1      -7.518  -7.850  -9.340  0.00  0.00    -0.485 OA
ATOM     18  C   UNL     1      -7.127  -7.189 -10.548  0.00  0.00    +0.270 C 
ATOM     19  C   UNL     1      -5.708  -7.649 -10.909  0.00  0.00    +0.270 C 
ATOM     20  O   UNL     1      -4.835  -7.298  -9.830  0.00  0.00    -0.485 OA
ENDBRANCH  10  11
ENDBRANCH   2   5
BRANCH   1  21
ATOM     21  C   UNL     1      -4.034  -4.987  -1.978  0.00  0.00    +0.124 C 
BRANCH  21  22
ATOM     22  C   UNL     1      -3.801  -4.651  -0.504  0.00  0.00    +0.136 C 
BRANCH  22  27
ATOM     23  C   UNL     1      -2.702   0.179  -0.224  0.00  0.00    +0.028 C 
ATOM     24  C   UNL     1      -2.467  -1.156  -0.272  0.00  0.00    +0.080 C 
ATOM     25  C   UNL     1      -3.422  -2.278  -0.376  0.00  0.00    +0.260 C 
ATOM     26  O   UNL     1      -4.623  -2.092  -0.434  0.00  0.00    -0.269 OA
ATOM     27  N   UNL     1      -2.906  -3.495  -0.402  0.00  0.00    -0.227 N 
ATOM     28  C   UNL     1      -1.575  -3.698  -0.338  0.00  0.00    +0.286 C 
ATOM     29  O   UNL     1      -0.969  -4.753  -0.352  0.00  0.00    -0.262 OA
ATOM     30  S   UNL     1      -0.914  -2.042  -0.234  0.00  0.00    -0.026 S 
BRANCH  23  36
ATOM     31  C   UNL     1      -0.337   0.716  -0.775  0.00  0.00    +0.011 A 
ATOM     32  C   UNL     1       0.711   1.609  -0.820  0.00  0.00    +0.039 A 
ATOM     33  C   UNL     1       0.539   2.910  -0.371  0.00  0.00    +0.123 A 
ATOM     34  C   UNL     1      -0.689   3.321   0.125  0.00  0.00    +0.039 A 
ATOM     35  C   UNL     1      -1.746   2.439   0.176  0.00  0.00    +0.011 A 
ATOM     36  C   UNL     1      -1.579   1.125  -0.275  0.00  0.00    -0.024 A 
ATOM     37  F   UNL     1       1.571   3.780  -0.417  0.00  0.00    -0.205 F 
ENDBRANCH  23  36
ENDBRANCH  22  27
ENDBRANCH  21  22
ENDBRANCH   1  21
TORSDOF 6
