REMARK  Name = ZINC62017678
REMARK  6 active torsions:
REMARK  status: ('A' for Active; 'I' for Inactive)
REMARK    1  A    between atoms: C_1  and  C_2
REMARK    2  A    between atoms: C_2  and  C_4
REMARK    3  A    between atoms: C_2  and  N_11
REMARK    4  A    between atoms: N_11  and  C_12
REMARK    5  A    between atoms: C_13  and  C_15
REMARK    6  A    between atoms: C_20  and  O_21
REMARK                            x       y       z     vdW  Elec       q    Type
REMARK                         _______ _______ _______ _____ _____    ______ ____
ROOT
ATOM      1  N   UNL     1       0.636  -0.803   1.238  0.00  0.00    -0.294 N 
ATOM      2  C   UNL     1       0.036  -0.867   2.573  0.00  0.00    +0.133 C 
ATOM      3  C   UNL     1       1.944  -1.082   1.073  0.00  0.00    +0.250 C 
ATOM      4  O   UNL     1       2.424  -1.107  -0.044  0.00  0.00    -0.270 OA
ENDROOT
BRANCH   3   5
ATOM      5  C   UNL     1       2.793  -1.358   2.247  0.00  0.00    +0.078 A 
ATOM      6  C   UNL     1       2.382  -2.284   3.209  0.00  0.00    +0.018 A 
ATOM      7  C   UNL     1       3.180  -2.538   4.303  0.00  0.00    +0.016 A 
ATOM      8  C   UNL     1       4.390  -1.877   4.455  0.00  0.00    +0.021 A 
ATOM      9  C   UNL     1       4.807  -0.959   3.511  0.00  0.00    +0.061 A 
ATOM     10  C   UNL     1       4.019  -0.696   2.401  0.00  0.00    +0.130 A 
ATOM     11 BR   UNL     1       5.474  -2.235   5.962  0.00  0.00    -0.050 Br
BRANCH  10  12
ATOM     12  O   UNL     1       4.430   0.202   1.470  0.00  0.00    -0.506 OA
ATOM     13  H   UNL     1       4.144   1.109   1.645  0.00  0.00    +0.292 HD
ENDBRANCH  10  12
ENDBRANCH   3   5
BRANCH   1  15
ATOM     14  C   UNL     1      -0.902   0.886   0.365  0.00  0.00    +0.033 C 
ATOM     15  C   UNL     1      -0.187  -0.436   0.083  0.00  0.00    +0.103 C 
BRANCH  15  16
ATOM     16  C   UNL     1      -1.208  -1.516  -0.171  0.00  0.00    -0.027 A 
ATOM     17  C   UNL     1      -2.070  -1.902   0.839  0.00  0.00    +0.007 A 
ATOM     18  C   UNL     1      -3.006  -2.892   0.607  0.00  0.00    +0.020 A 
ATOM     19  C   UNL     1      -3.081  -3.496  -0.635  0.00  0.00    +0.041 A 
ATOM     20  C   UNL     1      -2.218  -3.109  -1.645  0.00  0.00    +0.020 A 
ATOM     21  C   UNL     1      -1.286  -2.115  -1.414  0.00  0.00    +0.007 A 
ATOM     22 CL   UNL     1      -4.257  -4.739  -0.927  0.00  0.00    -0.084 Cl
ENDBRANCH  15  16
ENDBRANCH   1  15
TORSDOF 4
