REMARK  Name = ZINC21396671
REMARK  4 active torsions:
REMARK  status: ('A' for Active; 'I' for Inactive)
REMARK    1  A    between atoms: C_1  and  C_2
REMARK    2  A    between atoms: C_2  and  C_4
REMARK    3  A    between atoms: C_2  and  N_13
REMARK    4  A    between atoms: C_14  and  C_16
REMARK                            x       y       z     vdW  Elec       q    Type
REMARK                         _______ _______ _______ _____ _____    ______ ____
ROOT
ATOM      1  C   UNL     1      -5.348   1.574   1.468  0.00  0.00    +0.036 C 
ATOM      2  C   UNL     1      -4.908   1.861   0.031  0.00  0.00    +0.136 C 
ENDROOT
BRANCH   2   3
ATOM      3  C   UNL     1      -5.789   2.932  -0.560  0.00  0.00    +0.126 A 
ATOM      4  C   UNL     1      -6.821   2.707  -1.385  0.00  0.00    +0.055 A 
ATOM      5  C   UNL     1      -7.384   4.024  -1.704  0.00  0.00    +0.020 A 
ATOM      6  C   UNL     1      -8.446   4.466  -2.492  0.00  0.00    +0.011 A 
ATOM      7  C   UNL     1      -8.715   5.804  -2.579  0.00  0.00    +0.001 A 
ATOM      8  C   UNL     1      -7.937   6.723  -1.890  0.00  0.00    +0.004 A 
ATOM      9  C   UNL     1      -6.883   6.305  -1.106  0.00  0.00    +0.047 A 
ATOM     10  C   UNL     1      -6.593   4.950  -1.004  0.00  0.00    +0.135 A 
ATOM     11  O   UNL     1      -5.657   4.250  -0.331  0.00  0.00    -0.458 OA
ENDBRANCH   2   3
BRANCH   2  12
ATOM     12  N   UNL     1      -3.516   2.318   0.028  0.00  0.00    -0.299 N 
ATOM     13  C   UNL     1      -2.512   1.419   0.019  0.00  0.00    +0.280 C 
ATOM     14  O   UNL     1      -2.762   0.228   0.013  0.00  0.00    -0.267 OA
ATOM     15  H   UNL     1      -3.291   3.394   0.034  0.00  0.00    +0.150 HD
BRANCH  13  16
ATOM     16  C   UNL     1      -1.120   1.876   0.017  0.00  0.00    +0.191 A 
ATOM     17  C   UNL     1      -0.013   1.076   0.008  0.00  0.00    +0.056 A 
ATOM     18  C   UNL     1       1.101   1.928   0.002  0.00  0.00    +0.063 A 
ATOM     19  C   UNL     1       0.632   3.197   0.013  0.00  0.00    +0.195 A 
ATOM     20  O   UNL     1      -0.707   3.161   0.026  0.00  0.00    -0.439 OA
ATOM     21 CL   UNL     1       1.605   4.635   0.013  0.00  0.00    -0.043 Cl
ENDBRANCH  13  16
ENDBRANCH   2  12
TORSDOF 3
