REMARK  Name = ZINC04611087
REMARK  4 active torsions:
REMARK  status: ('A' for Active; 'I' for Inactive)
REMARK    1  A    between atoms: C_4  and  N_7
REMARK    2  A    between atoms: N_18  and  N_19
REMARK    3  A    between atoms: C_20  and  C_21
REMARK    4  A    between atoms: C_30  and  O_31
REMARK                            x       y       z     vdW  Elec       q    Type
REMARK                         _______ _______ _______ _____ _____    ______ ____
ROOT
ATOM      1  N   UNL     1       3.619  -0.664  -0.150  0.00  0.00    -0.247 N 
ATOM      2  C   UNL     1       4.775   0.031  -0.259  0.00  0.00    +0.267 A 
ATOM      3  O   UNL     1       4.774   1.235  -0.440  0.00  0.00    -0.267 OA
ATOM      4  C   UNL     1       6.032  -0.721  -0.151  0.00  0.00    +0.065 A 
ATOM      5  C   UNL     1       7.275  -0.097  -0.249  0.00  0.00    +0.015 A 
ATOM      6  C   UNL     1       8.415  -0.845  -0.141  0.00  0.00    +0.001 A 
ATOM      7  C   UNL     1       8.347  -2.217   0.065  0.00  0.00    +0.002 A 
ATOM      8  C   UNL     1       7.143  -2.854   0.165  0.00  0.00    +0.028 A 
ATOM      9  C   UNL     1       5.959  -2.117   0.059  0.00  0.00    +0.080 A 
ATOM     10  N   UNL     1       4.750  -2.706   0.153  0.00  0.00    -0.214 NA
ATOM     11  C   UNL     1       3.641  -2.016   0.059  0.00  0.00    +0.223 A 
ATOM     12  N   UNL     1       2.445  -2.680   0.169  0.00  0.00    -0.206 N 
ATOM     13  H   UNL     1       1.610  -2.191   0.105  0.00  0.00    +0.177 HD
ENDROOT
BRANCH   1  17
ATOM     14  C   UNL     1      -0.029   1.330  -0.434  0.00  0.00    +0.000 A 
ATOM     15  C   UNL     1       0.582   1.181   0.798  0.00  0.00    +0.002 A 
ATOM     16  C   UNL     1       1.791   0.521   0.895  0.00  0.00    +0.026 A 
ATOM     17  C   UNL     1       2.393   0.006  -0.245  0.00  0.00    +0.053 A 
ATOM     18  C   UNL     1       1.776   0.156  -1.480  0.00  0.00    +0.026 A 
ATOM     19  C   UNL     1       0.567   0.818  -1.571  0.00  0.00    +0.002 A 
ENDBRANCH   1  17
BRANCH  12  20
ATOM     20  N   UNL     1       2.430  -4.066   0.375  0.00  0.00    -0.187 NA
ATOM     21  C   UNL     1       1.298  -4.695   0.479  0.00  0.00    +0.142 C 
BRANCH  21  22
ATOM     22  C   UNL     1       1.282  -6.149   0.695  0.00  0.00    +0.044 A 
ATOM     23  C   UNL     1       0.018  -6.874   0.809  0.00  0.00    -0.006 A 
ATOM     24  C   UNL     1      -1.214  -6.213   0.717  0.00  0.00    +0.009 A 
ATOM     25  C   UNL     1      -2.370  -6.926   0.828  0.00  0.00    +0.001 A 
ATOM     26  C   UNL     1      -2.345  -8.303   1.033  0.00  0.00    +0.001 A 
ATOM     27  C   UNL     1      -1.165  -8.977   1.127  0.00  0.00    +0.008 A 
ATOM     28  C   UNL     1       0.047  -8.274   1.017  0.00  0.00    -0.017 A 
ATOM     29  C   UNL     1       1.284  -8.935   1.108  0.00  0.00    +0.012 A 
ATOM     30  C   UNL     1       2.451  -8.246   1.000  0.00  0.00    +0.046 A 
ATOM     31  C   UNL     1       2.473  -6.868   0.789  0.00  0.00    +0.126 A 
BRANCH  31  32
ATOM     32  O   UNL     1       3.662  -6.221   0.682  0.00  0.00    -0.506 OA
ATOM     33  H   UNL     1       4.015  -5.904   1.524  0.00  0.00    +0.292 HD
ENDBRANCH  31  32
ENDBRANCH  21  22
ENDBRANCH  12  20
TORSDOF 4
