REMARK  Name = ZINC45863497
REMARK  7 active torsions:
REMARK  status: ('A' for Active; 'I' for Inactive)
REMARK    1  A    between atoms: C_3  and  N_24
REMARK    2  A    between atoms: C_6  and  N_7
REMARK    3  A    between atoms: C_8  and  C_10
REMARK    4  A    between atoms: C_10  and  C_11
REMARK    5  A    between atoms: C_11  and  C_12
REMARK    6  A    between atoms: C_12  and  N_13
REMARK    7  A    between atoms: N_27  and  C_28
REMARK                            x       y       z     vdW  Elec       q    Type
REMARK                         _______ _______ _______ _____ _____    ______ ____
ROOT
ATOM      1  N   UNL     1      -1.199  -0.757   0.020  0.00  0.00    -0.285 N 
ATOM      2  C   UNL     1      -1.248  -2.064   0.345  0.00  0.00    +0.217 C 
ATOM      3  O   UNL     1      -0.246  -2.633   0.725  0.00  0.00    -0.275 OA
ATOM      4  H   UNL     1      -2.013  -0.284  -0.211  0.00  0.00    +0.155 HD
ENDROOT
BRANCH   1  10
ATOM      5  C   UNL     1       1.190  -0.755  -0.338  0.00  0.00    +0.025 A 
ATOM      6  C   UNL     1       2.400  -0.090  -0.343  0.00  0.00    +0.025 A 
ATOM      7  C   UNL     1       2.455   1.253   0.007  0.00  0.00    +0.035 A 
ATOM      8  C   UNL     1       1.293   1.926   0.361  0.00  0.00    +0.025 A 
ATOM      9  C   UNL     1       0.084   1.260   0.366  0.00  0.00    +0.025 A 
ATOM     10  C   UNL     1       0.029  -0.082   0.016  0.00  0.00    +0.033 A 
BRANCH   7  11
ATOM     11  N   UNL     1       3.682   1.928   0.003  0.00  0.00    -0.269 N 
ATOM     12  C   UNL     1       4.608   1.638  -0.932  0.00  0.00    +0.304 C 
ATOM     13  O   UNL     1       4.413   0.733  -1.721  0.00  0.00    -0.253 OA
ATOM     14  N   UNL     1       5.750   2.351  -0.994  0.00  0.00    -0.296 N 
ATOM     15  H   UNL     1       3.866   2.605   0.674  0.00  0.00    +0.156 HD
ATOM     16  H   UNL     1       5.906   3.073  -0.366  0.00  0.00    +0.151 HD
BRANCH  14  17
ATOM     17  C   UNL     1       6.756   2.036  -2.011  0.00  0.00    +0.075 C 
ATOM     18  C   UNL     1       8.221   2.004  -1.570  0.00  0.00    +0.024 C 
ATOM     19  C   UNL     1       7.707   3.156  -2.436  0.00  0.00    +0.024 C 
ENDBRANCH  14  17
ENDBRANCH   7  11
ENDBRANCH   1  10
BRANCH   2  20
ATOM     20  C   UNL     1      -2.547  -2.820   0.237  0.00  0.00    +0.097 C 
BRANCH  20  21
ATOM     21  C   UNL     1      -2.329  -4.273   0.662  0.00  0.00    +0.029 C 
BRANCH  21  22
ATOM     22  C   UNL     1      -3.649  -5.040   0.552  0.00  0.00    +0.118 C 
BRANCH  22  23
ATOM     23  N   UNL     1      -3.440  -6.432   0.959  0.00  0.00    -0.224 N 
ATOM     24  C   UNL     1      -3.081  -7.424   0.115  0.00  0.00    +0.246 C 
ATOM     25  O   UNL     1      -2.877  -7.338  -1.077  0.00  0.00    -0.273 OA
ATOM     26  C   UNL     1      -2.987  -8.660   0.973  0.00  0.00    +0.113 C 
ATOM     27  C   UNL     1      -1.572  -9.252   0.934  0.00  0.00    +0.035 C 
ATOM     28  C   UNL     1      -1.804 -10.783   1.011  0.00  0.00    +0.003 C 
ATOM     29  C   UNL     1      -3.085 -10.981   0.162  0.00  0.00    +0.003 C 
ATOM     30  C   UNL     1      -3.953  -9.745   0.490  0.00  0.00    +0.035 C 
ATOM     31  N   UNL     1      -3.331  -8.199   2.319  0.00  0.00    -0.285 N 
ATOM     32  C   UNL     1      -3.577  -6.878   2.214  0.00  0.00    +0.309 C 
ATOM     33  O   UNL     1      -3.889  -6.171   3.152  0.00  0.00    -0.252 OA
ATOM     34  H   UNL     1      -3.372  -8.736   3.126  0.00  0.00    +0.151 HD
ENDBRANCH  22  23
ENDBRANCH  21  22
ENDBRANCH  20  21
ENDBRANCH   2  20
TORSDOF 7
