REMARK  Name = ZINC48874015
REMARK  3 active torsions:
REMARK  status: ('A' for Active; 'I' for Inactive)
REMARK    1  A    between atoms: C_9  and  S_11
REMARK    2  A    between atoms: S_11  and  C_12
REMARK    3  A    between atoms: C_12  and  C_13
REMARK                            x       y       z     vdW  Elec       q    Type
REMARK                         _______ _______ _______ _____ _____    ______ ____
ROOT
ATOM      1  C   UNL     1       3.841  -6.590   1.351  0.00  0.00    +0.152 C 
ENDROOT
BRANCH   1   2
ATOM      2  C   UNL     1       3.991  -8.089   1.364  0.00  0.00    +0.146 A 
ATOM      3  N   UNL     1       3.618  -8.780   2.427  0.00  0.00    -0.199 NA
ATOM      4  C   UNL     1       3.749 -10.104   2.442  0.00  0.00    +0.217 A 
ATOM      5  N   UNL     1       4.255 -10.732   1.385  0.00  0.00    -0.181 NA
ATOM      6  C   UNL     1       4.628 -10.034   0.318  0.00  0.00    +0.217 A 
ATOM      7  N   UNL     1       4.489  -8.710   0.309  0.00  0.00    -0.199 NA
ATOM      8  N   UNL     1       5.154 -10.681  -0.781  0.00  0.00    -0.327 N 
ATOM      9  N   UNL     1       3.360 -10.825   3.553  0.00  0.00    -0.327 N 
ATOM     10  H   UNL     1       5.251 -11.646  -0.775  0.00  0.00    +0.145 HD
ATOM     11  H   UNL     1       5.426 -10.171  -1.560  0.00  0.00    +0.145 HD
ATOM     12  H   UNL     1       2.991 -10.366   4.323  0.00  0.00    +0.145 HD
ATOM     13  H   UNL     1       3.456 -11.790   3.562  0.00  0.00    +0.145 HD
ENDBRANCH   1   2
BRANCH   1  14
ATOM     14  S   UNL     1       2.206  -6.151   0.698  0.00  0.00    -0.089 S 
BRANCH  14  23
ATOM     15  C   UNL     1      -0.019   1.539   0.011  0.00  0.00    +0.020 C 
ATOM     16  C   UNL     1       1.488   1.907  -0.002  0.00  0.00    +0.020 C 
ATOM     17  C   UNL     1       2.092   0.776   0.868  0.00  0.00    +0.107 C 
ATOM     18  N   UNL     1       1.313  -0.426   0.518  0.00  0.00    -0.308 N 
ATOM     19  C   UNL     1       0.002  -0.004   0.002  0.00  0.00    +0.107 C 
ATOM     20  C   UNL     1       1.746  -1.740   0.652  0.00  0.00    +0.185 A 
ATOM     21  N   UNL     1       2.896  -2.198   1.107  0.00  0.00    -0.125 NA
ATOM     22  N   UNL     1       3.121  -3.554   1.155  0.00  0.00    -0.133 NA
ATOM     23  C   UNL     1       2.186  -4.390   0.747  0.00  0.00    +0.160 A 
ATOM     24  S   UNL     1       0.891  -3.259   0.262  0.00  0.00    -0.024 S 
ENDBRANCH  14  23
ENDBRANCH   1  14
TORSDOF 3
