REMARK  Name = ZINC14157379
REMARK  5 active torsions:
REMARK  status: ('A' for Active; 'I' for Inactive)
REMARK    1  A    between atoms: C_1  and  C_2
REMARK    2  A    between atoms: C_4  and  C_31
REMARK    3  A    between atoms: N_13  and  C_14
REMARK    4  A    between atoms: N_24  and  C_25
REMARK    5  A    between atoms: C_25  and  C_26
REMARK                            x       y       z     vdW  Elec       q    Type
REMARK                         _______ _______ _______ _____ _____    ______ ____
ROOT
ATOM      1  C   UNL     1       5.200  -1.755   0.097  0.00  0.00    +0.066 C 
ATOM      2  C   UNL     1       4.009  -2.678   0.100  0.00  0.00    +0.044 A 
ATOM      3  C   UNL     1       3.834  -3.601  -0.920  0.00  0.00    +0.046 A 
ATOM      4  C   UNL     1       2.725  -4.431  -0.879  0.00  0.00    +0.044 A 
ATOM      5  N   UNL     1       1.872  -4.318   0.126  0.00  0.00    -0.217 NA
ATOM      6  C   UNL     1       2.068  -3.425   1.084  0.00  0.00    +0.231 A 
ATOM      7  N   UNL     1       3.120  -2.621   1.077  0.00  0.00    -0.217 NA
ATOM      8  N   UNL     1       1.151  -3.334   2.123  0.00  0.00    -0.298 N 
ATOM      9  C   UNL     1       1.401  -2.509   3.185  0.00  0.00    +0.177 C 
ATOM     10  N   UNL     1       0.476  -2.326   4.112  0.00  0.00    -0.242 N 
ATOM     11  C   UNL     1       0.783  -1.681   5.247  0.00  0.00    +0.306 C 
ATOM     12  O   UNL     1       0.677  -0.469   5.307  0.00  0.00    -0.252 OA
ATOM     13  N   UNL     1       1.209  -2.374   6.322  0.00  0.00    -0.294 N 
ATOM     14  N   UNL     1       2.604  -1.875   3.287  0.00  0.00    -0.352 N 
ATOM     15  C   UNL     1       2.494  -5.449  -1.965  0.00  0.00    +0.066 C 
ATOM     16  H   UNL     1       0.334  -3.856   2.096  0.00  0.00    +0.171 HD
ATOM     17  H   UNL     1       1.293  -3.339   6.274  0.00  0.00    +0.151 HD
ATOM     18  H   UNL     1       3.411  -2.311   2.971  0.00  0.00    +0.163 HD
ATOM     19  H   UNL     1      -0.424  -2.658   3.971  0.00  0.00    +0.159 HD
ENDROOT
BRANCH  13  20
ATOM     20  C   UNL     1       1.544  -1.670   7.562  0.00  0.00    +0.037 C 
ATOM     21  C   UNL     1       2.674  -0.673   7.293  0.00  0.00    +0.029 C 
ATOM     22  C   UNL     1       3.023   0.062   8.588  0.00  0.00    -0.008 C 
ATOM     23  C   UNL     1       3.476  -0.950   9.643  0.00  0.00    +0.007 C 
ATOM     24  C   UNL     1       2.346  -1.946   9.912  0.00  0.00    -0.008 C 
ATOM     25  C   UNL     1       1.996  -2.681   8.617  0.00  0.00    +0.029 C 
ATOM     26  C   UNL     1       1.114  -1.195  10.421  0.00  0.00    +0.007 C 
ATOM     27  C   UNL     1       0.662  -0.183   9.366  0.00  0.00    -0.008 C 
ATOM     28  C   UNL     1       1.791   0.813   9.097  0.00  0.00    +0.007 C 
ATOM     29  C   UNL     1       0.312  -0.919   8.071  0.00  0.00    +0.029 C 
ENDBRANCH  13  20
BRANCH  14  30
ATOM     30  C   UNL     1       2.679  -0.535   3.875  0.00  0.00    +0.190 C 
BRANCH  30  31
ATOM     31  C   UNL     1       4.017   0.080   3.556  0.00  0.00    +0.124 A 
ATOM     32  C   UNL     1       4.301   0.830   2.476  0.00  0.00    +0.046 A 
ATOM     33  C   UNL     1       5.663   1.196   2.577  0.00  0.00    +0.041 A 
ATOM     34  C   UNL     1       6.130   0.647   3.713  0.00  0.00    +0.195 A 
ATOM     35  O   UNL     1       5.127  -0.023   4.304  0.00  0.00    -0.466 OA
ENDBRANCH  30  31
ENDBRANCH  14  30
TORSDOF 3
