REMARK  Name = ZINC37690482
REMARK  6 active torsions:
REMARK  status: ('A' for Active; 'I' for Inactive)
REMARK    1  A    between atoms: C_1  and  O_2
REMARK    2  A    between atoms: O_2  and  C_3
REMARK    3  A    between atoms: C_5  and  C_19
REMARK    4  A    between atoms: C_8  and  O_9
REMARK    5  A    between atoms: O_9  and  C_10
REMARK    6  A    between atoms: C_15  and  O_17
REMARK                            x       y       z     vdW  Elec       q    Type
REMARK                         _______ _______ _______ _____ _____    ______ ____
ROOT
ATOM      1  C   UNL     1       0.626  -0.619   1.042  0.00  0.00    +0.163 A 
ATOM      2  C   UNL     1       1.200   0.136   2.047  0.00  0.00    +0.064 A 
ATOM      3  C   UNL     1       1.841  -0.500   3.115  0.00  0.00    +0.068 A 
ATOM      4  C   UNL     1       1.898  -1.896   3.161  0.00  0.00    +0.034 A 
ATOM      5  C   UNL     1       1.324  -2.643   2.156  0.00  0.00    +0.064 A 
ATOM      6  C   UNL     1       0.682  -2.011   1.097  0.00  0.00    +0.176 A 
ATOM      7 BR   UNL     1       1.403  -4.531   2.219  0.00  0.00    -0.046 Br
ENDROOT
BRANCH   3   8
ATOM      8  C   UNL     1       2.454   0.300   4.189  0.00  0.00    +0.387 C 
ATOM      9  O   UNL     1       2.404   1.522   4.147  0.00  0.00    -0.241 OA
ATOM     10  O   UNL     1       3.015  -0.257   5.122  0.00  0.00    -0.241 OA
ENDBRANCH   3   8
BRANCH   1  12
ATOM     11  C   UNL     1      -0.017   1.425   0.010  0.00  0.00    +0.277 C 
ATOM     12  O   UNL     1       0.002  -0.004   0.002  0.00  0.00    -0.491 OA
ENDBRANCH   1  12
BRANCH   6  13
ATOM     13  O   UNL     1       0.113  -2.751   0.112  0.00  0.00    -0.481 OA
BRANCH  13  14
ATOM     14  C   UNL     1       0.937  -3.086  -1.006  0.00  0.00    +0.202 C 
ATOM     15  C   UNL     1       1.604  -4.468  -0.794  0.00  0.00    +0.047 C 
ATOM     16  C   UNL     1       1.915  -4.924  -2.241  0.00  0.00    +0.006 C 
ATOM     17  C   UNL     1       0.700  -4.440  -3.059  0.00  0.00    +0.035 C 
ATOM     18  C   UNL     1       0.079  -3.268  -2.275  0.00  0.00    +0.155 C 
BRANCH  18  19
ATOM     19  O   UNL     1       0.111  -2.076  -3.063  0.00  0.00    -0.388 OA
ATOM     20  H   UNL     1      -0.411  -2.128  -3.876  0.00  0.00    +0.210 HD
ENDBRANCH  18  19
ENDBRANCH  13  14
ENDBRANCH   6  13
TORSDOF 5
