REMARK  Name = ZINC20337710
REMARK  7 active torsions:
REMARK  status: ('A' for Active; 'I' for Inactive)
REMARK    1  A    between atoms: C_5  and  C_7
REMARK    2  A    between atoms: N_11  and  C_20
REMARK    3  A    between atoms: C_15  and  N_19
REMARK    4  A    between atoms: C_20  and  C_21
REMARK    5  A    between atoms: C_21  and  C_23
REMARK    6  A    between atoms: C_21  and  O_25
REMARK    7  A    between atoms: C_23  and  O_24
REMARK                            x       y       z     vdW  Elec       q    Type
REMARK                         _______ _______ _______ _____ _____    ______ ____
ROOT
ATOM      1  C   UNL     1      -0.099  -1.375   5.114  0.00  0.00    +0.079 C 
ATOM      2  C   UNL     1       0.496  -0.729   4.088  0.00  0.00    +0.192 C 
ATOM      3  C   UNL     1      -0.188  -0.553   2.786  0.00  0.00    +0.286 C 
ATOM      4  O   UNL     1      -1.057  -1.322   2.420  0.00  0.00    -0.266 OA
ATOM      5  N   UNL     1       0.195   0.494   2.016  0.00  0.00    -0.259 N 
ATOM      6  C   UNL     1       1.188   1.360   2.497  0.00  0.00    +0.079 A 
ATOM      7  C   UNL     1       1.401   2.582   1.877  0.00  0.00    +0.029 A 
ATOM      8  C   UNL     1       2.379   3.436   2.350  0.00  0.00    +0.025 A 
ATOM      9  C   UNL     1       3.149   3.075   3.448  0.00  0.00    +0.028 A 
ATOM     10  C   UNL     1       2.940   1.852   4.072  0.00  0.00    +0.071 A 
ATOM     11  C   UNL     1       1.961   0.995   3.599  0.00  0.00    +0.152 A 
ATOM     12  O   UNL     1       1.754  -0.206   4.207  0.00  0.00    -0.449 OA
ENDROOT
BRANCH   1  17
ATOM     13  C   UNL     1      -3.183  -3.494   5.260  0.00  0.00    +0.004 A 
ATOM     14  C   UNL     1      -4.104  -2.579   4.768  0.00  0.00    +0.020 A 
ATOM     15  C   UNL     1      -3.680  -1.312   4.410  0.00  0.00    +0.111 A 
ATOM     16  N   UNL     1      -2.416  -0.962   4.530  0.00  0.00    -0.255 NA
ATOM     17  C   UNL     1      -1.501  -1.807   4.997  0.00  0.00    +0.067 A 
ATOM     18  C   UNL     1      -1.861  -3.105   5.372  0.00  0.00    +0.028 A 
ENDBRANCH   1  17
BRANCH   9  19
ATOM     19  N   UNL     1       4.137   3.943   3.925  0.00  0.00    -0.358 N 
ATOM     20  H   UNL     1       4.747   3.657   4.794  0.00  0.00    +0.142 HD
ATOM     21  H   UNL     1       4.304   4.911   3.430  0.00  0.00    +0.142 HD
ENDBRANCH   9  19
BRANCH   5  22
ATOM     22  C   UNL     1      -0.423   0.722   0.707  0.00  0.00    +0.147 C 
BRANCH  22  23
ATOM     23  C   UNL     1       0.376  -0.017  -0.369  0.00  0.00    +0.157 C 
BRANCH  23  24
ATOM     24  O   UNL     1       1.719   0.471  -0.384  0.00  0.00    -0.388 OA
ATOM     25  H   UNL     1       2.446   0.056  -1.097  0.00  0.00    +0.210 HD
ENDBRANCH  23  24
BRANCH  23  26
ATOM     26  C   UNL     1      -0.269   0.221  -1.736  0.00  0.00    +0.188 C 
BRANCH  26  27
ATOM     27  O   UNL     1       0.406  -0.561  -2.723  0.00  0.00    -0.392 OA
ATOM     28  H   UNL     1       0.081  -0.521  -3.773  0.00  0.00    +0.210 HD
ENDBRANCH  26  27
ENDBRANCH  23  26
ENDBRANCH  22  23
ENDBRANCH   5  22
TORSDOF 7
