REMARK  Name = ZINC07602631
REMARK  9 active torsions:
REMARK  status: ('A' for Active; 'I' for Inactive)
REMARK    1  A    between atoms: C_1  and  C_2
REMARK    2  A    between atoms: C_2  and  O_3
REMARK    3  A    between atoms: O_3  and  C_4
REMARK    4  A    between atoms: C_6  and  C_17
REMARK    5  A    between atoms: C_9  and  O_10
REMARK    6  A    between atoms: O_10  and  C_11
REMARK    7  A    between atoms: C_11  and  C_12
REMARK    8  A    between atoms: C_17  and  N_18
REMARK    9  A    between atoms: N_18  and  N_19
REMARK                            x       y       z     vdW  Elec       q    Type
REMARK                         _______ _______ _______ _____ _____    ______ ____
ROOT
ATOM      1  C   UNL     1       1.155   3.176   0.008  0.00  0.00    +0.162 A 
ATOM      2  C   UNL     1      -0.057   3.846   0.023  0.00  0.00    +0.054 A 
ATOM      3  C   UNL     1      -1.241   3.133   0.031  0.00  0.00    -0.025 A 
ATOM      4  C   UNL     1      -1.219   1.751   0.017  0.00  0.00    +0.009 A 
ATOM      5  C   UNL     1      -0.013   1.076   0.008  0.00  0.00    +0.050 A 
ATOM      6  C   UNL     1       1.178   1.785   0.000  0.00  0.00    +0.162 A 
ENDROOT
BRANCH   1   7
ATOM      7  O   UNL     1       2.321   3.877   0.001  0.00  0.00    -0.489 OA
BRANCH   7   9
ATOM      8  C   UNL     1       3.625   5.912   0.000  0.00  0.00    +0.048 C 
ATOM      9  C   UNL     1       2.222   5.302   0.010  0.00  0.00    +0.226 C 
ENDBRANCH   7   9
ENDBRANCH   1   7
BRANCH   6  10
ATOM     10  O   UNL     1       2.365   1.123  -0.015  0.00  0.00    -0.483 OA
BRANCH  10  11
ATOM     11  C   UNL     1       2.312  -0.305  -0.023  0.00  0.00    +0.271 C 
BRANCH  11  12
ATOM     12  C   UNL     1       3.713  -0.861  -0.040  0.00  0.00    +0.027 A 
ATOM     13  C   UNL     1       4.517  -1.181   1.004  0.00  0.00    +0.014 A 
ATOM     14  C   UNL     1       5.779  -1.682   0.748  0.00  0.00    +0.008 A 
ATOM     15  C   UNL     1       6.176  -1.838  -0.539  0.00  0.00    +0.045 A 
ATOM     16  S   UNL     1       4.742  -1.274  -1.439  0.00  0.00    -0.098 S 
ENDBRANCH  11  12
ENDBRANCH  10  11
ENDBRANCH   6  10
BRANCH   3  17
ATOM     17  C   UNL     1      -2.559   3.864   0.047  0.00  0.00    +0.157 C 
BRANCH  17  18
ATOM     18  N   UNL     1      -3.000   4.108  -1.333  0.00  0.00    -0.260 N 
ATOM     19  H   UNL     1      -2.298   4.612  -1.853  0.00  0.00    +0.168 HD
BRANCH  18  20
ATOM     20  N   UNL     1      -4.195   4.770  -1.355  0.00  0.00    -0.129 N 
ATOM     21  C   UNL     1      -4.898   5.160  -2.443  0.00  0.00    +0.251 A 
ATOM     22  N   UNL     1      -5.983   5.761  -2.007  0.00  0.00    -0.091 NA
ATOM     23  N   UNL     1      -6.006   5.774  -0.724  0.00  0.00    -0.020 NA
ATOM     24  N   UNL     1      -4.960   5.187  -0.251  0.00  0.00    -0.024 NA
ATOM     25  N   UNL     1      -4.543   4.963  -3.765  0.00  0.00    -0.325 N 
ATOM     26  H   UNL     1      -3.716   4.504  -3.982  0.00  0.00    +0.145 HD
ATOM     27  H   UNL     1      -5.120   5.283  -4.476  0.00  0.00    +0.145 HD
ENDBRANCH  18  20
ENDBRANCH  17  18
ENDBRANCH   3  17
TORSDOF 8
