REMARK  Name = ZINC13451218
REMARK  12 active torsions:
REMARK  status: ('A' for Active; 'I' for Inactive)
REMARK    1  A    between atoms: C_1  and  C_2
REMARK    2  A    between atoms: C_4  and  S_14
REMARK    3  A    between atoms: C_8  and  C_9
REMARK    4  A    between atoms: C_9  and  C_10
REMARK    5  A    between atoms: C_10  and  C_11
REMARK    6  A    between atoms: C_11  and  O_13
REMARK    7  A    between atoms: S_14  and  C_15
REMARK    8  A    between atoms: C_15  and  C_16
REMARK    9  A    between atoms: N_18  and  C_19
REMARK   10  A    between atoms: N_18  and  C_24
REMARK   11  A    between atoms: C_19  and  C_20
REMARK   12  A    between atoms: C_20  and  C_21
REMARK                            x       y       z     vdW  Elec       q    Type
REMARK                         _______ _______ _______ _____ _____    ______ ____
ROOT
ATOM      1  C   UNL     1      -0.261  -1.463  -3.975  0.00  0.00    +0.173 C 
ENDROOT
BRANCH   1   2
ATOM      2  C   UNL     1      -0.255  -2.011  -5.379  0.00  0.00    +0.230 C 
ATOM      3  O   UNL     1      -0.466  -3.190  -5.571  0.00  0.00    -0.274 OA
ATOM      4  N   UNL     1      -0.015  -1.192  -6.422  0.00  0.00    -0.270 N 
BRANCH   4   5
ATOM      5  C   UNL     1       0.092  -1.716  -7.714  0.00  0.00    +0.036 A 
ATOM      6  C   UNL     1       1.162  -2.537  -8.047  0.00  0.00    +0.023 A 
ATOM      7  C   UNL     1       1.264  -3.053  -9.324  0.00  0.00    +0.002 A 
ATOM      8  C   UNL     1       0.302  -2.754 -10.271  0.00  0.00    +0.000 A 
ATOM      9  C   UNL     1      -0.765  -1.937  -9.943  0.00  0.00    +0.002 A 
ATOM     10  C   UNL     1      -0.876  -1.422  -8.666  0.00  0.00    +0.023 A 
ENDBRANCH   4   5
BRANCH   4  11
ATOM     11  C   UNL     1       0.135   0.249  -6.201  0.00  0.00    +0.123 C 
BRANCH  11  12
ATOM     12  C   UNL     1       1.607   0.574  -5.936  0.00  0.00    +0.115 C 
BRANCH  12  13
ATOM     13  C   UNL     1       1.761   2.056  -5.709  0.00  0.00    +0.212 C 
ATOM     14  O   UNL     1       0.789   2.781  -5.755  0.00  0.00    -0.276 OA
ATOM     15  N   UNL     1       2.978   2.576  -5.456  0.00  0.00    -0.329 N 
ATOM     16  H   UNL     1       3.755   1.996  -5.419  0.00  0.00    +0.145 HD
ATOM     17  H   UNL     1       3.077   3.530  -5.310  0.00  0.00    +0.145 HD
ENDBRANCH  12  13
ENDBRANCH  11  12
ENDBRANCH   4  11
ENDBRANCH   1   2
BRANCH   1  18
ATOM     18  S   UNL     1      -0.611  -2.804  -2.805  0.00  0.00    -0.078 S 
BRANCH  18  22
ATOM     19  C   UNL     1      -0.032   1.397   0.053  0.00  0.00    +0.066 C 
ATOM     20  C   UNL     1      -0.313  -0.082   0.009  0.00  0.00    +0.049 A 
ATOM     21  N   UNL     1      -0.342  -0.718  -1.159  0.00  0.00    -0.228 NA
ATOM     22  C   UNL     1      -0.584  -2.013  -1.230  0.00  0.00    +0.170 A 
ATOM     23  N   UNL     1      -0.815  -2.748  -0.108  0.00  0.00    -0.302 N 
ATOM     24  C   UNL     1      -0.796  -2.148   1.102  0.00  0.00    +0.256 A 
ATOM     25  O   UNL     1      -1.001  -2.792   2.118  0.00  0.00    -0.267 OA
ATOM     26  C   UNL     1      -0.532  -0.769   1.168  0.00  0.00    +0.038 A 
ATOM     27  H   UNL     1      -0.992  -3.699  -0.177  0.00  0.00    +0.171 HD
BRANCH  26  28
ATOM     28  C   UNL     1      -0.495  -0.060   2.497  0.00  0.00    +0.053 C 
BRANCH  28  29
ATOM     29  C   UNL     1      -1.915   0.342   2.900  0.00  0.00    +0.125 C 
BRANCH  29  30
ATOM     30  C   UNL     1      -1.879   1.052   4.229  0.00  0.00    +0.305 C 
ATOM     31  O   UNL     1      -0.825   1.219   4.796  0.00  0.00    -0.251 OA
BRANCH  30  32
ATOM     32  O   UNL     1      -3.017   1.498   4.783  0.00  0.00    -0.481 OA
ATOM     33  H   UNL     1      -2.893   1.940   5.634  0.00  0.00    +0.295 HD
ENDBRANCH  30  32
ENDBRANCH  29  30
ENDBRANCH  28  29
ENDBRANCH  26  28
ENDBRANCH  18  22
ENDBRANCH   1  18
TORSDOF 11
