REMARK  Name = ZINC04189065
REMARK  6 active torsions:
REMARK  status: ('A' for Active; 'I' for Inactive)
REMARK    1  A    between atoms: C_1  and  C_2
REMARK    2  A    between atoms: C_2  and  N_45
REMARK    3  A    between atoms: C_5  and  C_6
REMARK    4  A    between atoms: C_14  and  C_22
REMARK    5  A    between atoms: C_16  and  C_20
REMARK    6  A    between atoms: C_17  and  N_19
REMARK                            x       y       z     vdW  Elec       q    Type
REMARK                         _______ _______ _______ _____ _____    ______ ____
ROOT
ATOM      1  C   UNL     1      -3.485   5.707   1.342  0.00  0.00    -0.039 C 
ATOM      2  C   UNL     1      -2.170   5.168   0.819  0.00  0.00    -0.021 C 
ATOM      3  C   UNL     1      -0.998   5.493   1.403  0.00  0.00    +0.020 C 
ATOM      4  C   UNL     1      -2.218   4.274  -0.355  0.00  0.00    +0.130 C 
ATOM      5  C   UNL     1      -3.392   3.797  -0.775  0.00  0.00    -0.031 C 
ATOM      6  C   UNL     1      -4.682   4.174  -0.093  0.00  0.00    -0.042 C 
ATOM      7  C   UNL     1      -3.456   2.865  -1.961  0.00  0.00    +0.099 C 
ATOM      8  C   UNL     1      -2.102   2.279  -2.242  0.00  0.00    +0.098 C 
ATOM      9  C   UNL     1      -0.980   2.851  -1.737  0.00  0.00    +0.199 C 
ATOM     10  O   UNL     1      -1.054   3.951  -0.968  0.00  0.00    -0.441 OA
ATOM     11  N   UNL     1      -4.443   4.579   1.302  0.00  0.00    +0.385 N 
ATOM     12  H   UNL     1      -4.046   3.785   1.817  0.00  0.00    -0.081 HD
ENDROOT
BRANCH   3  13
ATOM     13  C   UNL     1       0.220   4.755   1.062  0.00  0.00    +0.012 A 
ATOM     14  C   UNL     1       1.497   5.237   0.828  0.00  0.00    +0.015 A 
ATOM     15  C   UNL     1       2.490   4.336   0.525  0.00  0.00    +0.008 A 
ATOM     16  C   UNL     1       2.189   3.013   0.455  0.00  0.00    +0.046 A 
ATOM     17  S   UNL     1       0.445   2.998   0.833  0.00  0.00    -0.097 S 
ENDBRANCH   3  13
BRANCH   7  18
ATOM     18  C   UNL     1      -3.928   3.630  -3.171  0.00  0.00    +0.002 A 
ATOM     19  C   UNL     1      -5.032   3.428  -3.931  0.00  0.00    +0.012 A 
ATOM     20  C   UNL     1      -5.270   4.267  -5.004  0.00  0.00    +0.008 A 
ATOM     21  C   UNL     1      -4.386   5.259  -5.271  0.00  0.00    +0.045 A 
ATOM     22  S   UNL     1      -3.175   5.032  -3.979  0.00  0.00    -0.101 S 
ENDBRANCH   7  18
BRANCH   9  23
ATOM     23  N   UNL     1       0.245   2.296  -2.010  0.00  0.00    -0.328 N 
ATOM     24  H   UNL     1       0.300   1.445  -2.472  0.00  0.00    +0.145 HD
ATOM     25  H   UNL     1       1.056   2.758  -1.745  0.00  0.00    +0.145 HD
ENDBRANCH   9  23
BRANCH  11  27
ATOM     26  C   UNL     1      -5.484   5.182   3.435  0.00  0.00    -0.017 C 
ATOM     27  C   UNL     1      -5.720   4.976   1.937  0.00  0.00    -0.081 C 
ENDBRANCH  11  27
BRANCH   8  28
ATOM     28  C   UNL     1      -1.993   1.103  -3.052  0.00  0.00    +0.101 C 
ATOM     29  N   UNL     1      -1.907   0.170  -3.695  0.00  0.00    -0.191 NA
ENDBRANCH   8  28
TORSDOF 5
