REMARK  Name = ZINC59816154
REMARK  11 active torsions:
REMARK  status: ('A' for Active; 'I' for Inactive)
REMARK    1  A    between atoms: C_1  and  C_2
REMARK    2  A    between atoms: C_2  and  N_3
REMARK    3  A    between atoms: N_3  and  C_4
REMARK    4  A    between atoms: C_5  and  C_7
REMARK    5  A    between atoms: C_7  and  C_9
REMARK    6  A    between atoms: C_7  and  S_10
REMARK    7  A    between atoms: S_10  and  C_11
REMARK    8  A    between atoms: N_16  and  N_17
REMARK    9  A    between atoms: C_18  and  C_19
REMARK   10  A    between atoms: C_18  and  C_20
REMARK   11  A    between atoms: C_23  and  N_26
REMARK                            x       y       z     vdW  Elec       q    Type
REMARK                         _______ _______ _______ _____ _____    ______ ____
ROOT
ATOM      1  C   UNL     1       0.473  -2.594  -6.005  0.00  0.00    +0.211 A 
ATOM      2  N   UNL     1       0.011  -3.246  -7.078  0.00  0.00    -0.186 NA
ATOM      3  C   UNL     1       1.016  -3.584  -7.858  0.00  0.00    +0.232 A 
ATOM      4  N   UNL     1       2.156  -3.145  -7.283  0.00  0.00    -0.245 N 
ATOM      5  N   UNL     1       1.779  -2.505  -6.091  0.00  0.00    -0.144 NA
ATOM      6  N   UNL     1       0.920  -4.269  -9.055  0.00  0.00    -0.205 N 
ATOM      7  H   UNL     1       1.722  -4.474  -9.562  0.00  0.00    +0.177 HD
ATOM      8  H   UNL     1       3.057  -3.248  -7.627  0.00  0.00    +0.192 HD
ENDROOT
BRANCH   6   9
ATOM      9  N   UNL     1      -0.334  -4.666  -9.537  0.00  0.00    -0.184 NA
ATOM     10  C   UNL     1      -0.423  -5.309 -10.662  0.00  0.00    +0.063 C 
ATOM     11  C   UNL     1       0.822  -5.628 -11.448  0.00  0.00    +0.068 C 
BRANCH  10  12
ATOM     12  C   UNL     1      -1.742  -5.727 -11.169  0.00  0.00    -0.002 A 
ATOM     13  C   UNL     1      -1.840  -6.424 -12.376  0.00  0.00    +0.011 A 
ATOM     14  C   UNL     1      -3.075  -6.813 -12.847  0.00  0.00    +0.023 A 
ATOM     15  C   UNL     1      -4.224  -6.513 -12.122  0.00  0.00    +0.025 A 
ATOM     16  C   UNL     1      -4.130  -5.819 -10.921  0.00  0.00    +0.023 A 
ATOM     17  C   UNL     1      -2.898  -5.432 -10.440  0.00  0.00    +0.011 A 
BRANCH  15  18
ATOM     18  N   UNL     1      -5.473  -6.908 -12.602  0.00  0.00    -0.358 N 
ATOM     19  H   UNL     1      -5.539  -7.392 -13.441  0.00  0.00    +0.142 HD
ATOM     20  H   UNL     1      -6.275  -6.699 -12.098  0.00  0.00    +0.142 HD
ENDBRANCH  15  18
ENDBRANCH  10  12
ENDBRANCH   6   9
BRANCH   1  21
ATOM     21  S   UNL     1      -0.512  -1.954  -4.693  0.00  0.00    -0.072 S 
BRANCH  21  22
ATOM     22  C   UNL     1       0.692  -1.190  -3.572  0.00  0.00    +0.137 C 
ATOM     23  C   UNL     1       1.364  -0.008  -4.273  0.00  0.00    +0.029 C 
BRANCH  22  26
ATOM     24  N   UNL     1       0.688  -0.476  -1.203  0.00  0.00    -0.304 N 
ATOM     25  C   UNL     1       2.135  -0.701  -1.182  0.00  0.00    +0.132 C 
ATOM     26  C   UNL     1      -0.013  -0.705  -2.332  0.00  0.00    +0.228 C 
ATOM     27  O   UNL     1      -1.211  -0.518  -2.349  0.00  0.00    -0.274 OA
BRANCH  24  29
ATOM     28  C   UNL     1      -0.019   1.526   0.010  0.00  0.00    +0.024 C 
ATOM     29  C   UNL     1       0.002  -0.004   0.002  0.00  0.00    +0.104 C 
ENDBRANCH  24  29
ENDBRANCH  22  26
ENDBRANCH  21  22
ENDBRANCH   1  21
TORSDOF 7
