REMARK  Name = ZINC39662943
REMARK  4 active torsions:
REMARK  status: ('A' for Active; 'I' for Inactive)
REMARK    1  A    between atoms: C_3  and  C_13
REMARK    2  A    between atoms: C_7  and  C_9
REMARK    3  A    between atoms: C_17  and  C_26
REMARK    4  A    between atoms: N_28  and  C_29
REMARK                            x       y       z     vdW  Elec       q    Type
REMARK                         _______ _______ _______ _____ _____    ______ ____
ROOT
ATOM      1  C   UNL     1       3.262   0.678  -0.867  0.00  0.00    +0.236 C 
ATOM      2  O   UNL     1       3.493  -0.294  -0.178  0.00  0.00    -0.274 OA
ATOM      3  N   UNL     1       4.274   1.466  -1.282  0.00  0.00    -0.299 N 
ATOM      4  C   UNL     1       4.191   2.688  -2.115  0.00  0.00    +0.121 C 
ATOM      5  C   UNL     1       5.228   3.653  -1.498  0.00  0.00    +0.100 C 
ATOM      6  C   UNL     1       6.231   2.740  -0.773  0.00  0.00    -0.004 C 
ATOM      7  C   UNL     1       5.721   1.309  -1.000  0.00  0.00    +0.115 C 
ATOM      8  C   UNL     1       6.250   3.055   0.719  0.00  0.00    -0.010 C 
ATOM      9  C   UNL     1       7.295   2.175   1.409  0.00  0.00    -0.082 C 
ATOM     10  N   UNL     1       8.615   2.425   0.819  0.00  0.00    +0.379 N 
ATOM     11  C   UNL     1       8.614   2.031  -0.596  0.00  0.00    -0.082 C 
ATOM     12  C   UNL     1       7.625   2.906  -1.370  0.00  0.00    -0.010 C 
ATOM     13  H   UNL     1       8.835   3.407   0.893  0.00  0.00    -0.086 HD
ATOM     14  H   UNL     1       9.312   1.889   1.315  0.00  0.00    -0.086 HD
ENDROOT
BRANCH   1  17
ATOM     15  C   UNL     1      -0.250   1.868  -0.460  0.00  0.00    +0.021 C 
ATOM     16  C   UNL     1       1.277   2.122  -0.351  0.00  0.00    +0.033 C 
ATOM     17  C   UNL     1       1.844   1.003  -1.260  0.00  0.00    +0.162 C 
ATOM     18  N   UNL     1       0.965  -0.156  -1.024  0.00  0.00    -0.283 N 
ATOM     19  C   UNL     1      -0.338   0.329  -0.548  0.00  0.00    +0.109 C 
ATOM     20  C   UNL     1       1.300  -1.448  -1.216  0.00  0.00    +0.320 C 
ATOM     21  O   UNL     1       2.409  -1.734  -1.615  0.00  0.00    -0.266 OA
BRANCH  20  22
ATOM     22  C   UNL     1       0.296  -2.536  -0.933  0.00  0.00    +0.470 C 
ATOM     23  F   UNL     1       0.872  -3.782  -1.204  0.00  0.00    -0.162 F 
ATOM     24  F   UNL     1      -0.085  -2.481   0.412  0.00  0.00    -0.162 F 
ATOM     25  F   UNL     1      -0.829  -2.355  -1.745  0.00  0.00    -0.162 F 
ENDBRANCH  20  22
ENDBRANCH   1  17
BRANCH   5  26
ATOM     26  C   UNL     1       4.561   4.585  -0.520  0.00  0.00    +0.218 C 
ATOM     27  O   UNL     1       3.596   4.210   0.113  0.00  0.00    -0.275 OA
ATOM     28  N   UNL     1       5.036   5.834  -0.347  0.00  0.00    -0.314 N 
ATOM     29  H   UNL     1       5.808   6.133  -0.853  0.00  0.00    +0.149 HD
BRANCH  28  30
ATOM     30  C   UNL     1       4.387   6.740   0.604  0.00  0.00    +0.059 C 
ATOM     31  C   UNL     1       3.214   7.446  -0.079  0.00  0.00    -0.056 C 
ATOM     32  N   UNL     1       3.424   8.896  -0.064  0.00  0.00    +0.381 N 
ATOM     33  C   UNL     1       4.638   9.248  -0.804  0.00  0.00    -0.078 C 
ATOM     34  C   UNL     1       5.859   8.602  -0.145  0.00  0.00    -0.014 C 
ATOM     35  C   UNL     1       5.395   7.795   1.078  0.00  0.00    +0.004 C 
ATOM     36  C   UNL     1       4.679   8.749   2.043  0.00  0.00    -0.014 C 
ATOM     37  C   UNL     1       3.495   9.392   1.312  0.00  0.00    -0.078 C 
ATOM     38  H   UNL     1       2.640   9.336  -0.523  0.00  0.00    -0.082 HD
ENDBRANCH  28  30
ENDBRANCH   5  26
TORSDOF 4
