REMARK  Name = ZINC00996953
REMARK  5 active torsions:
REMARK  status: ('A' for Active; 'I' for Inactive)
REMARK    1  A    between atoms: C_3  and  C_10
REMARK    2  A    between atoms: C_5  and  N_7
REMARK    3  A    between atoms: C_11  and  C_12
REMARK    4  A    between atoms: N_14  and  C_15
REMARK    5  A    between atoms: C_16  and  C_26
REMARK                            x       y       z     vdW  Elec       q    Type
REMARK                         _______ _______ _______ _____ _____    ______ ____
ROOT
ATOM      1  C   UNL     1      -2.462   9.482   0.075  0.00  0.00    +0.085 A 
ATOM      2  C   UNL     1      -3.555  10.328   0.089  0.00  0.00    +0.068 A 
ATOM      3  C   UNL     1      -3.315  11.775   0.107  0.00  0.00    -0.023 A 
ATOM      4  C   UNL     1      -2.013  12.112   0.059  0.00  0.00    -0.004 A 
ATOM      5  S   UNL     1      -1.123  10.578   0.076  0.00  0.00    -0.077 S 
ATOM      6  C   UNL     1      -1.404  13.484  -0.014  0.00  0.00    +0.043 C 
ATOM      7  C   UNL     1      -1.516  13.952  -1.476  0.00  0.00    +0.005 C 
ATOM      8  C   UNL     1      -2.984  13.837  -1.904  0.00  0.00    +0.000 C 
ATOM      9  C   UNL     1      -3.745  14.776  -0.992  0.00  0.00    +0.000 C 
ATOM     10  C   UNL     1      -4.096  14.175   0.357  0.00  0.00    +0.005 C 
ATOM     11  C   UNL     1      -4.512  12.714   0.248  0.00  0.00    +0.037 C 
ENDROOT
BRANCH   2  12
ATOM     12  C   UNL     1      -4.919   9.792   0.087  0.00  0.00    +0.244 C 
ATOM     13  O   UNL     1      -5.482   9.556   1.141  0.00  0.00    -0.270 OA
ATOM     14  N   UNL     1      -5.551   9.561  -1.081  0.00  0.00    -0.325 N 
ATOM     15  H   UNL     1      -5.103   9.749  -1.920  0.00  0.00    +0.145 HD
ATOM     16  H   UNL     1      -6.454   9.207  -1.082  0.00  0.00    +0.145 HD
ENDBRANCH   2  12
BRANCH   1  19
ATOM     17  C   UNL     1      -1.267   7.439   0.053  0.00  0.00    +0.241 C 
ATOM     18  O   UNL     1      -0.221   8.062   0.046  0.00  0.00    -0.270 OA
ATOM     19  N   UNL     1      -2.443   8.097   0.067  0.00  0.00    -0.276 N 
ATOM     20  H   UNL     1      -3.276   7.601   0.072  0.00  0.00    +0.156 HD
BRANCH  17  22
ATOM     21  C   UNL     1      -0.070   5.317   0.030  0.00  0.00    +0.013 C 
ATOM     22  C   UNL     1      -1.247   5.976   0.045  0.00  0.00    +0.068 C 
BRANCH  21  25
ATOM     23  C   UNL     1      -1.222   1.748   0.017  0.00  0.00    +0.003 A 
ATOM     24  C   UNL     1      -1.249   3.127   0.030  0.00  0.00    +0.008 A 
ATOM     25  C   UNL     1      -0.050   3.846   0.022  0.00  0.00    -0.023 A 
ATOM     26  C   UNL     1       1.168   3.159   0.007  0.00  0.00    +0.040 A 
ATOM     27  C   UNL     1       1.179   1.781   0.000  0.00  0.00    +0.127 A 
ATOM     28  C   UNL     1      -0.013   1.076   0.008  0.00  0.00    +0.033 A 
BRANCH  27  29
ATOM     29  N   UNL     1       2.467   1.052  -0.015  0.00  0.00    +0.056 N 
ATOM     30  O   UNL     1       2.478  -0.166  -0.021  0.00  0.00    -0.126 OA
ATOM     31  O   UNL     1       3.517   1.671  -0.022  0.00  0.00    -0.126 OA
ENDBRANCH  27  29
ENDBRANCH  21  25
ENDBRANCH  17  22
ENDBRANCH   1  19
TORSDOF 5
