REMARK  Name = ZINC04044085
REMARK  4 active torsions:
REMARK  status: ('A' for Active; 'I' for Inactive)
REMARK    1  A    between atoms: C_1  and  N_2
REMARK    2  A    between atoms: C_3  and  O_25
REMARK    3  A    between atoms: C_4  and  C_11
REMARK    4  A    between atoms: N_7  and  C_10
REMARK                            x       y       z     vdW  Elec       q    Type
REMARK                         _______ _______ _______ _____ _____    ______ ____
ROOT
ATOM      1  C   UNL     1      -2.490   0.012   0.038  0.00  0.00    +0.018 C 
ATOM      2  C   UNL     1      -3.246  -0.275  -1.237  0.00  0.00    +0.011 A 
ATOM      3  C   UNL     1      -4.569  -0.569  -1.257  0.00  0.00    -0.022 A 
ATOM      4  C   UNL     1      -4.936  -0.789  -2.638  0.00  0.00    +0.003 A 
ATOM      5  C   UNL     1      -6.144  -1.117  -3.261  0.00  0.00    +0.010 A 
ATOM      6  C   UNL     1      -6.123  -1.251  -4.627  0.00  0.00    +0.001 A 
ATOM      7  C   UNL     1      -4.965  -1.072  -5.366  0.00  0.00    +0.002 A 
ATOM      8  C   UNL     1      -3.756  -0.746  -4.777  0.00  0.00    +0.026 A 
ATOM      9  C   UNL     1      -3.747  -0.604  -3.391  0.00  0.00    +0.047 A 
ATOM     10  N   UNL     1      -2.750  -0.296  -2.509  0.00  0.00    -0.359 N 
ATOM     11  H   UNL     1      -1.828  -0.117  -2.750  0.00  0.00    +0.166 HD
ATOM     12  C   UNL     1      -5.427  -0.630  -0.018  0.00  0.00    +0.018 C 
ATOM     13  C   UNL     1      -4.664   0.057   1.122  0.00  0.00    -0.076 C 
ATOM     14  N   UNL     1      -3.287  -0.472   1.187  0.00  0.00    +0.388 N 
ATOM     15  H   UNL     1      -2.845  -0.160   2.060  0.00  0.00    -0.084 HD
ATOM     16  H   UNL     1      -3.318  -1.499   1.168  0.00  0.00    -0.084 HD
ENDROOT
BRANCH   1  20
ATOM     17  C   UNL     1       2.455   0.070  -0.021  0.00  0.00    +0.157 C 
ATOM     18  N   UNL     1       1.196  -0.679  -0.013  0.00  0.00    -0.267 N 
ATOM     19  C   UNL     1       0.002  -0.004   0.002  0.00  0.00    +0.204 A 
ATOM     20  C   UNL     1      -1.166  -0.707   0.015  0.00  0.00    +0.068 A 
ATOM     21  C   UNL     1      -1.118  -2.112   0.001  0.00  0.00    +0.262 A 
ATOM     22  O   UNL     1      -2.149  -2.762   0.008  0.00  0.00    -0.267 OA
ATOM     23  N   UNL     1       0.077  -2.736  -0.014  0.00  0.00    -0.264 N 
ATOM     24  C   UNL     1       1.219  -2.025  -0.021  0.00  0.00    +0.334 A 
ATOM     25  O   UNL     1       2.287  -2.606  -0.034  0.00  0.00    -0.246 OA
ATOM     26  C   UNL     1       0.132  -4.200  -0.022  0.00  0.00    +0.157 C 
BRANCH  19  27
ATOM     27  O   UNL     1      -0.016   1.346   0.009  0.00  0.00    -0.493 OA
ATOM     28  H   UNL     1       0.862   1.751   0.003  0.00  0.00    +0.294 HD
ENDBRANCH  19  27
ENDBRANCH   1  20
TORSDOF 2
