REMARK  Name = ZINC08428939
REMARK  4 active torsions:
REMARK  status: ('A' for Active; 'I' for Inactive)
REMARK    1  A    between atoms: C_1  and  C_2
REMARK    2  A    between atoms: N_11  and  C_12
REMARK    3  A    between atoms: C_12  and  C_13
REMARK    4  A    between atoms: C_26  and  C_28
REMARK                            x       y       z     vdW  Elec       q    Type
REMARK                         _______ _______ _______ _____ _____    ______ ____
ROOT
ATOM      1  C   UNL     1      -4.884   2.891   3.553  0.00  0.00    +0.237 C 
ATOM      2  O   UNL     1      -4.372   3.616   2.726  0.00  0.00    -0.274 OA
ATOM      3  N   UNL     1      -6.189   2.571   3.452  0.00  0.00    -0.265 N 
ATOM      4  C   UNL     1      -6.794   1.730   4.396  0.00  0.00    +0.058 A 
ATOM      5  C   UNL     1      -6.518   0.377   4.418  0.00  0.00    +0.025 A 
ATOM      6  C   UNL     1      -7.149  -0.441   5.337  0.00  0.00    +0.002 A 
ATOM      7  C   UNL     1      -8.056   0.091   6.237  0.00  0.00    +0.002 A 
ATOM      8  C   UNL     1      -8.326   1.447   6.233  0.00  0.00    +0.025 A 
ATOM      9  C   UNL     1      -7.688   2.274   5.323  0.00  0.00    +0.055 A 
ATOM     10  N   UNL     1      -7.920   3.655   5.319  0.00  0.00    -0.284 N 
ATOM     11  C   UNL     1      -8.204   4.300   4.166  0.00  0.00    +0.219 C 
ATOM     12  O   UNL     1      -8.326   5.507   4.165  0.00  0.00    -0.275 OA
ATOM     13  C   UNL     1      -8.369   3.532   2.881  0.00  0.00    +0.118 C 
ATOM     14  C   UNL     1      -7.003   3.090   2.352  0.00  0.00    +0.087 C 
ATOM     15  C   UNL     1      -7.196   1.995   1.302  0.00  0.00    +0.029 C 
ATOM     16  H   UNL     1      -7.877   4.152   6.151  0.00  0.00    +0.155 HD
ENDROOT
BRANCH   1  17
ATOM     17  C   UNL     1      -4.060   2.347   4.692  0.00  0.00    +0.201 C 
BRANCH  17  28
ATOM     18  C   UNL     1       0.751   0.031   8.069  0.00  0.00    +0.044 C 
ATOM     19  C   UNL     1      -0.167   0.820   7.171  0.00  0.00    -0.050 A 
ATOM     20  C   UNL     1      -1.171   0.176   6.469  0.00  0.00    +0.005 A 
ATOM     21  C   UNL     1      -2.011   0.900   5.651  0.00  0.00    +0.023 A 
ATOM     22  C   UNL     1      -1.850   2.280   5.516  0.00  0.00    +0.033 A 
ATOM     23  C   UNL     1      -0.843   2.919   6.219  0.00  0.00    -0.026 A 
ATOM     24  C   UNL     1      -0.005   2.185   7.044  0.00  0.00    +0.008 A 
ATOM     25  C   UNL     1      -0.623   4.407   6.125  0.00  0.00    +0.038 C 
ATOM     26  C   UNL     1      -1.368   4.963   4.909  0.00  0.00    +0.024 C 
ATOM     27  C   UNL     1      -2.791   4.392   4.927  0.00  0.00    +0.106 C 
ATOM     28  N   UNL     1      -2.722   2.953   4.662  0.00  0.00    -0.321 N 
ENDBRANCH  17  28
ENDBRANCH   1  17
TORSDOF 2
