REMARK  Name = ZINC37929962
REMARK  6 active torsions:
REMARK  status: ('A' for Active; 'I' for Inactive)
REMARK    1  A    between atoms: C_1  and  C_2
REMARK    2  A    between atoms: N_5  and  S_8
REMARK    3  A    between atoms: S_8  and  C_11
REMARK    4  A    between atoms: C_13  and  N_20
REMARK    5  A    between atoms: C_16  and  N_17
REMARK    6  A    between atoms: N_20  and  N_21
REMARK                            x       y       z     vdW  Elec       q    Type
REMARK                         _______ _______ _______ _____ _____    ______ ____
ROOT
ATOM      1  C   UNL     1      -0.890  -5.261   1.449  0.00  0.00    +0.137 A 
ATOM      2  C   UNL     1      -0.483  -5.375   0.134  0.00  0.00    +0.055 A 
ATOM      3  C   UNL     1      -0.322  -6.632  -0.435  0.00  0.00    +0.043 A 
ATOM      4  C   UNL     1      -0.570  -7.771   0.322  0.00  0.00    +0.026 A 
ATOM      5  C   UNL     1      -0.976  -7.649   1.636  0.00  0.00    +0.036 A 
ATOM      6  C   UNL     1      -1.130  -6.396   2.201  0.00  0.00    +0.153 A 
ENDROOT
BRANCH   1   7
ATOM      7  S   UNL     1      -1.094  -3.667   2.172  0.00  0.00    +0.063 S 
ATOM      8  O   UNL     1      -0.315  -3.657   3.360  0.00  0.00    -0.153 OA
ATOM      9  O   UNL     1      -2.490  -3.399   2.174  0.00  0.00    -0.153 OA
BRANCH   7  14
ATOM     10  C   UNL     1       0.398   1.494   0.170  0.00  0.00    +0.007 C 
ATOM     11  C   UNL     1       0.344  -0.035   0.137  0.00  0.00    -0.012 C 
ATOM     12  C   UNL     1      -1.115  -0.493   0.079  0.00  0.00    +0.020 C 
ATOM     13  C   UNL     1      -1.163  -2.022   0.011  0.00  0.00    +0.110 C 
ATOM     14  N   UNL     1      -0.402  -2.571   1.143  0.00  0.00    -0.176 NA
ATOM     15  C   UNL     1       0.984  -2.126   1.343  0.00  0.00    +0.110 C 
ATOM     16  C   UNL     1       1.008  -0.595   1.396  0.00  0.00    +0.020 C 
ENDBRANCH   7  14
ENDBRANCH   1   7
BRANCH   6  17
ATOM     17  N   UNL     1      -1.560  -6.271   3.612  0.00  0.00    +0.058 N 
ATOM     18  O   UNL     1      -1.653  -7.256   4.306  0.00  0.00    -0.126 OA
ATOM     19  O   UNL     1      -1.818  -5.182   4.070  0.00  0.00    -0.126 OA
ENDBRANCH   6  17
BRANCH   3  20
ATOM     20  N   UNL     1       0.088  -6.751  -1.765  0.00  0.00    -0.283 N 
ATOM     21  H   UNL     1       0.261  -5.955  -2.292  0.00  0.00    +0.166 HD
BRANCH  20  22
ATOM     22  N   UNL     1       0.247  -7.988  -2.322  0.00  0.00    -0.257 NA
ATOM     23  H   UNL     1      -0.601  -8.530  -2.247  0.00  0.00    +0.140 HD
ATOM     24  H   UNL     1       0.545  -7.915  -3.284  0.00  0.00    +0.140 HD
ENDBRANCH  20  22
ENDBRANCH   3  20
TORSDOF 5
