REMARK  Name = ZINC65360779
REMARK  11 active torsions:
REMARK  status: ('A' for Active; 'I' for Inactive)
REMARK    1  A    between atoms: C_1  and  C_2
REMARK    2  A    between atoms: C_5  and  O_8
REMARK    3  A    between atoms: O_8  and  C_9
REMARK    4  A    between atoms: C_9  and  C_10
REMARK    5  A    between atoms: C_10  and  C_11
REMARK    6  A    between atoms: C_10  and  N_12
REMARK    7  A    between atoms: N_15  and  C_16
REMARK    8  A    between atoms: C_20  and  N_22
REMARK    9  A    between atoms: C_23  and  C_25
REMARK   10  A    between atoms: C_25  and  O_26
REMARK   11  A    between atoms: O_26  and  C_27
REMARK                            x       y       z     vdW  Elec       q    Type
REMARK                         _______ _______ _______ _____ _____    ______ ____
ROOT
ATOM      1  N   UNL     1      -1.173  -6.724   0.382  0.00  0.00    -0.293 N 
ATOM      2  C   UNL     1      -1.616  -7.987   0.541  0.00  0.00    +0.304 C 
ATOM      3  O   UNL     1      -0.974  -8.777   1.205  0.00  0.00    -0.252 OA
ATOM      4  N   UNL     1      -2.771  -8.373  -0.035  0.00  0.00    -0.269 N 
ATOM      5  H   UNL     1      -1.685  -6.093  -0.147  0.00  0.00    +0.151 HD
ATOM      6  H   UNL     1      -3.317  -7.726  -0.508  0.00  0.00    +0.156 HD
ENDROOT
BRANCH   4   7
ATOM      7  C   UNL     1      -3.183  -9.708   0.049  0.00  0.00    +0.037 A 
ATOM      8  C   UNL     1      -3.850 -10.298  -1.017  0.00  0.00    +0.023 A 
ATOM      9  C   UNL     1      -4.258 -11.615  -0.935  0.00  0.00    +0.004 A 
ATOM     10  C   UNL     1      -4.003 -12.350   0.207  0.00  0.00    +0.023 A 
ATOM     11  C   UNL     1      -3.337 -11.766   1.277  0.00  0.00    +0.035 A 
ATOM     12  C   UNL     1      -2.921 -10.444   1.195  0.00  0.00    +0.046 A 
BRANCH  11  13
ATOM     13  N   UNL     1      -3.080 -12.510   2.433  0.00  0.00    -0.284 N 
ATOM     14  C   UNL     1      -2.798 -13.825   2.340  0.00  0.00    +0.243 C 
ATOM     15  O   UNL     1      -2.848 -14.381   1.263  0.00  0.00    -0.273 OA
ATOM     16  H   UNL     1      -3.106 -12.080   3.302  0.00  0.00    +0.155 HD
BRANCH  14  17
ATOM     17  C   UNL     1      -2.419 -14.604   3.573  0.00  0.00    +0.255 C 
BRANCH  17  18
ATOM     18  O   UNL     1      -2.169 -15.965   3.218  0.00  0.00    -0.374 OA
ATOM     19  C   UNL     1      -1.800 -16.795   4.322  0.00  0.00    +0.194 C 
ENDBRANCH  17  18
ENDBRANCH  14  17
ENDBRANCH  11  13
ENDBRANCH   4   7
BRANCH   1  20
ATOM     20  C   UNL     1       0.083  -6.304   1.009  0.00  0.00    +0.109 C 
ATOM     21  C   UNL     1       1.256  -6.675   0.099  0.00  0.00    +0.031 C 
BRANCH  20  22
ATOM     22  C   UNL     1       0.064  -4.790   1.225  0.00  0.00    +0.251 C 
BRANCH  22  23
ATOM     23  O   UNL     1       0.034  -4.128  -0.042  0.00  0.00    -0.490 OA
BRANCH  23  28
ATOM     24  C   UNL     1      -0.051   1.503   0.016  0.00  0.00    +0.044 C 
ATOM     25  C   UNL     1      -0.028  -0.004   0.000  0.00  0.00    -0.050 A 
ATOM     26  C   UNL     1      -0.036  -0.682  -1.205  0.00  0.00    +0.007 A 
ATOM     27  C   UNL     1      -0.015  -2.063  -1.221  0.00  0.00    +0.046 A 
ATOM     28  C   UNL     1       0.014  -2.769  -0.028  0.00  0.00    +0.121 A 
ATOM     29  C   UNL     1       0.023  -2.087   1.180  0.00  0.00    +0.046 A 
ATOM     30  C   UNL     1       0.008  -0.705   1.191  0.00  0.00    +0.007 A 
ENDBRANCH  23  28
ENDBRANCH  22  23
ENDBRANCH  20  22
ENDBRANCH   1  20
TORSDOF 8
