REMARK  Name = ZINC45410211
REMARK  4 active torsions:
REMARK  status: ('A' for Active; 'I' for Inactive)
REMARK    1  A    between atoms: C_5  and  N_8
REMARK    2  A    between atoms: N_8  and  N_9
REMARK    3  A    between atoms: N_12  and  C_13
REMARK    4  A    between atoms: N_16  and  C_19
REMARK                            x       y       z     vdW  Elec       q    Type
REMARK                         _______ _______ _______ _____ _____    ______ ____
ROOT
ATOM      1  N   UNL     1       0.113  -2.801   0.401  0.00  0.00    -0.220 N 
ATOM      2  C   UNL     1       0.168  -4.144   0.489  0.00  0.00    +0.316 C 
ATOM      3  O   UNL     1      -0.808  -4.770   0.855  0.00  0.00    -0.251 OA
ATOM      4  N   UNL     1       1.305  -4.795   0.171  0.00  0.00    -0.296 N 
ATOM      5  H   UNL     1      -0.705  -2.333   0.629  0.00  0.00    +0.174 HD
ATOM      6  H   UNL     1       2.084  -4.295  -0.121  0.00  0.00    +0.151 HD
ENDROOT
BRANCH   4   7
ATOM      7  C   UNL     1       1.365  -6.255   0.267  0.00  0.00    +0.071 C 
ATOM      8  C   UNL     1       1.718  -6.660   1.701  0.00  0.00    +0.004 C 
ATOM      9  C   UNL     1       1.857  -8.182   1.776  0.00  0.00    -0.077 C 
ATOM     10  N   UNL     1       2.919  -8.626   0.865  0.00  0.00    +0.382 N 
ATOM     11  C   UNL     1       2.554  -8.304  -0.520  0.00  0.00    -0.077 C 
ATOM     12  C   UNL     1       2.442  -6.787  -0.683  0.00  0.00    +0.004 C 
ATOM     13  H   UNL     1       3.781  -8.157   1.101  0.00  0.00    -0.081 HD
BRANCH  10  14
ATOM     14  C   UNL     1       3.102 -10.077   0.997  0.00  0.00    -0.069 C 
ATOM     15  C   UNL     1       4.406 -10.570   1.627  0.00  0.00    -0.017 C 
ATOM     16  C   UNL     1       4.171 -10.737   0.125  0.00  0.00    -0.017 C 
ENDBRANCH  10  14
ENDBRANCH   4   7
BRANCH   1  17
ATOM     17  N   UNL     1       1.238  -2.080  -0.021  0.00  0.00    -0.261 N 
ATOM     18  H   UNL     1       2.028  -2.550  -0.328  0.00  0.00    +0.170 HD
BRANCH  17  23
ATOM     19  C   UNL     1       1.856   1.421  -0.968  0.00  0.00    +0.042 A 
ATOM     20  C   UNL     1       1.187   2.087   0.044  0.00  0.00    +0.044 A 
ATOM     21  C   UNL     1       0.536   1.373   1.034  0.00  0.00    +0.042 A 
ATOM     22  C   UNL     1       0.550  -0.009   1.015  0.00  0.00    +0.066 A 
ATOM     23  C   UNL     1       1.221  -0.681   0.001  0.00  0.00    +0.081 A 
ATOM     24  C   UNL     1       1.874   0.039  -0.992  0.00  0.00    +0.066 A 
ATOM     25 CL   UNL     1       2.713  -0.797  -2.262  0.00  0.00    -0.081 Cl
ATOM     26 CL   UNL     1      -0.267  -0.903   2.258  0.00  0.00    -0.081 Cl
ATOM     27 CL   UNL     1       1.167   3.823   0.072  0.00  0.00    -0.083 Cl
ENDBRANCH  17  23
ENDBRANCH   1  17
TORSDOF 4
