REMARK  Name = ZINC39388375
REMARK  9 active torsions:
REMARK  status: ('A' for Active; 'I' for Inactive)
REMARK    1  A    between atoms: C_1  and  O_2
REMARK    2  A    between atoms: O_2  and  C_3
REMARK    3  A    between atoms: C_3  and  C_5
REMARK    4  A    between atoms: C_3  and  C_11
REMARK    5  A    between atoms: C_15  and  C_18
REMARK    6  A    between atoms: C_18  and  C_19
REMARK    7  A    between atoms: C_19  and  C_20
REMARK    8  A    between atoms: N_22  and  C_23
REMARK    9  A    between atoms: C_23  and  C_24
REMARK                            x       y       z     vdW  Elec       q    Type
REMARK                         _______ _______ _______ _____ _____    ______ ____
ROOT
ATOM      1  C   UNL     1      -4.185  -1.843   3.602  0.00  0.00    +0.058 C 
ENDROOT
BRANCH   1   5
ATOM      2  C   UNL     1      -1.745  -0.825   1.457  0.00  0.00    +0.235 C 
ATOM      3  N   UNL     1      -1.842   0.474   2.174  0.00  0.00    -0.225 NA
ATOM      4  N   UNL     1      -2.804   0.169   3.247  0.00  0.00    -0.227 NA
ATOM      5  C   UNL     1      -3.760  -0.762   2.605  0.00  0.00    +0.202 C 
ATOM      6  O   UNL     1      -3.079  -1.362   1.491  0.00  0.00    -0.339 OA
ATOM      7  H   UNL     1      -0.948   0.744   2.556  0.00  0.00    +0.143 HD
ATOM      8  H   UNL     1      -2.344  -0.269   4.031  0.00  0.00    +0.143 HD
BRANCH   2   9
ATOM      9  C   UNL     1      -1.295  -0.603   0.011  0.00  0.00    +0.192 C 
BRANCH   9  10
ATOM     10  C   UNL     1      -1.242  -1.927  -0.707  0.00  0.00    -0.015 A 
ATOM     11  C   UNL     1      -0.159  -2.767  -0.530  0.00  0.00    +0.006 A 
ATOM     12  C   UNL     1      -0.110  -3.981  -1.188  0.00  0.00    +0.000 A 
ATOM     13  C   UNL     1      -1.146  -4.356  -2.024  0.00  0.00    +0.000 A 
ATOM     14  C   UNL     1      -2.230  -3.517  -2.200  0.00  0.00    +0.000 A 
ATOM     15  C   UNL     1      -2.280  -2.304  -1.538  0.00  0.00    +0.006 A 
ENDBRANCH   9  10
BRANCH   9  17
ATOM     16  C   UNL     1      -0.017   1.425   0.010  0.00  0.00    +0.195 C 
ATOM     17  O   UNL     1       0.002  -0.004   0.002  0.00  0.00    -0.371 OA
ENDBRANCH   9  17
ENDBRANCH   2   9
ENDBRANCH   1   5
BRANCH   1  18
ATOM     18  C   UNL     1      -5.238  -2.745   2.957  0.00  0.00    +0.099 C 
BRANCH  18  19
ATOM     19  C   UNL     1      -5.657  -3.809   3.939  0.00  0.00    +0.213 C 
ATOM     20  O   UNL     1      -5.161  -3.842   5.046  0.00  0.00    -0.276 OA
ATOM     21  N   UNL     1      -6.582  -4.724   3.588  0.00  0.00    -0.310 N 
ATOM     22  H   UNL     1      -6.978  -4.698   2.703  0.00  0.00    +0.149 HD
BRANCH  21  23
ATOM     23  C   UNL     1      -6.989  -5.758   4.542  0.00  0.00    +0.157 C 
BRANCH  23  24
ATOM     24  C   UNL     1      -8.027  -6.648   3.907  0.00  0.00    +0.034 A 
ATOM     25  H   UNL     1      -9.797  -5.611   4.268  0.00  0.00    +0.166 HD
ATOM     26  C   UNL     1      -7.770  -7.811   3.289  0.00  0.00    +0.032 A 
ATOM     27  C   UNL     1      -9.054  -8.341   2.823  0.00  0.00    -0.000 A 
ATOM     28  C   UNL     1      -9.435  -9.491   2.129  0.00  0.00    +0.010 A 
ATOM     29  C   UNL     1     -10.753  -9.702   1.838  0.00  0.00    +0.001 A 
ATOM     30  C   UNL     1     -11.717  -8.782   2.226  0.00  0.00    +0.002 A 
ATOM     31  C   UNL     1     -11.363  -7.641   2.912  0.00  0.00    +0.026 A 
ATOM     32  C   UNL     1     -10.027  -7.405   3.219  0.00  0.00    +0.047 A 
ATOM     33  N   UNL     1      -9.370  -6.392   3.881  0.00  0.00    -0.357 N 
ENDBRANCH  23  24
ENDBRANCH  21  23
ENDBRANCH  18  19
ENDBRANCH   1  18
TORSDOF 8
