REMARK  Name = ZINC62247450
REMARK  7 active torsions:
REMARK  status: ('A' for Active; 'I' for Inactive)
REMARK    1  A    between atoms: C_1  and  C_2
REMARK    2  A    between atoms: C_5  and  C_8
REMARK    3  A    between atoms: C_9  and  C_21
REMARK    4  A    between atoms: N_12  and  C_13
REMARK    5  A    between atoms: C_18  and  O_19
REMARK    6  A    between atoms: O_19  and  C_20
REMARK    7  A    between atoms: C_21  and  O_22
REMARK                            x       y       z     vdW  Elec       q    Type
REMARK                         _______ _______ _______ _____ _____    ______ ____
ROOT
ATOM      1  C   UNL     1      -0.038  -4.265   0.099  0.00  0.00    +0.100 A 
ATOM      2  C   UNL     1      -0.821  -5.091  -0.658  0.00  0.00    +0.116 A 
ATOM      3  N   UNL     1      -0.326  -6.322  -0.506  0.00  0.00    -0.131 NA
ATOM      4  N   UNL     1       0.688  -6.279   0.283  0.00  0.00    -0.060 NA
ATOM      5  N   UNL     1       0.908  -5.072   0.671  0.00  0.00    -0.208 N 
ENDROOT
BRANCH   1  10
ATOM      6  C   UNL     1      -0.592   1.429   0.731  0.00  0.00    +0.044 C 
ATOM      7  C   UNL     1      -0.446  -0.061   0.566  0.00  0.00    -0.050 A 
ATOM      8  C   UNL     1      -0.360  -0.609  -0.702  0.00  0.00    +0.004 A 
ATOM      9  C   UNL     1      -0.227  -1.973  -0.860  0.00  0.00    +0.010 A 
ATOM     10  C   UNL     1      -0.180  -2.801   0.262  0.00  0.00    +0.002 A 
ATOM     11  C   UNL     1      -0.267  -2.243   1.537  0.00  0.00    +0.010 A 
ATOM     12  C   UNL     1      -0.395  -0.876   1.682  0.00  0.00    +0.004 A 
ENDBRANCH   1  10
BRANCH   5  13
ATOM     13  C   UNL     1       1.936  -4.657   1.531  0.00  0.00    +0.109 A 
ATOM     14  C   UNL     1       2.718  -3.560   1.201  0.00  0.00    +0.031 A 
ATOM     15  C   UNL     1       3.729  -3.153   2.050  0.00  0.00    +0.002 A 
ATOM     16  C   UNL     1       3.965  -3.836   3.229  0.00  0.00    +0.004 A 
ATOM     17  C   UNL     1       3.190  -4.930   3.564  0.00  0.00    +0.048 A 
ATOM     18  C   UNL     1       2.170  -5.342   2.721  0.00  0.00    +0.145 A 
BRANCH  18  19
ATOM     19  O   UNL     1       1.403  -6.414   3.052  0.00  0.00    -0.493 OA
ATOM     20  C   UNL     1       1.700  -7.068   4.288  0.00  0.00    +0.277 C 
ENDBRANCH  18  19
ENDBRANCH   5  13
BRANCH   2  21
ATOM     21  C   UNL     1      -2.007  -4.692  -1.497  0.00  0.00    +0.215 C 
BRANCH  21  22
ATOM     22  O   UNL     1      -1.569  -4.369  -2.818  0.00  0.00    -0.389 OA
ATOM     23  H   UNL     1      -2.282  -4.102  -3.415  0.00  0.00    +0.210 HD
ENDBRANCH  21  22
ENDBRANCH   2  21
TORSDOF 5
