REMARK  Name = ZINC21095178
REMARK  7 active torsions:
REMARK  status: ('A' for Active; 'I' for Inactive)
REMARK    1  A    between atoms: C_1  and  O_2
REMARK    2  A    between atoms: O_2  and  C_3
REMARK    3  A    between atoms: C_10  and  C_14
REMARK    4  A    between atoms: N_16  and  C_17
REMARK    5  A    between atoms: C_17  and  C_18
REMARK    6  A    between atoms: C_18  and  O_19
REMARK    7  A    between atoms: O_19  and  C_20
REMARK                            x       y       z     vdW  Elec       q    Type
REMARK                         _______ _______ _______ _____ _____    ______ ____
ROOT
ATOM      1  C   UNL     1      -2.788   7.377   5.109  0.00  0.00    +0.220 C 
ATOM      2  O   UNL     1      -3.638   6.695   5.639  0.00  0.00    -0.275 OA
ATOM      3  N   UNL     1      -2.662   8.677   5.443  0.00  0.00    -0.313 N 
ATOM      4  H   UNL     1      -1.890   9.296   4.962  0.00  0.00    +0.149 HD
ENDROOT
BRANCH   1  12
ATOM      5  C   UNL     1      -0.787   2.893   1.346  0.00  0.00    +0.121 A 
ATOM      6  C   UNL     1      -0.259   3.751   0.394  0.00  0.00    +0.049 A 
ATOM      7  C   UNL     1      -0.367   5.116   0.563  0.00  0.00    +0.049 A 
ATOM      8  C   UNL     1      -1.005   5.636   1.685  0.00  0.00    +0.124 A 
ATOM      9  C   UNL     1      -1.534   4.779   2.633  0.00  0.00    -0.001 A 
ATOM     10  C   UNL     1      -1.429   3.409   2.460  0.00  0.00    +0.052 A 
ATOM     11  C   UNL     1      -2.238   5.302   3.859  0.00  0.00    +0.055 C 
ATOM     12  C   UNL     1      -1.872   6.773   4.076  0.00  0.00    +0.117 C 
ATOM     13  C   UNL     1      -2.037   7.512   2.742  0.00  0.00    +0.242 C 
ATOM     14  O   UNL     1      -1.085   6.987   1.816  0.00  0.00    -0.491 OA
BRANCH   5  16
ATOM     15  C   UNL     1      -0.013   1.086   0.008  0.00  0.00    +0.277 C 
ATOM     16  O   UNL     1      -0.682   1.547   1.184  0.00  0.00    -0.495 OA
ENDBRANCH   5  16
ENDBRANCH   1  12
BRANCH   3  17
ATOM     17  C   UNL     1      -3.552   9.265   6.447  0.00  0.00    +0.132 C 
BRANCH  17  18
ATOM     18  C   UNL     1      -3.200  10.742   6.639  0.00  0.00    +0.179 C 
BRANCH  18  19
ATOM     19  O   UNL     1      -3.469  11.456   5.431  0.00  0.00    -0.372 OA
BRANCH  19  20
ATOM     20  C   UNL     1      -3.172  12.852   5.503  0.00  0.00    +0.070 C 
ATOM     21  C   UNL     1      -4.016  13.496   6.605  0.00  0.00    +0.038 C 
ATOM     22  C   UNL     1      -3.699  14.991   6.682  0.00  0.00    -0.008 C 
ATOM     23  C   UNL     1      -4.023  15.651   5.341  0.00  0.00    +0.007 C 
ATOM     24  C   UNL     1      -3.179  15.007   4.239  0.00  0.00    -0.008 C 
ATOM     25  C   UNL     1      -3.496  13.512   4.161  0.00  0.00    +0.038 C 
ATOM     26  C   UNL     1      -1.695  15.198   4.556  0.00  0.00    +0.007 C 
ATOM     27  C   UNL     1      -1.371  14.538   5.897  0.00  0.00    -0.008 C 
ATOM     28  C   UNL     1      -2.215  15.181   6.999  0.00  0.00    +0.007 C 
ATOM     29  C   UNL     1      -1.688  13.043   5.820  0.00  0.00    +0.038 C 
ENDBRANCH  19  20
ENDBRANCH  18  19
ENDBRANCH  17  18
ENDBRANCH   3  17
TORSDOF 6
