REMARK  Name = ZINC16188642
REMARK  5 active torsions:
REMARK  status: ('A' for Active; 'I' for Inactive)
REMARK    1  A    between atoms: C_1  and  N_2
REMARK    2  A    between atoms: N_2  and  N_26
REMARK    3  A    between atoms: C_5  and  N_9
REMARK    4  A    between atoms: C_10  and  C_20
REMARK    5  A    between atoms: C_12  and  C_14
REMARK                            x       y       z     vdW  Elec       q    Type
REMARK                         _______ _______ _______ _____ _____    ______ ____
ROOT
ATOM      1  N   UNL     1      -1.120   2.249   0.120  0.00  0.00    -0.213 N 
ATOM      2  C   UNL     1       0.013   1.486   0.167  0.00  0.00    +0.077 A 
ATOM      3  C   UNL     1       1.078   2.321  -0.001  0.00  0.00    +0.058 A 
ATOM      4  C   UNL     1       0.579   3.628  -0.149  0.00  0.00    +0.094 A 
ATOM      5  N   UNL     1      -0.734   3.582  -0.073  0.00  0.00    -0.164 NA
ENDROOT
BRANCH   1  10
ATOM      6  C   UNL     1      -7.099   2.330   1.464  0.00  0.00    +0.151 C 
ATOM      7  N   UNL     1      -5.745   2.880   1.358  0.00  0.00    -0.257 N 
ATOM      8  C   UNL     1      -4.716   2.097   0.858  0.00  0.00    +0.140 A 
ATOM      9  C   UNL     1      -3.424   2.608   0.757  0.00  0.00    +0.093 A 
ATOM     10  C   UNL     1      -2.429   1.784   0.245  0.00  0.00    +0.160 A 
ATOM     11  N   UNL     1      -2.742   0.543  -0.119  0.00  0.00    -0.216 NA
ATOM     12  C   UNL     1      -3.975   0.094  -0.004  0.00  0.00    +0.225 A 
ATOM     13  N   UNL     1      -4.947   0.845   0.472  0.00  0.00    -0.219 NA
BRANCH   7  14
ATOM     14  N   UNL     1      -5.496   4.164   1.752  0.00  0.00    -0.253 NA
ATOM     15  H   UNL     1      -5.083   4.699   1.002  0.00  0.00    +0.141 HD
ATOM     16  H   UNL     1      -6.337   4.607   2.091  0.00  0.00    +0.141 HD
ENDBRANCH   7  14
ENDBRANCH   1  10
BRANCH   4  17
ATOM     17  C   UNL     1       1.395   4.850  -0.357  0.00  0.00    +0.002 A 
ATOM     18  C   UNL     1       2.784   4.762  -0.414  0.00  0.00    +0.010 A 
ATOM     19  C   UNL     1       3.538   5.902  -0.613  0.00  0.00    +0.001 A 
ATOM     20  C   UNL     1       2.917   7.130  -0.744  0.00  0.00    +0.000 A 
ATOM     21  C   UNL     1       1.538   7.224  -0.683  0.00  0.00    +0.001 A 
ATOM     22  C   UNL     1       0.774   6.091  -0.490  0.00  0.00    +0.010 A 
ENDBRANCH   4  17
BRANCH   2  23
ATOM     23  C   UNL     1       0.074   0.020   0.359  0.00  0.00    +0.001 A 
ATOM     24  C   UNL     1      -0.904  -0.628   1.114  0.00  0.00    +0.010 A 
ATOM     25  C   UNL     1      -0.846  -1.996   1.285  0.00  0.00    +0.001 A 
ATOM     26  C   UNL     1       0.187  -2.723   0.720  0.00  0.00    +0.000 A 
ATOM     27  C   UNL     1       1.163  -2.085  -0.025  0.00  0.00    +0.001 A 
ATOM     28  C   UNL     1       1.112  -0.719  -0.208  0.00  0.00    +0.010 A 
ENDBRANCH   2  23
TORSDOF 4
