REMARK  Name = ZINC50372196
REMARK  4 active torsions:
REMARK  status: ('A' for Active; 'I' for Inactive)
REMARK    1  A    between atoms: C_1  and  O_2
REMARK    2  A    between atoms: O_2  and  C_3
REMARK    3  A    between atoms: C_8  and  N_10
REMARK    4  A    between atoms: N_10  and  C_11
REMARK                            x       y       z     vdW  Elec       q    Type
REMARK                         _______ _______ _______ _____ _____    ______ ____
ROOT
ATOM      1  C   UNL     1       0.112  -3.482  -1.965  0.00  0.00    +0.049 C 
ATOM      2  C   UNL     1       1.516  -3.828  -2.404  0.00  0.00    -0.030 A 
ATOM      3  C   UNL     1       2.671  -4.114  -1.710  0.00  0.00    +0.022 A 
ATOM      4  C   UNL     1       3.837  -4.401  -2.397  0.00  0.00    +0.053 A 
ATOM      5  C   UNL     1       3.838  -4.399  -3.783  0.00  0.00    +0.139 A 
ATOM      6  C   UNL     1       2.681  -4.111  -4.480  0.00  0.00    +0.063 A 
ATOM      7  C   UNL     1       1.504  -3.822  -3.793  0.00  0.00    +0.038 A 
ATOM      8  N   UNL     1       0.228  -3.506  -4.263  0.00  0.00    -0.286 N 
ATOM      9  C   UNL     1      -0.647  -3.294  -3.261  0.00  0.00    +0.208 C 
ATOM     10  O   UNL     1      -1.819  -3.006  -3.374  0.00  0.00    -0.277 OA
ATOM     11  F   UNL     1       4.977  -4.678  -4.455  0.00  0.00    -0.204 F 
ATOM     12 BR   UNL     1       5.425  -4.796  -1.448  0.00  0.00    -0.047 Br
ATOM     13  H   UNL     1      -0.003  -3.447  -5.203  0.00  0.00    +0.155 HD
ENDROOT
BRANCH   1  14
ATOM     14  N   UNL     1       0.110  -2.240  -1.182  0.00  0.00    +0.393 N 
ATOM     15  H   UNL     1       0.423  -1.476  -1.762  0.00  0.00    -0.084 HD
ATOM     16  H   UNL     1       0.729  -2.338  -0.392  0.00  0.00    -0.084 HD
BRANCH  14  21
ATOM     17  C   UNL     1      -1.295  -0.603   0.011  0.00  0.00    +0.104 C 
ATOM     18  C   UNL     1      -1.739  -0.880   1.462  0.00  0.00    +0.030 C 
ATOM     19  C   UNL     1      -2.501  -2.226   1.376  0.00  0.00    +0.001 C 
ATOM     20  C   UNL     1      -1.671  -3.023   0.339  0.00  0.00    -0.013 C 
ATOM     21  C   UNL     1      -1.252  -1.965  -0.704  0.00  0.00    -0.041 C 
BRANCH  17  23
ATOM     22  C   UNL     1      -0.017   1.425   0.010  0.00  0.00    +0.194 C 
ATOM     23  O   UNL     1       0.002  -0.004   0.002  0.00  0.00    -0.381 OA
ENDBRANCH  17  23
ENDBRANCH  14  21
ENDBRANCH   1  14
TORSDOF 3
