REMARK  Name = ZINC12029582
REMARK  7 active torsions:
REMARK  status: ('A' for Active; 'I' for Inactive)
REMARK    1  A    between atoms: C_4  and  C_30
REMARK    2  A    between atoms: C_5  and  C_7
REMARK    3  A    between atoms: C_7  and  N_55
REMARK    4  A    between atoms: C_13  and  C_15
REMARK    5  A    between atoms: C_15  and  C_16
REMARK    6  A    between atoms: N_18  and  C_19
REMARK    7  A    between atoms: C_19  and  C_20
REMARK                            x       y       z     vdW  Elec       q    Type
REMARK                         _______ _______ _______ _____ _____    ______ ____
ROOT
ATOM      1  C   UNL     1      -0.724   2.650   1.018  0.00  0.00    -0.058 C 
ATOM      2  C   UNL     1      -1.090   1.245   0.530  0.00  0.00    +0.085 C 
ATOM      3  N   UNL     1       0.123   0.495   0.217  0.00  0.00    -0.318 N 
ATOM      4  C   UNL     1       1.305   1.082   0.001  0.00  0.00    +0.200 C 
ATOM      5  O   UNL     1       2.255   0.386  -0.290  0.00  0.00    -0.278 OA
ATOM      6  C   UNL     1       1.505   2.568   0.102  0.00  0.00    +0.028 C 
ATOM      7  H   UNL     1       0.068  -0.471   0.159  0.00  0.00    +0.149 HD
ATOM      8  N   UNL     1       0.198   3.247   0.031  0.00  0.00    +0.391 N 
ATOM      9  H   UNL     1      -0.193   3.124  -0.911  0.00  0.00    -0.080 HD
ENDROOT
BRANCH   8  10
ATOM     10  C   UNL     1       0.363   4.694   0.299  0.00  0.00    -0.041 C 
BRANCH  10  15
ATOM     11  C   UNL     1      -2.713   6.203   1.883  0.00  0.00    +0.000 A 
ATOM     12  C   UNL     1      -3.488   6.481   0.772  0.00  0.00    +0.001 A 
ATOM     13  C   UNL     1      -3.017   6.180  -0.491  0.00  0.00    +0.012 A 
ATOM     14  C   UNL     1      -1.770   5.602  -0.645  0.00  0.00    +0.056 A 
ATOM     15  C   UNL     1      -0.996   5.324   0.466  0.00  0.00    -0.052 A 
ATOM     16  C   UNL     1      -1.470   5.620   1.730  0.00  0.00    +0.002 A 
BRANCH  14  17
ATOM     17  C   UNL     1      -1.256   5.273  -2.023  0.00  0.00    +0.418 C 
ATOM     18  F   UNL     1      -2.181   5.705  -2.980  0.00  0.00    -0.166 F 
ATOM     19  F   UNL     1      -0.033   5.920  -2.231  0.00  0.00    -0.166 F 
ATOM     20  F   UNL     1      -1.077   3.890  -2.137  0.00  0.00    -0.166 F 
ENDBRANCH  14  17
ENDBRANCH  10  15
ENDBRANCH   8  10
BRANCH   6  21
ATOM     21  C   UNL     1       2.375   3.044  -1.064  0.00  0.00    +0.089 C 
BRANCH  21  22
ATOM     22  C   UNL     1       1.738   2.633  -2.366  0.00  0.00    +0.212 C 
ATOM     23  O   UNL     1       0.659   2.079  -2.365  0.00  0.00    -0.276 OA
ATOM     24  N   UNL     1       2.367   2.881  -3.532  0.00  0.00    -0.311 N 
ATOM     25  H   UNL     1       3.229   3.325  -3.533  0.00  0.00    +0.149 HD
BRANCH  24  26
ATOM     26  C   UNL     1       1.747   2.482  -4.798  0.00  0.00    +0.140 C 
BRANCH  26  27
ATOM     27  C   UNL     1       2.647   2.871  -5.942  0.00  0.00    -0.021 A 
ATOM     28  C   UNL     1       2.390   4.004  -6.662  0.00  0.00    +0.006 A 
ATOM     29  C   UNL     1       3.214   4.371  -7.717  0.00  0.00    +0.002 A 
ATOM     30  C   UNL     1       4.305   3.601  -8.058  0.00  0.00    +0.026 A 
ATOM     31  C   UNL     1       4.585   2.443  -7.339  0.00  0.00    +0.047 A 
ATOM     32  C   UNL     1       3.750   2.079  -6.267  0.00  0.00    +0.004 A 
ATOM     33  C   UNL     1       4.310   0.840  -5.721  0.00  0.00    +0.028 A 
ATOM     34  C   UNL     1       5.396   0.545  -6.453  0.00  0.00    +0.083 A 
ATOM     35  N   UNL     1       5.571   1.487  -7.429  0.00  0.00    -0.361 N 
ATOM     36  H   UNL     1       6.290   1.487  -8.081  0.00  0.00    +0.165 HD
ENDBRANCH  26  27
ENDBRANCH  24  26
ENDBRANCH  21  22
ENDBRANCH   6  21
TORSDOF 7
