REMARK  Name = ZINC35181093
REMARK  8 active torsions:
REMARK  status: ('A' for Active; 'I' for Inactive)
REMARK    1  A    between atoms: C_1  and  C_2
REMARK    2  A    between atoms: C_2  and  N_3
REMARK    3  A    between atoms: C_7  and  N_11
REMARK    4  A    between atoms: N_11  and  C_12
REMARK    5  A    between atoms: C_14  and  O_21
REMARK    6  A    between atoms: C_17  and  O_18
REMARK    7  A    between atoms: O_18  and  C_19
REMARK    8  A    between atoms: O_21  and  C_22
REMARK                            x       y       z     vdW  Elec       q    Type
REMARK                         _______ _______ _______ _____ _____    ______ ____
ROOT
ATOM      1  N   UNL     1       1.165  -0.325   4.507  0.00  0.00    -0.330 N 
ATOM      2  H   UNL     1       1.771   0.433   4.498  0.00  0.00    +0.147 HD
ENDROOT
BRANCH   1   7
ATOM      3  N   UNL     1       0.711  -0.489   1.189  0.00  0.00    -0.241 N 
ATOM      4  C   UNL     1       2.031  -0.708   1.205  0.00  0.00    +0.224 C 
ATOM      5  O   UNL     1       2.783  -0.536   0.270  0.00  0.00    -0.275 OA
ATOM      6  C   UNL     1       2.437  -1.202   2.577  0.00  0.00    +0.128 C 
ATOM      7  C   UNL     1       1.108  -1.232   3.358  0.00  0.00    +0.166 C 
ATOM      8  C   UNL     1       0.092  -0.746   2.348  0.00  0.00    +0.243 C 
ATOM      9  O   UNL     1      -1.095  -0.612   2.554  0.00  0.00    -0.273 OA
BRANCH   3  11
ATOM     10  C   UNL     1      -0.019   1.526   0.010  0.00  0.00    +0.025 C 
ATOM     11  C   UNL     1       0.002  -0.004   0.002  0.00  0.00    +0.113 C 
ENDBRANCH   3  11
ENDBRANCH   1   7
BRANCH   1  12
ATOM     12  C   UNL     1       0.344  -0.550   5.619  0.00  0.00    +0.074 A 
ATOM     13  C   UNL     1      -0.519  -1.636   5.636  0.00  0.00    +0.073 A 
ATOM     14  C   UNL     1      -1.331  -1.858   6.738  0.00  0.00    +0.140 A 
ATOM     15  C   UNL     1      -1.280  -0.994   7.823  0.00  0.00    +0.086 A 
ATOM     16  C   UNL     1      -0.419   0.089   7.808  0.00  0.00    +0.071 A 
ATOM     17  C   UNL     1       0.397   0.311   6.712  0.00  0.00    +0.142 A 
ATOM     18 CL   UNL     1      -2.297  -1.274   9.201  0.00  0.00    -0.080 Cl
BRANCH  17  19
ATOM     19  O   UNL     1       1.248   1.374   6.700  0.00  0.00    -0.493 OA
ATOM     20  C   UNL     1       1.250   2.216   7.855  0.00  0.00    +0.277 C 
ENDBRANCH  17  19
BRANCH  14  21
ATOM     21  O   UNL     1      -2.177  -2.922   6.755  0.00  0.00    -0.494 OA
ATOM     22  C   UNL     1      -2.178  -3.769   5.604  0.00  0.00    +0.277 C 
ENDBRANCH  14  21
ENDBRANCH   1  12
TORSDOF 5
