REMARK  Name = ZINC58236483
REMARK  10 active torsions:
REMARK  status: ('A' for Active; 'I' for Inactive)
REMARK    1  A    between atoms: C_1  and  C_2
REMARK    2  A    between atoms: C_2  and  C_3
REMARK    3  A    between atoms: C_2  and  O_4
REMARK    4  A    between atoms: O_4  and  C_5
REMARK    5  A    between atoms: C_5  and  C_6
REMARK    6  A    between atoms: C_14  and  C_15
REMARK    7  A    between atoms: N_17  and  C_18
REMARK    8  A    between atoms: C_18  and  C_19
REMARK    9  A    between atoms: C_18  and  C_20
REMARK   10  A    between atoms: C_23  and  N_26
REMARK                            x       y       z     vdW  Elec       q    Type
REMARK                         _______ _______ _______ _____ _____    ______ ____
ROOT
ATOM      1  C   UNL     1      -3.573  -1.248  -2.834  0.00  0.00    +0.280 C 
ATOM      2  O   UNL     1      -2.538  -0.664  -3.093  0.00  0.00    -0.267 OA
ATOM      3  N   UNL     1      -4.669  -1.047  -3.592  0.00  0.00    -0.302 N 
ATOM      4  H   UNL     1      -5.494  -1.513  -3.386  0.00  0.00    +0.150 HD
ENDROOT
BRANCH   1  13
ATOM      5  C   UNL     1      -2.590  -2.455  -0.864  0.00  0.00    +0.036 A 
ATOM      6  C   UNL     1      -3.102  -3.414   0.115  0.00  0.00    +0.026 A 
ATOM      7  C   UNL     1      -2.547  -4.075   1.212  0.00  0.00    +0.012 A 
ATOM      8  C   UNL     1      -3.315  -4.935   1.945  0.00  0.00    +0.001 A 
ATOM      9  C   UNL     1      -4.643  -5.155   1.606  0.00  0.00    +0.004 A 
ATOM     10  C   UNL     1      -5.210  -4.513   0.526  0.00  0.00    +0.047 A 
ATOM     11  C   UNL     1      -4.448  -3.633  -0.234  0.00  0.00    +0.136 A 
ATOM     12  O   UNL     1      -4.716  -2.878  -1.317  0.00  0.00    -0.450 OA
ATOM     13  C   UNL     1      -3.628  -2.175  -1.694  0.00  0.00    +0.196 A 
BRANCH   5  14
ATOM     14  C   UNL     1      -1.196  -1.889  -0.933  0.00  0.00    +0.200 C 
BRANCH  14  15
ATOM     15  O   UNL     1      -1.127  -0.696  -0.149  0.00  0.00    -0.372 OA
BRANCH  15  17
ATOM     16  C   UNL     1      -0.003   1.436   0.026  0.00  0.00    +0.037 C 
ATOM     17  C   UNL     1       0.160  -0.075  -0.147  0.00  0.00    +0.113 C 
ATOM     18  C   UNL     1       0.994  -0.634   1.007  0.00  0.00    +0.037 C 
ENDBRANCH  15  17
ENDBRANCH  14  15
ENDBRANCH   5  14
ENDBRANCH   1  13
BRANCH   3  19
ATOM     19  C   UNL     1      -4.614  -0.123  -4.728  0.00  0.00    +0.100 C 
ATOM     20  C   UNL     1      -4.870   1.303  -4.238  0.00  0.00    +0.033 C 
BRANCH  19  21
ATOM     21  C   UNL     1      -5.666  -0.505  -5.737  0.00  0.00    -0.027 A 
ATOM     22  C   UNL     1      -6.918  -0.907  -5.309  0.00  0.00    +0.007 A 
ATOM     23  C   UNL     1      -7.885  -1.257  -6.231  0.00  0.00    +0.023 A 
ATOM     24  C   UNL     1      -7.599  -1.205  -7.589  0.00  0.00    +0.035 A 
ATOM     25  C   UNL     1      -6.341  -0.800  -8.015  0.00  0.00    +0.023 A 
ATOM     26  C   UNL     1      -5.380  -0.446  -7.088  0.00  0.00    +0.007 A 
BRANCH  24  27
ATOM     27  N   UNL     1      -8.576  -1.559  -8.526  0.00  0.00    -0.270 N 
ATOM     28  C   UNL     1      -9.876  -1.308  -8.272  0.00  0.00    +0.301 C 
ATOM     29  O   UNL     1     -10.192  -0.688  -7.275  0.00  0.00    -0.253 OA
ATOM     30  N   UNL     1     -10.826  -1.744  -9.123  0.00  0.00    -0.313 N 
ATOM     31  H   UNL     1      -8.319  -1.986  -9.358  0.00  0.00    +0.156 HD
ATOM     32  H   UNL     1     -10.574  -2.239  -9.918  0.00  0.00    +0.146 HD
ATOM     33  H   UNL     1     -11.761  -1.564  -8.940  0.00  0.00    +0.146 HD
ENDBRANCH  24  27
ENDBRANCH  19  21
ENDBRANCH   3  19
TORSDOF 7
