REMARK  Name = ZINC20002967
REMARK  5 active torsions:
REMARK  status: ('A' for Active; 'I' for Inactive)
REMARK    1  A    between atoms: C_1  and  C_2
REMARK    2  A    between atoms: C_4  and  N_21
REMARK    3  A    between atoms: C_5  and  S_9
REMARK    4  A    between atoms: C_7  and  C_8
REMARK    5  A    between atoms: S_9  and  N_12
REMARK                            x       y       z     vdW  Elec       q    Type
REMARK                         _______ _______ _______ _____ _____    ______ ____
ROOT
ATOM      1  S   UNL     1      -1.389   2.201   0.051  0.00  0.00    +0.063 S 
ATOM      2  O   UNL     1      -1.173   3.517  -0.441  0.00  0.00    -0.153 OA
ATOM      3  O   UNL     1      -2.273   1.287  -0.582  0.00  0.00    -0.153 OA
ENDROOT
BRANCH   1   4
ATOM      4  N   UNL     1       0.094   1.466   0.101  0.00  0.00    -0.172 NA
ATOM      5  C   UNL     1       1.326   2.266   0.040  0.00  0.00    +0.115 C 
ATOM      6  C   UNL     1       2.075   2.102   1.372  0.00  0.00    +0.060 C 
ATOM      7  C   UNL     1       2.040   0.661   1.766  0.00  0.00    -0.004 A 
ATOM      8  C   UNL     1       1.227  -0.318   1.285  0.00  0.00    -0.021 A 
ATOM      9  C   UNL     1       1.391  -1.591   1.827  0.00  0.00    +0.013 A 
ATOM     10  C   UNL     1       2.326  -1.804   2.782  0.00  0.00    +0.046 A 
ATOM     11  S   UNL     1       3.039  -0.177   2.968  0.00  0.00    -0.101 S 
ATOM     12  C   UNL     1       0.198   0.004   0.202  0.00  0.00    +0.145 C 
ENDBRANCH   1   4
BRANCH   1  17
ATOM     13  C   UNL     1      -3.296   2.774   5.751  0.00  0.00    +0.044 C 
ATOM     14  C   UNL     1      -2.817   2.634   4.329  0.00  0.00    -0.046 A 
ATOM     15  C   UNL     1      -1.727   3.362   3.893  0.00  0.00    +0.028 A 
ATOM     16  C   UNL     1      -1.286   3.232   2.583  0.00  0.00    +0.051 A 
ATOM     17  C   UNL     1      -1.944   2.369   1.714  0.00  0.00    +0.126 A 
ATOM     18  C   UNL     1      -3.036   1.649   2.155  0.00  0.00    +0.034 A 
ATOM     19  C   UNL     1      -3.469   1.776   3.462  0.00  0.00    -0.046 A 
ATOM     20  C   UNL     1      -4.658   0.984   3.941  0.00  0.00    +0.044 C 
BRANCH  16  21
ATOM     21  N   UNL     1      -0.184   3.966   2.139  0.00  0.00    -0.356 N 
ATOM     22  H   UNL     1       0.164   3.862   1.101  0.00  0.00    +0.142 HD
ATOM     23  H   UNL     1       0.336   4.649   2.828  0.00  0.00    +0.142 HD
ENDBRANCH  16  21
ENDBRANCH   1  17
TORSDOF 3
