REMARK  Name = ZINC62319761
REMARK  9 active torsions:
REMARK  status: ('A' for Active; 'I' for Inactive)
REMARK    1  A    between atoms: C_1  and  C_2
REMARK    2  A    between atoms: C_2  and  C_4
REMARK    3  A    between atoms: C_2  and  O_23
REMARK    4  A    between atoms: C_4  and  N_5
REMARK    5  A    between atoms: C_6  and  C_8
REMARK    6  A    between atoms: N_10  and  C_20
REMARK    7  A    between atoms: C_15  and  N_19
REMARK    8  A    between atoms: C_20  and  C_21
REMARK    9  A    between atoms: C_20  and  C_22
REMARK                            x       y       z     vdW  Elec       q    Type
REMARK                         _______ _______ _______ _____ _____    ______ ____
ROOT
ATOM      1  C   UNL     1      -2.442  -4.367   0.237  0.00  0.00    +0.100 A 
ATOM      2  C   UNL     1      -3.619  -5.080   0.154  0.00  0.00    +0.103 A 
ATOM      3  N   UNL     1      -3.642  -6.420   0.128  0.00  0.00    -0.343 N 
ATOM      4  C   UNL     1      -2.497  -7.186   0.182  0.00  0.00    +0.055 A 
ATOM      5  C   UNL     1      -2.575  -8.575   0.152  0.00  0.00    +0.026 A 
ATOM      6  C   UNL     1      -1.426  -9.336   0.206  0.00  0.00    +0.004 A 
ATOM      7  C   UNL     1      -0.181  -8.736   0.290  0.00  0.00    +0.023 A 
ATOM      8  C   UNL     1      -0.074  -7.354   0.322  0.00  0.00    +0.037 A 
ATOM      9  C   UNL     1      -1.236  -6.571   0.268  0.00  0.00    +0.067 A 
ATOM     10  C   UNL     1      -1.167  -5.102   0.292  0.00  0.00    +0.203 A 
ATOM     11  O   UNL     1      -0.100  -4.518   0.361  0.00  0.00    -0.286 OA
ENDROOT
BRANCH   1  13
ATOM     12  N   UNL     1      -1.300  -2.208   0.226  0.00  0.00    -0.309 N 
ATOM     13  C   UNL     1      -2.459  -2.896   0.263  0.00  0.00    +0.249 C 
ATOM     14  O   UNL     1      -3.518  -2.301   0.318  0.00  0.00    -0.270 OA
ATOM     15  H   UNL     1      -0.454  -2.681   0.257  0.00  0.00    +0.149 HD
BRANCH  12  16
ATOM     16  C   UNL     1      -1.319  -0.746   0.137  0.00  0.00    +0.135 C 
BRANCH  16  18
ATOM     17  C   UNL     1       0.098   1.312   0.144  0.00  0.00    +0.039 C 
ATOM     18  C   UNL     1       0.116  -0.218   0.111  0.00  0.00    +0.128 C 
BRANCH  18  19
ATOM     19  O   UNL     1       0.765  -0.660  -1.083  0.00  0.00    -0.391 OA
ATOM     20  H   UNL     1       1.681  -0.362  -1.167  0.00  0.00    +0.210 HD
ENDBRANCH  18  19
ENDBRANCH  16  18
ENDBRANCH  12  16
ENDBRANCH   1  13
BRANCH   8  21
ATOM     21  N   UNL     1       1.175  -6.749   0.408  0.00  0.00    -0.357 N 
ATOM     22  H   UNL     1       1.969  -7.292   0.529  0.00  0.00    +0.142 HD
ATOM     23  H   UNL     1       1.252  -5.784   0.347  0.00  0.00    +0.142 HD
ENDBRANCH   8  21
BRANCH   3  24
ATOM     24  C   UNL     1      -4.937  -7.098   0.040  0.00  0.00    +0.081 C 
ATOM     25  C   UNL     1      -5.845  -6.612   1.172  0.00  0.00    +0.030 C 
ATOM     26  C   UNL     1      -5.588  -6.781  -1.308  0.00  0.00    +0.030 C 
ENDBRANCH   3  24
TORSDOF 6
