REMARK  Name = ZINC51713179
REMARK  3 active torsions:
REMARK  status: ('A' for Active; 'I' for Inactive)
REMARK    1  A    between atoms: C_2  and  C_11
REMARK    2  A    between atoms: C_11  and  N_12
REMARK    3  A    between atoms: C_19  and  C_22
REMARK                            x       y       z     vdW  Elec       q    Type
REMARK                         _______ _______ _______ _____ _____    ______ ____
ROOT
ATOM      1  N   UNL     1       1.148   4.077   1.394  0.00  0.00    -0.295 N 
ATOM      2  C   UNL     1       1.134   5.401   1.648  0.00  0.00    +0.303 C 
ATOM      3  O   UNL     1       1.209   6.197   0.731  0.00  0.00    -0.253 OA
ATOM      4  N   UNL     1       1.037   5.843   2.917  0.00  0.00    -0.281 N 
ATOM      5  C   UNL     1       1.067   4.904   4.050  0.00  0.00    +0.137 C 
ATOM      6  C   UNL     1       2.106   5.399   5.062  0.00  0.00    +0.180 C 
ATOM      7  O   UNL     1       1.839   6.768   5.378  0.00  0.00    -0.364 OA
ATOM      8  C   UNL     1       1.947   7.658   4.265  0.00  0.00    +0.221 C 
ATOM      9  C   UNL     1       0.905   7.278   3.212  0.00  0.00    +0.150 C 
ATOM     10  H   UNL     1       1.161   3.443   2.127  0.00  0.00    +0.151 HD
ENDROOT
BRANCH   8  11
ATOM     11  C   UNL     1       1.709   9.073   4.726  0.00  0.00    +0.241 C 
ATOM     12  O   UNL     1       1.381   9.289   5.873  0.00  0.00    -0.273 OA
ATOM     13  N   UNL     1       1.860  10.097   3.863  0.00  0.00    -0.327 N 
ATOM     14  H   UNL     1       2.122   9.924   2.945  0.00  0.00    +0.145 HD
ATOM     15  H   UNL     1       1.706  11.008   4.160  0.00  0.00    +0.145 HD
ENDBRANCH   8  11
BRANCH   1  16
ATOM     16  C   UNL     1       1.143   3.597   0.010  0.00  0.00    +0.141 C 
BRANCH  16  18
ATOM     17  C   UNL     1      -0.029   1.386   0.006  0.00  0.00    +0.054 A 
ATOM     18  C   UNL     1       1.161   2.090   0.001  0.00  0.00    -0.026 A 
ATOM     19  C   UNL     1       2.367   1.415  -0.013  0.00  0.00    +0.024 A 
ATOM     20  C   UNL     1       2.389   0.032  -0.021  0.00  0.00    +0.064 A 
ATOM     21  C   UNL     1       1.200  -0.680  -0.016  0.00  0.00    +0.180 A 
ATOM     22  C   UNL     1      -0.015   0.001  -0.002  0.00  0.00    +0.168 A 
ATOM     23  O   UNL     1      -1.028  -0.914   0.000  0.00  0.00    -0.453 OA
ATOM     24  C   UNL     1      -0.428  -2.153  -0.424  0.00  0.00    +0.466 C 
ATOM     25  O   UNL     1       0.948  -2.022  -0.022  0.00  0.00    -0.451 OA
ATOM     26 BR   UNL     1       4.041  -0.888  -0.040  0.00  0.00    -0.046 Br
ENDBRANCH  16  18
ENDBRANCH   1  16
TORSDOF 3
