REMARK  Name = ZINC01036607
REMARK  3 active torsions:
REMARK  status: ('A' for Active; 'I' for Inactive)
REMARK    1  A    between atoms: C_1  and  C_2
REMARK    2  A    between atoms: C_5  and  C_8
REMARK    3  A    between atoms: C_14  and  C_16
REMARK                            x       y       z     vdW  Elec       q    Type
REMARK                         _______ _______ _______ _____ _____    ______ ____
ROOT
ATOM      1  C   UNL     1       0.059  -4.243  -0.021  0.00  0.00    +0.041 C 
ATOM      2  C   UNL     1       0.178  -4.929   1.150  0.00  0.00    +0.130 C 
ATOM      3  C   UNL     1       0.316  -6.403   1.151  0.00  0.00    +0.279 C 
ATOM      4  O   UNL     1       0.085  -7.056   0.151  0.00  0.00    -0.267 OA
ATOM      5  N   UNL     1       0.708  -7.001   2.301  0.00  0.00    -0.230 N 
ATOM      6  N   UNL     1       0.968  -6.194   3.419  0.00  0.00    -0.248 N 
ATOM      7  C   UNL     1       0.551  -4.883   3.441  0.00  0.00    +0.143 C 
ATOM      8  N   UNL     1       0.177  -4.270   2.346  0.00  0.00    -0.226 NA
ATOM      9  H   UNL     1       0.807  -7.964   2.350  0.00  0.00    +0.173 HD
ATOM     10  H   UNL     1       1.443  -6.562   4.180  0.00  0.00    +0.172 HD
ENDROOT
BRANCH   1  15
ATOM     11  C   UNL     1       0.258   1.500  -0.019  0.00  0.00    +0.044 C 
ATOM     12  C   UNL     1       0.206  -0.006  -0.020  0.00  0.00    -0.050 A 
ATOM     13  C   UNL     1       0.492  -0.705   1.140  0.00  0.00    +0.004 A 
ATOM     14  C   UNL     1       0.446  -2.083   1.149  0.00  0.00    +0.008 A 
ATOM     15  C   UNL     1       0.110  -2.775  -0.021  0.00  0.00    -0.023 A 
ATOM     16  C   UNL     1      -0.178  -2.060  -1.190  0.00  0.00    +0.008 A 
ATOM     17  C   UNL     1      -0.133  -0.683  -1.179  0.00  0.00    +0.004 A 
ENDBRANCH   1  15
BRANCH   7  18
ATOM     18  C   UNL     1       0.533  -4.151   4.724  0.00  0.00    +0.016 A 
ATOM     19  C   UNL     1       0.940  -4.785   5.899  0.00  0.00    +0.011 A 
ATOM     20  C   UNL     1       0.920  -4.096   7.094  0.00  0.00    +0.001 A 
ATOM     21  C   UNL     1       0.498  -2.778   7.129  0.00  0.00    +0.000 A 
ATOM     22  C   UNL     1       0.093  -2.144   5.968  0.00  0.00    +0.001 A 
ATOM     23  C   UNL     1       0.113  -2.820   4.766  0.00  0.00    +0.011 A 
ENDBRANCH   7  18
TORSDOF 2
