REMARK  Name = ZINC65478449
REMARK  6 active torsions:
REMARK  status: ('A' for Active; 'I' for Inactive)
REMARK    1  A    between atoms: C_1  and  C_2
REMARK    2  A    between atoms: N_5  and  C_8
REMARK    3  A    between atoms: C_8  and  C_9
REMARK    4  A    between atoms: C_8  and  C_10
REMARK    5  A    between atoms: C_10  and  N_11
REMARK    6  A    between atoms: C_20  and  C_22
REMARK                            x       y       z     vdW  Elec       q    Type
REMARK                         _______ _______ _______ _____ _____    ______ ____
ROOT
ATOM      1  N   UNL     1       1.973  -2.893   2.401  0.00  0.00    -0.301 N 
ATOM      2  C   UNL     1       2.653  -3.094   3.547  0.00  0.00    +0.302 C 
ATOM      3  O   UNL     1       3.803  -3.487   3.510  0.00  0.00    -0.253 OA
ATOM      4  N   UNL     1       2.058  -2.860   4.733  0.00  0.00    -0.283 N 
ATOM      5  C   UNL     1       0.638  -2.487   4.797  0.00  0.00    +0.128 C 
ATOM      6  C   UNL     1      -0.086  -3.473   5.723  0.00  0.00    +0.127 C 
ATOM      7  N   UNL     1       0.674  -3.585   6.976  0.00  0.00    -0.298 N 
ATOM      8  C   UNL     1       2.095  -3.958   6.912  0.00  0.00    +0.127 C 
ATOM      9  C   UNL     1       2.817  -2.978   5.986  0.00  0.00    +0.128 C 
ATOM     10  C   UNL     1       0.080  -3.350   8.162  0.00  0.00    +0.219 C 
ATOM     11  O   UNL     1      -1.114  -3.142   8.211  0.00  0.00    -0.275 OA
ATOM     12  H   UNL     1       1.035  -2.650   2.430  0.00  0.00    +0.150 HD
ENDROOT
BRANCH  10  13
ATOM     13  C   UNL     1       0.898  -3.347   9.428  0.00  0.00    +0.075 C 
ATOM     14  C   UNL     1       1.408  -4.762   9.709  0.00  0.00    +0.013 C 
ATOM     15  C   UNL     1       2.239  -4.759  10.994  0.00  0.00    +0.001 C 
ATOM     16  C   UNL     1       1.370  -4.288  12.162  0.00  0.00    +0.000 C 
ATOM     17  C   UNL     1       0.860  -2.873  11.880  0.00  0.00    +0.001 C 
ATOM     18  C   UNL     1       0.029  -2.877  10.596  0.00  0.00    +0.013 C 
ENDBRANCH  10  13
BRANCH   1  19
ATOM     19  C   UNL     1       2.651  -3.043   1.111  0.00  0.00    +0.090 C 
BRANCH  19  20
ATOM     20  C   UNL     1       1.699  -2.639  -0.016  0.00  0.00    -0.054 C 
ATOM     21  C   UNL     1       2.431  -2.720  -1.357  0.00  0.00    -0.012 C 
BRANCH  20  26
ATOM     22  C   UNL     1       0.353   2.900  -0.216  0.00  0.00    +0.007 C 
ATOM     23  C   UNL     1       0.883   1.508  -0.566  0.00  0.00    -0.018 C 
ATOM     24  C   UNL     1       1.915   1.075   0.480  0.00  0.00    -0.016 C 
ATOM     25  C   UNL     1       2.382  -0.349   0.170  0.00  0.00    -0.078 C 
ATOM     26  N   UNL     1       1.234  -1.263   0.205  0.00  0.00    +0.382 N 
ATOM     27  C   UNL     1       0.274  -0.897  -0.843  0.00  0.00    -0.078 C 
ATOM     28  C   UNL     1      -0.275   0.505  -0.571  0.00  0.00    -0.016 C 
ATOM     29  H   UNL     1       0.785  -1.202   1.107  0.00  0.00    -0.081 HD
ENDBRANCH  20  26
ENDBRANCH  19  20
ENDBRANCH   1  19
TORSDOF 4
