REMARK  Name = ZINC31668998
REMARK  7 active torsions:
REMARK  status: ('A' for Active; 'I' for Inactive)
REMARK    1  A    between atoms: C_1  and  N_2
REMARK    2  A    between atoms: C_6  and  S_12
REMARK    3  A    between atoms: S_12  and  N_15
REMARK    4  A    between atoms: N_15  and  C_16
REMARK    5  A    between atoms: N_15  and  C_21
REMARK    6  A    between atoms: C_16  and  C_17
REMARK    7  A    between atoms: C_17  and  C_18
REMARK                            x       y       z     vdW  Elec       q    Type
REMARK                         _______ _______ _______ _____ _____    ______ ____
ROOT
ATOM      1  S   UNL     1       3.745  -2.141   0.671  0.00  0.00    +0.075 S 
ATOM      2  O   UNL     1       4.990  -2.444   1.284  0.00  0.00    -0.150 OA
ATOM      3  O   UNL     1       2.530  -2.076   1.405  0.00  0.00    -0.150 OA
ENDROOT
BRANCH   1   9
ATOM      4  C   UNL     1       2.147  -6.864  -4.285  0.00  0.00    +0.156 C 
ATOM      5  N   UNL     1       3.243  -6.171  -3.602  0.00  0.00    -0.277 N 
ATOM      6  C   UNL     1       3.114  -5.224  -2.586  0.00  0.00    +0.090 A 
ATOM      7  C   UNL     1       2.023  -4.668  -1.936  0.00  0.00    +0.031 A 
ATOM      8  C   UNL     1       2.220  -3.732  -0.940  0.00  0.00    +0.031 A 
ATOM      9  C   UNL     1       3.503  -3.341  -0.597  0.00  0.00    +0.112 A 
ATOM     10  C   UNL     1       4.595  -3.890  -1.240  0.00  0.00    +0.077 A 
ATOM     11  C   UNL     1       4.407  -4.835  -2.238  0.00  0.00    +0.159 A 
ATOM     12  O   UNL     1       5.263  -5.531  -3.025  0.00  0.00    -0.407 OA
ATOM     13  C   UNL     1       4.559  -6.331  -3.842  0.00  0.00    +0.421 A 
ATOM     14  O   UNL     1       5.036  -7.083  -4.670  0.00  0.00    -0.223 OA
ENDBRANCH   1   9
BRANCH   1  15
ATOM     15  N   UNL     1       3.928  -0.673  -0.073  0.00  0.00    -0.203 N 
BRANCH  15  16
ATOM     16  C   UNL     1       2.813   0.135  -0.307  0.00  0.00    +0.051 A 
ATOM     17  C   UNL     1       1.553  -0.437  -0.432  0.00  0.00    +0.025 A 
ATOM     18  C   UNL     1       0.452   0.365  -0.664  0.00  0.00    +0.002 A 
ATOM     19  C   UNL     1       0.604   1.735  -0.773  0.00  0.00    +0.000 A 
ATOM     20  C   UNL     1       1.857   2.307  -0.650  0.00  0.00    +0.002 A 
ATOM     21  C   UNL     1       2.961   1.512  -0.417  0.00  0.00    +0.025 A 
ENDBRANCH  15  16
BRANCH  15  22
ATOM     22  C   UNL     1       5.259  -0.221  -0.484  0.00  0.00    +0.141 C 
BRANCH  22  23
ATOM     23  C   UNL     1       5.856   0.668   0.608  0.00  0.00    +0.116 C 
BRANCH  23  24
ATOM     24  C   UNL     1       7.226   1.133   0.184  0.00  0.00    +0.212 C 
ATOM     25  O   UNL     1       7.680   0.787  -0.886  0.00  0.00    -0.276 OA
ATOM     26  N   UNL     1       7.947   1.933   0.995  0.00  0.00    -0.329 N 
ATOM     27  H   UNL     1       8.946   2.272   0.686  0.00  0.00    +0.145 HD
ATOM     28  H   UNL     1       7.535   2.247   1.966  0.00  0.00    +0.145 HD
ENDBRANCH  23  24
ENDBRANCH  22  23
ENDBRANCH  15  22
ENDBRANCH   1  15
TORSDOF 6
