REMARK  Name = ZINC37580958
REMARK  10 active torsions:
REMARK  status: ('A' for Active; 'I' for Inactive)
REMARK    1  A    between atoms: C_1  and  C_2
REMARK    2  A    between atoms: C_5  and  C_17
REMARK    3  A    between atoms: C_7  and  S_8
REMARK    4  A    between atoms: S_8  and  N_11
REMARK    5  A    between atoms: N_11  and  C_12
REMARK    6  A    between atoms: C_12  and  C_13
REMARK    7  A    between atoms: C_13  and  O_15
REMARK    8  A    between atoms: O_15  and  C_16
REMARK    9  A    between atoms: C_18  and  C_19
REMARK   10  A    between atoms: C_19  and  N_20
REMARK                            x       y       z     vdW  Elec       q    Type
REMARK                         _______ _______ _______ _____ _____    ______ ____
ROOT
ATOM      1  C   UNL     1      -0.490   1.390  -0.054  0.00  0.00    +0.046 C 
ATOM      2  C   UNL     1      -0.350  -0.111  -0.035  0.00  0.00    -0.024 A 
ATOM      3  C   UNL     1      -0.548  -0.836  -1.197  0.00  0.00    +0.006 A 
ATOM      4  C   UNL     1      -0.421  -2.209  -1.186  0.00  0.00    +0.017 A 
ATOM      5  C   UNL     1      -0.093  -2.868  -0.000  0.00  0.00    +0.027 A 
ATOM      6  C   UNL     1       0.105  -2.131   1.168  0.00  0.00    +0.045 A 
ATOM      7  C   UNL     1      -0.020  -0.757   1.143  0.00  0.00    +0.109 A 
ENDROOT
BRANCH   7   8
ATOM      8  S   UNL     1       0.237   0.177   2.615  0.00  0.00    +0.059 S 
ATOM      9  O   UNL     1       0.525  -0.760   3.644  0.00  0.00    -0.153 OA
ATOM     10  O   UNL     1       1.124   1.234   2.277  0.00  0.00    -0.153 OA
BRANCH   8  11
ATOM     11  N   UNL     1      -1.210   0.880   3.007  0.00  0.00    -0.179 NA
ATOM     12  H   UNL     1      -1.297   1.846   3.000  0.00  0.00    +0.149 HD
BRANCH  11  13
ATOM     13  C   UNL     1      -2.359   0.044   3.364  0.00  0.00    +0.226 C 
BRANCH  13  14
ATOM     14  C   UNL     1      -3.405   0.890   4.043  0.00  0.00    +0.323 C 
ATOM     15  O   UNL     1      -3.211   2.071   4.211  0.00  0.00    -0.249 OA
BRANCH  14  16
ATOM     16  O   UNL     1      -4.552   0.332   4.460  0.00  0.00    -0.467 OA
ATOM     17  C   UNL     1      -5.499   1.194   5.096  0.00  0.00    +0.280 C 
ENDBRANCH  14  16
ENDBRANCH  13  14
ENDBRANCH  11  13
ENDBRANCH   8  11
ENDBRANCH   7   8
BRANCH   5  18
ATOM     18  C   UNL     1       0.039  -4.293   0.018  0.00  0.00    -0.068 C 
ATOM     19  C   UNL     1       0.148  -5.462   0.033  0.00  0.00    -0.117 C 
BRANCH  19  20
ATOM     20  C   UNL     1       0.284  -6.928   0.051  0.00  0.00    +0.005 C 
BRANCH  20  21
ATOM     21  N   UNL     1       0.631  -7.370   1.408  0.00  0.00    +0.385 N 
ATOM     22  H   UNL     1      -0.097  -7.092   2.049  0.00  0.00    -0.089 HD
ATOM     23  H   UNL     1       0.725  -8.375   1.421  0.00  0.00    -0.089 HD
ATOM     24  H   UNL     1       1.504  -6.948   1.687  0.00  0.00    -0.089 HD
ENDBRANCH  20  21
ENDBRANCH  19  20
ENDBRANCH   5  18
TORSDOF 8
