REMARK  Name = ZINC39217318
REMARK  2 active torsions:
REMARK  status: ('A' for Active; 'I' for Inactive)
REMARK    1  A    between atoms: C_11  and  C_17
REMARK    2  A    between atoms: C_22  and  C_23
REMARK                            x       y       z     vdW  Elec       q    Type
REMARK                         _______ _______ _______ _____ _____    ______ ____
ROOT
ATOM      1  C   UNL     1       0.203   0.951   1.453  0.00  0.00    +0.002 A 
ATOM      2  C   UNL     1       1.355   1.703   1.316  0.00  0.00    +0.002 A 
ATOM      3  C   UNL     1       2.556   1.086   1.029  0.00  0.00    +0.025 A 
ATOM      4  C   UNL     1       2.616  -0.293   0.868  0.00  0.00    +0.055 A 
ATOM      5  C   UNL     1       1.450  -1.050   0.993  0.00  0.00    +0.051 A 
ATOM      6  C   UNL     1       0.249  -0.421   1.294  0.00  0.00    +0.025 A 
ATOM      7  N   UNL     1       1.732  -2.404   0.750  0.00  0.00    -0.309 N 
ATOM      8  C   UNL     1       3.138  -2.489   0.353  0.00  0.00    +0.254 C 
ATOM      9  N   UNL     1       3.688  -1.144   0.617  0.00  0.00    -0.275 N 
ATOM     10  C   UNL     1       5.128  -0.864   0.650  0.00  0.00    +0.178 C 
ATOM     11  N   UNL     1       5.735  -1.938   1.468  0.00  0.00    -0.300 N 
ATOM     12  C   UNL     1       5.257  -3.227   1.295  0.00  0.00    +0.155 C 
ATOM     13  N   UNL     1       3.878  -3.429   1.215  0.00  0.00    -0.285 N 
ATOM     14  N   UNL     1       6.075  -4.237   1.200  0.00  0.00    -0.375 N 
ATOM     15  H   UNL     1       1.111  -3.145   0.830  0.00  0.00    +0.149 HD
ATOM     16  H   UNL     1       6.443  -1.746   2.102  0.00  0.00    +0.150 HD
ATOM     17  H   UNL     1       7.033  -4.091   1.249  0.00  0.00    +0.158 HD
ATOM     18  H   UNL     1       3.429  -4.135   1.706  0.00  0.00    +0.152 HD
ATOM     19  H   UNL     1       5.726  -5.134   1.079  0.00  0.00    +0.158 HD
ENDROOT
BRANCH  10  20
ATOM     20  C   UNL     1       5.703  -0.890  -0.767  0.00  0.00    +0.121 C 
ATOM     21  C   UNL     1       5.669  -2.297  -1.332  0.00  0.00    +0.121 C 
ATOM     22  N   UNL     1       6.900  -2.621  -1.562  0.00  0.00    -0.161 NA
ATOM     23  N   UNL     1       7.790  -1.607  -1.225  0.00  0.00    -0.153 NA
ATOM     24  C   UNL     1       7.180  -0.550  -0.752  0.00  0.00    +0.082 C 
BRANCH  24  25
ATOM     25  C   UNL     1       7.797   0.706  -0.297  0.00  0.00    +0.001 A 
ATOM     26  C   UNL     1       6.994   1.797   0.053  0.00  0.00    +0.010 A 
ATOM     27  C   UNL     1       7.578   2.971   0.479  0.00  0.00    +0.003 A 
ATOM     28  C   UNL     1       8.956   3.074   0.560  0.00  0.00    +0.038 A 
ATOM     29  C   UNL     1       9.759   1.998   0.214  0.00  0.00    +0.124 A 
ATOM     30  C   UNL     1       9.188   0.814  -0.209  0.00  0.00    +0.048 A 
ATOM     31  F   UNL     1      11.103   2.108   0.296  0.00  0.00    -0.205 F 
ENDBRANCH  24  25
ENDBRANCH  10  20
TORSDOF 2
