REMARK  Name = ZINC09359670
REMARK  3 active torsions:
REMARK  status: ('A' for Active; 'I' for Inactive)
REMARK    1  A    between atoms: C_15  and  C_17
REMARK    2  A    between atoms: N_19  and  C_20
REMARK    3  A    between atoms: N_29  and  C_32
REMARK                            x       y       z     vdW  Elec       q    Type
REMARK                         _______ _______ _______ _____ _____    ______ ____
ROOT
ATOM      1  C   UNL     1      -3.853  -3.611  -0.398  0.00  0.00    +0.001 A 
ATOM      2  C   UNL     1      -3.730  -3.057  -1.660  0.00  0.00    +0.000 A 
ATOM      3  C   UNL     1      -3.494  -1.701  -1.805  0.00  0.00    +0.006 A 
ATOM      4  C   UNL     1      -3.378  -0.896  -0.692  0.00  0.00    -0.021 A 
ATOM      5  C   UNL     1      -3.484  -1.451   0.587  0.00  0.00    -0.019 A 
ATOM      6  C   UNL     1      -3.732  -2.819   0.724  0.00  0.00    +0.008 A 
ATOM      7  C   UNL     1      -3.308  -0.613   1.789  0.00  0.00    +0.022 C 
ATOM      8  C   UNL     1      -2.781   0.609   1.665  0.00  0.00    +0.054 C 
ATOM      9  C   UNL     1      -3.140   0.583  -0.841  0.00  0.00    +0.100 C 
ATOM     10  C   UNL     1      -2.189   0.949  -1.928  0.00  0.00    +0.113 C 
ATOM     11  C   UNL     1      -1.708   2.363  -1.386  0.00  0.00    +0.118 C 
ATOM     12  C   UNL     1      -1.330   1.945   0.012  0.00  0.00    +0.156 C 
ATOM     13  C   UNL     1      -0.812   2.711  -2.502  0.00  0.00    +0.232 C 
ATOM     14  O   UNL     1       0.243   3.303  -2.441  0.00  0.00    -0.274 OA
ATOM     15  N   UNL     1      -1.431   2.224  -3.625  0.00  0.00    -0.208 N 
ATOM     16  C   UNL     1      -2.421   1.322  -3.329  0.00  0.00    +0.232 C 
ATOM     17  O   UNL     1      -3.297   0.921  -4.065  0.00  0.00    -0.274 OA
ATOM     18  N   UNL     1      -2.666   1.315   0.316  0.00  0.00    -0.383 NA
ATOM     19  H   UNL     1      -3.317   2.105   0.399  0.00  0.00    +0.127 HD
ENDROOT
BRANCH  15  20
ATOM     20  C   UNL     1      -1.088   2.605  -4.930  0.00  0.00    +0.062 A 
ATOM     21  C   UNL     1      -1.722   3.685  -5.528  0.00  0.00    +0.025 A 
ATOM     22  C   UNL     1      -1.380   4.061  -6.812  0.00  0.00    +0.002 A 
ATOM     23  C   UNL     1      -0.414   3.356  -7.507  0.00  0.00    +0.002 A 
ATOM     24  C   UNL     1       0.216   2.277  -6.917  0.00  0.00    +0.022 A 
ATOM     25  C   UNL     1      -0.118   1.898  -5.630  0.00  0.00    +0.063 A 
ATOM     26 CL   UNL     1       0.673   0.542  -4.889  0.00  0.00    -0.082 Cl
ENDBRANCH  15  20
BRANCH  12  27
ATOM     27  C   UNL     1      -0.014   1.209   0.011  0.00  0.00    +0.237 C 
ATOM     28  O   UNL     1       0.002  -0.004   0.013  0.00  0.00    -0.273 OA
ATOM     29  N   UNL     1       1.143   1.898   0.001  0.00  0.00    -0.284 N 
ATOM     30  H   UNL     1       1.131   2.866  -0.068  0.00  0.00    +0.155 HD
BRANCH  29  31
ATOM     31  C   UNL     1       2.364   1.218   0.092  0.00  0.00    +0.034 A 
ATOM     32  C   UNL     1       3.429   1.789   0.776  0.00  0.00    +0.025 A 
ATOM     33  C   UNL     1       4.630   1.114   0.868  0.00  0.00    +0.022 A 
ATOM     34  C   UNL     1       4.776  -0.125   0.270  0.00  0.00    +0.041 A 
ATOM     35  C   UNL     1       3.718  -0.694  -0.418  0.00  0.00    +0.022 A 
ATOM     36  C   UNL     1       2.513  -0.025  -0.508  0.00  0.00    +0.025 A 
ATOM     37 CL   UNL     1       6.290  -0.968   0.381  0.00  0.00    -0.084 Cl
ENDBRANCH  29  31
ENDBRANCH  12  27
TORSDOF 3
