REMARK  Name = ZINC12425048
REMARK  7 active torsions:
REMARK  status: ('A' for Active; 'I' for Inactive)
REMARK    1  A    between atoms: C_10  and  C_13
REMARK    2  A    between atoms: C_13  and  C_14
REMARK    3  A    between atoms: C_14  and  O_16
REMARK    4  A    between atoms: O_16  and  C_17
REMARK    5  A    between atoms: C_17  and  C_18
REMARK    6  A    between atoms: N_20  and  C_21
REMARK    7  A    between atoms: C_22  and  C_29
REMARK                            x       y       z     vdW  Elec       q    Type
REMARK                         _______ _______ _______ _____ _____    ______ ____
ROOT
ATOM      1  C   UNL     1      -1.767   2.181   4.957  0.00  0.00    +0.328 C 
ENDROOT
BRANCH   1   2
ATOM      2  C   UNL     1      -2.232   2.445   3.548  0.00  0.00    +0.255 C 
ATOM      3  O   UNL     1      -3.276   3.030   3.353  0.00  0.00    -0.272 OA
ATOM      4  N   UNL     1      -1.487   2.030   2.504  0.00  0.00    -0.277 N 
ATOM      5  H   UNL     1      -0.651   1.562   2.660  0.00  0.00    +0.155 HD
BRANCH   4   6
ATOM      6  C   UNL     1      -1.914   2.273   1.208  0.00  0.00    +0.084 A 
ATOM      7  C   UNL     1      -1.294   1.929   0.019  0.00  0.00    +0.068 A 
ATOM      8  C   UNL     1      -1.958   2.310  -1.227  0.00  0.00    -0.023 A 
ATOM      9  C   UNL     1      -3.127   2.960  -1.075  0.00  0.00    -0.004 A 
ATOM     10  S   UNL     1      -3.352   3.080   0.682  0.00  0.00    -0.077 S 
ATOM     11  C   UNL     1      -3.749   3.317  -2.398  0.00  0.00    +0.043 C 
ATOM     12  C   UNL     1      -2.593   3.188  -3.418  0.00  0.00    +0.010 C 
ATOM     13  C   UNL     1      -1.679   2.159  -2.723  0.00  0.00    +0.037 C 
BRANCH   7  14
ATOM     14  C   UNL     1      -0.014   1.213   0.009  0.00  0.00    +0.244 C 
ATOM     15  O   UNL     1       0.002  -0.004   0.002  0.00  0.00    -0.270 OA
ATOM     16  N   UNL     1       1.143   1.903   0.001  0.00  0.00    -0.325 N 
ATOM     17  H   UNL     1       1.990   1.429  -0.009  0.00  0.00    +0.145 HD
ATOM     18  H   UNL     1       1.130   2.873   0.007  0.00  0.00    +0.145 HD
ENDBRANCH   7  14
ENDBRANCH   4   6
ENDBRANCH   1   2
BRANCH   1  19
ATOM     19  O   UNL     1      -2.735   2.721   5.895  0.00  0.00    -0.455 OA
BRANCH  19  20
ATOM     20  C   UNL     1      -2.469   2.568   7.202  0.00  0.00    +0.309 C 
ATOM     21  O   UNL     1      -1.460   2.003   7.550  0.00  0.00    -0.251 OA
BRANCH  20  22
ATOM     22  C   UNL     1      -3.428   3.103   8.234  0.00  0.00    +0.144 C 
BRANCH  22  32
ATOM     23  C   UNL     1      -2.802   7.937  10.606  0.00  0.00    +0.002 A 
ATOM     24  C   UNL     1      -1.556   7.726  10.045  0.00  0.00    +0.001 A 
ATOM     25  C   UNL     1      -1.107   6.436   9.829  0.00  0.00    +0.016 A 
ATOM     26  C   UNL     1      -1.908   5.360  10.174  0.00  0.00    +0.030 A 
ATOM     27  C   UNL     1      -3.168   5.564  10.735  0.00  0.00    +0.047 A 
ATOM     28  C   UNL     1      -3.605   6.868  10.950  0.00  0.00    +0.024 A 
ATOM     29  N   UNL     1      -4.001   4.504  11.080  0.00  0.00    -0.284 N 
ATOM     30  C   UNL     1      -3.893   3.245  10.668  0.00  0.00    +0.231 C 
ATOM     31  O   UNL     1      -4.637   2.415  11.147  0.00  0.00    -0.274 OA
ATOM     32  C   UNL     1      -2.892   2.799   9.634  0.00  0.00    +0.148 C 
ATOM     33  S   UNL     1      -1.340   3.710   9.905  0.00  0.00    -0.110 S 
ATOM     34  H   UNL     1      -4.734   4.704  11.682  0.00  0.00    +0.155 HD
ENDBRANCH  22  32
ENDBRANCH  20  22
ENDBRANCH  19  20
ENDBRANCH   1  19
TORSDOF 7
