REMARK  Name = ZINC04126192
REMARK  4 active torsions:
REMARK  status: ('A' for Active; 'I' for Inactive)
REMARK    1  A    between atoms: C_4  and  S_8
REMARK    2  A    between atoms: C_6  and  N_7
REMARK    3  A    between atoms: S_8  and  C_9
REMARK    4  A    between atoms: C_9  and  C_10
REMARK                            x       y       z     vdW  Elec       q    Type
REMARK                         _______ _______ _______ _____ _____    ______ ____
ROOT
ATOM      1  C   UNL     1       1.752  -0.121   4.624  0.00  0.00    +0.086 A 
ATOM      2  C   UNL     1       0.642   0.642   4.974  0.00  0.00    +0.122 A 
ATOM      3  N   UNL     1      -0.117   1.162   4.012  0.00  0.00    -0.207 NA
ATOM      4  C   UNL     1       0.174   0.961   2.735  0.00  0.00    +0.193 A 
ATOM      5  N   UNL     1       1.220   0.235   2.365  0.00  0.00    -0.207 NA
ATOM      6  C   UNL     1       2.026  -0.311   3.273  0.00  0.00    +0.122 A 
ATOM      7  N   UNL     1       0.330   0.858   6.308  0.00  0.00    -0.343 N 
ATOM      8  H   UNL     1      -0.445   1.391   6.545  0.00  0.00    +0.144 HD
ATOM      9  H   UNL     1       0.888   0.476   7.004  0.00  0.00    +0.144 HD
ENDROOT
BRANCH   6  10
ATOM     10  N   UNL     1       3.121  -1.063   2.877  0.00  0.00    -0.343 N 
ATOM     11  H   UNL     1       3.702  -1.461   3.544  0.00  0.00    +0.144 HD
ATOM     12  H   UNL     1       3.306  -1.191   1.933  0.00  0.00    +0.144 HD
ENDBRANCH   6  10
BRANCH   4  13
ATOM     13  S   UNL     1      -0.860   1.669   1.497  0.00  0.00    -0.071 S 
BRANCH  13  14
ATOM     14  C   UNL     1      -0.013   1.086   0.008  0.00  0.00    +0.195 C 
BRANCH  14  15
ATOM     15  C   UNL     1      -0.725   1.573  -1.185  0.00  0.00    +0.074 C 
ATOM     16  N   UNL     1      -1.274   1.950  -2.105  0.00  0.00    -0.196 NA
ENDBRANCH  14  15
ENDBRANCH  13  14
ENDBRANCH   4  13
TORSDOF 4
