REMARK  Name = ZINC04489345
REMARK  5 active torsions:
REMARK  status: ('A' for Active; 'I' for Inactive)
REMARK    1  A    between atoms: C_4  and  C_7
REMARK    2  A    between atoms: C_9  and  C_29
REMARK    3  A    between atoms: C_10  and  N_13
REMARK    4  A    between atoms: N_16  and  C_19
REMARK    5  A    between atoms: C_22  and  C_24
REMARK                            x       y       z     vdW  Elec       q    Type
REMARK                         _______ _______ _______ _____ _____    ______ ____
ROOT
ATOM      1  N   UNL     1       0.394  -4.635  -1.034  0.00  0.00    -0.313 N 
ATOM      2  C   UNL     1      -0.245  -4.102   0.177  0.00  0.00    +0.125 C 
ATOM      3  C   UNL     1      -0.265  -2.573   0.110  0.00  0.00    +0.125 C 
ATOM      4  N   UNL     1       1.111  -2.073  -0.020  0.00  0.00    -0.313 N 
ATOM      5  C   UNL     1       1.749  -2.606  -1.232  0.00  0.00    +0.125 C 
ATOM      6  C   UNL     1       1.769  -4.135  -1.164  0.00  0.00    +0.125 C 
ENDROOT
BRANCH   4   7
ATOM      7  C   UNL     1       1.138  -0.683  -0.013  0.00  0.00    +0.118 A 
ATOM      8  C   UNL     1       1.792  -0.011   1.017  0.00  0.00    +0.079 A 
ATOM      9  C   UNL     1       1.812   1.372   1.012  0.00  0.00    +0.037 A 
ATOM     10  C   UNL     1       1.176   2.040  -0.027  0.00  0.00    +0.072 A 
ATOM     11  C   UNL     1       0.547   1.310  -1.015  0.00  0.00    +0.096 A 
ATOM     12 CL   UNL     1       2.571  -0.898   2.291  0.00  0.00    -0.080 Cl
ATOM     13  N   UNL     1       0.507  -0.049  -1.042  0.00  0.00    -0.348 N 
ATOM     14  H   UNL     1       0.031  -0.566  -1.791  0.00  0.00    +0.167 HD
BRANCH  10  15
ATOM     15  C   UNL     1       1.172   3.546  -0.074  0.00  0.00    +0.419 C 
ATOM     16  F   UNL     1       0.473   3.975  -1.207  0.00  0.00    -0.166 F 
ATOM     17  F   UNL     1       0.551   4.047   1.075  0.00  0.00    -0.166 F 
ATOM     18  F   UNL     1       2.489   4.014  -0.134  0.00  0.00    -0.166 F 
ENDBRANCH  10  15
ENDBRANCH   4   7
BRANCH   1  22
ATOM     19  C   UNL     1       0.704  -8.150  -0.439  0.00  0.00    +0.057 A 
ATOM     20  C   UNL     1      -0.011  -8.201  -1.593  0.00  0.00    +0.049 A 
ATOM     21  C   UNL     1      -0.248  -6.814  -2.002  0.00  0.00    +0.092 A 
ATOM     22  C   UNL     1       0.366  -6.016  -1.042  0.00  0.00    +0.117 A 
ATOM     23  N   UNL     1       0.929  -6.829  -0.111  0.00  0.00    -0.341 N 
ATOM     24  H   UNL     1       1.417  -6.526   0.671  0.00  0.00    +0.167 HD
BRANCH  19  28
ATOM     25  C   UNL     1       1.175 -11.473   1.304  0.00  0.00    +0.028 A 
ATOM     26  C   UNL     1       2.384 -11.184   1.850  0.00  0.00    +0.047 A 
ATOM     27  S   UNL     1       2.671  -9.521   1.269  0.00  0.00    -0.094 S 
ATOM     28  C   UNL     1       1.163  -9.315   0.336  0.00  0.00    +0.054 A 
ATOM     29  C   UNL     1       0.541 -10.522   0.533  0.00  0.00    +0.057 A 
ATOM     30 CL   UNL     1      -1.009 -10.846  -0.177  0.00  0.00    -0.082 Cl
ENDBRANCH  19  28
BRANCH  21  31
ATOM     31  C   UNL     1      -0.965  -6.369  -3.159  0.00  0.00    +0.103 C 
ATOM     32  N   UNL     1      -1.534  -6.016  -4.076  0.00  0.00    -0.191 NA
ENDBRANCH  21  31
ENDBRANCH   1  22
TORSDOF 5
