REMARK  Name = ZINC32646366
REMARK  6 active torsions:
REMARK  status: ('A' for Active; 'I' for Inactive)
REMARK    1  A    between atoms: C_1  and  C_2
REMARK    2  A    between atoms: C_5  and  C_22
REMARK    3  A    between atoms: C_10  and  C_12
REMARK    4  A    between atoms: C_12  and  C_13
REMARK    5  A    between atoms: C_16  and  S_18
REMARK    6  A    between atoms: S_18  and  N_21
REMARK                            x       y       z     vdW  Elec       q    Type
REMARK                         _______ _______ _______ _____ _____    ______ ____
ROOT
ATOM      1  C   UNL     1       1.280   1.980   0.001  0.00  0.00    +0.138 C 
ENDROOT
BRANCH   1   9
ATOM      2  C   UNL     1      -2.264   5.334  -1.061  0.00  0.00    +0.009 C 
ATOM      3  C   UNL     1      -2.105   3.814  -1.134  0.00  0.00    +0.004 C 
ATOM      4  C   UNL     1      -3.481   3.151  -1.034  0.00  0.00    +0.009 C 
ATOM      5  C   UNL     1      -3.325   1.632  -1.141  0.00  0.00    +0.004 C 
ATOM      6  C   UNL     1      -2.461   1.129   0.020  0.00  0.00    +0.111 C 
ATOM      7  N   UNL     1      -1.191   1.867   0.018  0.00  0.00    -0.301 N 
ATOM      8  C   UNL     1      -1.227   3.335   0.032  0.00  0.00    +0.111 C 
ATOM      9  C   UNL     1      -0.014   1.209   0.009  0.00  0.00    +0.220 C 
ATOM     10  O   UNL     1       0.002  -0.004   0.002  0.00  0.00    -0.275 OA
ATOM     11  C   UNL     1      -4.704   0.971  -1.075  0.00  0.00    +0.009 C 
ENDBRANCH   1   9
BRANCH   1  12
ATOM     12  C   UNL     1       2.439   1.016  -0.016  0.00  0.00    +0.000 A 
ATOM     13  C   UNL     1       3.085   0.476  -1.078  0.00  0.00    +0.013 A 
ATOM     14  C   UNL     1       4.134  -0.395  -0.852  0.00  0.00    +0.036 A 
ATOM     15  C   UNL     1       4.486  -0.683   0.425  0.00  0.00    +0.142 A 
ATOM     16  S   UNL     1       3.321   0.296   1.359  0.00  0.00    -0.073 S 
BRANCH  15  17
ATOM     17  S   UNL     1       5.765  -1.744   1.011  0.00  0.00    +0.062 S 
ATOM     18  O   UNL     1       5.391  -2.146   2.322  0.00  0.00    -0.153 OA
ATOM     19  O   UNL     1       6.025  -2.679  -0.027  0.00  0.00    -0.153 OA
BRANCH  17  20
ATOM     20  N   UNL     1       7.131  -0.822   1.170  0.00  0.00    -0.203 NA
ATOM     21  H   UNL     1       7.957  -1.450   1.536  0.00  0.00    +0.144 HD
ATOM     22  H   UNL     1       6.944  -0.009   1.887  0.00  0.00    +0.144 HD
ENDBRANCH  17  20
ENDBRANCH  15  17
ENDBRANCH   1  12
TORSDOF 4
