REMARK  Name = ZINC15972191
REMARK  10 active torsions:
REMARK  status: ('A' for Active; 'I' for Inactive)
REMARK    1  A    between atoms: C_1  and  C_2
REMARK    2  A    between atoms: C_4  and  C_32
REMARK    3  A    between atoms: C_9  and  C_18
REMARK    4  A    between atoms: C_12  and  C_14
REMARK    5  A    between atoms: C_14  and  C_15
REMARK    6  A    between atoms: C_15  and  S_16
REMARK    7  A    between atoms: S_16  and  C_17
REMARK    8  A    between atoms: N_20  and  C_21
REMARK    9  A    between atoms: C_24  and  O_27
REMARK   10  A    between atoms: O_27  and  C_28
REMARK                            x       y       z     vdW  Elec       q    Type
REMARK                         _______ _______ _______ _____ _____    ______ ____
ROOT
ATOM      1  C   UNL     1      -3.486  -3.410  -1.764  0.00  0.00    +0.044 C 
ATOM      2  C   UNL     1      -4.895  -2.923  -1.985  0.00  0.00    -0.050 A 
ATOM      3  C   UNL     1      -5.296  -2.507  -3.241  0.00  0.00    +0.008 A 
ATOM      4  C   UNL     1      -6.584  -2.060  -3.449  0.00  0.00    -0.029 A 
ATOM      5  C   UNL     1      -7.492  -2.025  -2.393  0.00  0.00    +0.039 A 
ATOM      6  C   UNL     1      -7.077  -2.445  -1.133  0.00  0.00    -0.027 A 
ATOM      7  C   UNL     1      -5.790  -2.890  -0.930  0.00  0.00    +0.008 A 
ATOM      8  C   UNL     1      -8.269  -2.285  -0.229  0.00  0.00    +0.049 C 
ATOM      9  C   UNL     1      -7.965  -1.311   0.916  0.00  0.00    +0.076 C 
ATOM     10  C   UNL     1      -8.190  -2.135   2.207  0.00  0.00    -0.004 C 
ATOM     11  C   UNL     1      -8.040  -3.597   1.716  0.00  0.00    -0.068 C 
ATOM     12  C   UNL     1      -9.358  -1.744  -1.120  0.00  0.00    +0.211 C 
ATOM     13  O   UNL     1     -10.493  -1.472  -0.791  0.00  0.00    -0.277 OA
ATOM     14  N   UNL     1      -8.828  -1.622  -2.351  0.00  0.00    -0.286 N 
ATOM     15  C   UNL     1      -7.011  -1.609  -4.822  0.00  0.00    +0.045 C 
ATOM     16  H   UNL     1      -9.318  -1.292  -3.121  0.00  0.00    +0.155 HD
ATOM     17  N   UNL     1      -8.648  -3.553   0.377  0.00  0.00    +0.394 N 
ATOM     18  H   UNL     1      -8.299  -4.333  -0.193  0.00  0.00    -0.083 HD
ATOM     19  H   UNL     1      -9.670  -3.615   0.453  0.00  0.00    -0.083 HD
ENDROOT
BRANCH   9  20
ATOM     20  C   UNL     1      -6.537  -0.839   0.837  0.00  0.00    +0.220 C 
ATOM     21  O   UNL     1      -5.671  -1.417   1.459  0.00  0.00    -0.275 OA
ATOM     22  N   UNL     1      -6.221   0.227   0.074  0.00  0.00    -0.285 N 
ATOM     23  H   UNL     1      -6.920   0.730  -0.371  0.00  0.00    +0.155 HD
BRANCH  22  24
ATOM     24  C   UNL     1      -4.881   0.609  -0.075  0.00  0.00    +0.034 A 
ATOM     25  C   UNL     1      -3.877  -0.351  -0.044  0.00  0.00    +0.027 A 
ATOM     26  C   UNL     1      -2.557   0.026  -0.191  0.00  0.00    +0.047 A 
ATOM     27  C   UNL     1      -2.233   1.363  -0.371  0.00  0.00    +0.120 A 
ATOM     28  C   UNL     1      -3.234   2.322  -0.397  0.00  0.00    +0.047 A 
ATOM     29  C   UNL     1      -4.556   1.946  -0.255  0.00  0.00    +0.027 A 
BRANCH  27  30
ATOM     30  O   UNL     1      -0.933   1.733  -0.515  0.00  0.00    -0.495 OA
ATOM     31  C   UNL     1      -0.671   3.126  -0.696  0.00  0.00    +0.277 C 
ENDBRANCH  27  30
ENDBRANCH  22  24
ENDBRANCH   9  20
BRANCH  11  32
ATOM     32  C   UNL     1      -8.789  -4.557   2.642  0.00  0.00    -0.005 C 
BRANCH  32  33
ATOM     33  C   UNL     1      -8.522  -5.999   2.207  0.00  0.00    +0.067 C 
BRANCH  33  34
ATOM     34  S   UNL     1      -9.411  -7.137   3.305  0.00  0.00    -0.164 S 
ATOM     35  C   UNL     1      -8.994  -8.781   2.663  0.00  0.00    +0.084 C 
ENDBRANCH  33  34
ENDBRANCH  32  33
ENDBRANCH  11  32
TORSDOF 6
