REMARK  Name = ZINC17029415
REMARK  3 active torsions:
REMARK  status: ('A' for Active; 'I' for Inactive)
REMARK    1  A    between atoms: C_3  and  C_6
REMARK    2  A    between atoms: C_6  and  N_7
REMARK    3  A    between atoms: N_17  and  C_20
REMARK                            x       y       z     vdW  Elec       q    Type
REMARK                         _______ _______ _______ _____ _____    ______ ____
ROOT
ATOM      1  N   UNL     1       3.256   2.083  -1.404  0.00  0.00    -0.302 N 
ATOM      2  C   UNL     1       2.109   1.425  -1.014  0.00  0.00    +0.112 A 
ATOM      3  C   UNL     1       1.757   0.275  -1.655  0.00  0.00    +0.069 A 
ATOM      4  C   UNL     1       2.576  -0.214  -2.688  0.00  0.00    +0.258 A 
ATOM      5  O   UNL     1       2.277  -1.242  -3.271  0.00  0.00    -0.267 OA
ATOM      6  N   UNL     1       3.691   0.459  -3.032  0.00  0.00    -0.302 N 
ATOM      7  H   UNL     1       4.336   0.079  -3.837  0.00  0.00    +0.171 HD
ATOM      8  C   UNL     1       4.022   1.597  -2.394  0.00  0.00    +0.162 A 
ATOM      9  S   UNL     1       5.442   2.437  -2.853  0.00  0.00    -0.013 S 
ATOM     10  C   UNL     1       0.512  -0.488  -1.286  0.00  0.00    +0.130 C 
ATOM     11  N   UNL     1       0.013  -0.013   0.013  0.00  0.00    -0.280 NA
ATOM     12  C   UNL     1      -0.011   1.459   0.023  0.00  0.00    +0.191 C 
ATOM     13  N   UNL     1       1.369   1.954   0.007  0.00  0.00    -0.317 N 
ATOM     14  H   UNL     1       1.703   2.674   0.768  0.00  0.00    +0.149 HD
ENDROOT
BRANCH  11  15
ATOM     15  C   UNL     1      -1.319  -0.563   0.298  0.00  0.00    +0.058 C 
ATOM     16  C   UNL     1      -1.277  -2.088   0.182  0.00  0.00    +0.019 C 
ATOM     17  C   UNL     1      -2.665  -2.660   0.479  0.00  0.00    +0.002 C 
ATOM     18  C   UNL     1      -3.674  -2.100  -0.526  0.00  0.00    +0.000 C 
ATOM     19  C   UNL     1      -3.715  -0.575  -0.410  0.00  0.00    +0.002 C 
ATOM     20  C   UNL     1      -2.328  -0.003  -0.707  0.00  0.00    +0.019 C 
ENDBRANCH  11  15
BRANCH   1  21
ATOM     21  C   UNL     1       3.642   3.326  -0.731  0.00  0.00    +0.199 C 
BRANCH  21  24
ATOM     22  C   UNL     1       1.876   6.153  -2.304  0.00  0.00    +0.041 A 
ATOM     23  C   UNL     1       1.935   5.096  -1.366  0.00  0.00    +0.046 A 
ATOM     24  C   UNL     1       3.133   4.504  -1.521  0.00  0.00    +0.125 A 
ATOM     25  O   UNL     1       3.796   5.137  -2.503  0.00  0.00    -0.466 OA
ATOM     26  C   UNL     1       3.038   6.138  -2.981  0.00  0.00    +0.195 A 
ENDBRANCH  21  24
ENDBRANCH   1  21
TORSDOF 3
