REMARK  Name = ZINC10886738
REMARK  8 active torsions:
REMARK  status: ('A' for Active; 'I' for Inactive)
REMARK    1  A    between atoms: C_1  and  C_2
REMARK    2  A    between atoms: C_2  and  C_3
REMARK    3  A    between atoms: C_4  and  C_33
REMARK    4  A    between atoms: C_6  and  C_8
REMARK    5  A    between atoms: N_10  and  N_11
REMARK    6  A    between atoms: C_12  and  C_14
REMARK    7  A    between atoms: N_19  and  S_20
REMARK    8  A    between atoms: S_20  and  C_23
REMARK                            x       y       z     vdW  Elec       q    Type
REMARK                         _______ _______ _______ _____ _____    ______ ____
ROOT
ATOM      1  C   UNL     1       1.155   2.057   0.608  0.00  0.00    +0.167 C 
ATOM      2  C   UNL     1       0.942   2.961  -0.632  0.00  0.00    +0.031 C 
ATOM      3  C   UNL     1       2.395   3.128  -1.150  0.00  0.00    +0.019 C 
ATOM      4  C   UNL     1       3.029   1.754  -0.848  0.00  0.00    +0.110 C 
ATOM      5  N   UNL     1       2.232   1.129   0.218  0.00  0.00    -0.165 NA
ENDROOT
BRANCH   1   7
ATOM      6  N   UNL     1      -0.921   1.719   1.909  0.00  0.00    -0.233 N 
ATOM      7  C   UNL     1      -0.106   1.294   0.924  0.00  0.00    +0.248 C 
ATOM      8  O   UNL     1      -0.389   0.301   0.288  0.00  0.00    -0.273 OA
ATOM      9  H   UNL     1      -0.695   2.513   2.417  0.00  0.00    +0.173 HD
BRANCH   6  12
ATOM     10  C   UNL     1      -2.912   1.438   3.184  0.00  0.00    +0.267 C 
ATOM     11  O   UNL     1      -2.628   2.434   3.822  0.00  0.00    -0.268 OA
ATOM     12  N   UNL     1      -2.096   1.013   2.199  0.00  0.00    -0.230 N 
ATOM     13  H   UNL     1      -2.323   0.218   1.690  0.00  0.00    +0.173 HD
BRANCH  10  17
ATOM     14  C   UNL     1      -6.230  -0.952   3.661  0.00  0.00    -0.007 A 
ATOM     15  C   UNL     1      -6.170   0.100   4.519  0.00  0.00    -0.040 A 
ATOM     16  C   UNL     1      -5.105   0.963   4.448  0.00  0.00    +0.024 A 
ATOM     17  C   UNL     1      -4.141   0.699   3.487  0.00  0.00    +0.076 A 
ATOM     18  S   UNL     1      -4.791  -0.770   2.711  0.00  0.00    -0.088 S 
ATOM     19  C   UNL     1      -7.261   0.318   5.535  0.00  0.00    +0.044 C 
BRANCH  14  21
ATOM     20  C   UNL     1      -8.373  -1.562   2.573  0.00  0.00    +0.009 C 
ATOM     21  C   UNL     1      -7.292  -2.015   3.557  0.00  0.00    +0.039 C 
ENDBRANCH  14  21
ENDBRANCH  10  17
ENDBRANCH   6  12
ENDBRANCH   1   7
BRANCH   5  22
ATOM     22  S   UNL     1       2.501  -0.368   0.874  0.00  0.00    +0.062 S 
ATOM     23  O   UNL     1       1.310  -0.731   1.558  0.00  0.00    -0.153 OA
ATOM     24  O   UNL     1       3.060  -1.168  -0.159  0.00  0.00    -0.153 OA
BRANCH  22  25
ATOM     25  C   UNL     1       3.751  -0.182   2.101  0.00  0.00    +0.109 A 
ATOM     26  C   UNL     1       3.408   0.207   3.382  0.00  0.00    +0.032 A 
ATOM     27  C   UNL     1       4.386   0.354   4.348  0.00  0.00    +0.051 A 
ATOM     28  C   UNL     1       5.715   0.113   4.033  0.00  0.00    +0.162 A 
ATOM     29  C   UNL     1       6.059  -0.281   2.746  0.00  0.00    +0.164 A 
ATOM     30  C   UNL     1       5.072  -0.432   1.783  0.00  0.00    +0.078 A 
ATOM     31  O   UNL     1       7.356  -0.531   2.417  0.00  0.00    -0.485 OA
ATOM     32  C   UNL     1       8.355  -0.011   3.302  0.00  0.00    +0.270 C 
ATOM     33  C   UNL     1       7.939  -0.339   4.742  0.00  0.00    +0.270 C 
ATOM     34  O   UNL     1       6.668   0.270   4.992  0.00  0.00    -0.485 OA
ENDBRANCH  22  25
ENDBRANCH   5  22
TORSDOF 6
