REMARK  Name = ZINC67000637
REMARK  5 active torsions:
REMARK  status: ('A' for Active; 'I' for Inactive)
REMARK    1  A    between atoms: C_1  and  C_2
REMARK    2  A    between atoms: C_8  and  C_10
REMARK    3  A    between atoms: N_12  and  C_13
REMARK    4  A    between atoms: C_13  and  C_14
REMARK    5  A    between atoms: C_14  and  O_24
REMARK                            x       y       z     vdW  Elec       q    Type
REMARK                         _______ _______ _______ _____ _____    ______ ____
ROOT
ATOM      1  C   UNL     1      -4.461  -7.130  -1.115  0.00  0.00    +0.299 C 
ATOM      2  O   UNL     1      -3.580  -6.906  -0.311  0.00  0.00    -0.265 OA
ATOM      3  N   UNL     1      -5.625  -6.454  -1.047  0.00  0.00    -0.305 N 
ATOM      4  H   UNL     1      -6.329  -6.634  -1.689  0.00  0.00    +0.149 HD
ENDROOT
BRANCH   1  12
ATOM      5  C   UNL     1      -3.925 -11.783  -6.188  0.00  0.00    +0.089 C 
ATOM      6  C   UNL     1      -3.278 -11.109  -5.007  0.00  0.00    +0.136 A 
ATOM      7  C   UNL     1      -3.834 -10.154  -4.241  0.00  0.00    +0.091 A 
ATOM      8  C   UNL     1      -2.901  -9.791  -3.244  0.00  0.00    +0.168 A 
ATOM      9  N   UNL     1      -1.824 -10.514  -3.420  0.00  0.00    -0.063 NA
ATOM     10  O   UNL     1      -2.047 -11.361  -4.533  0.00  0.00    -0.358 OA
ATOM     11  N   UNL     1      -3.092  -8.834  -2.250  0.00  0.00    -0.260 N 
ATOM     12  C   UNL     1      -4.256  -8.157  -2.181  0.00  0.00    +0.304 C 
ATOM     13  O   UNL     1      -5.137  -8.382  -2.985  0.00  0.00    -0.265 OA
ATOM     14  H   UNL     1      -2.388  -8.654  -1.607  0.00  0.00    +0.157 HD
ENDBRANCH   1  12
BRANCH   3  15
ATOM     15  C   UNL     1      -5.826  -5.447  -0.002  0.00  0.00    +0.144 C 
BRANCH  15  16
ATOM     16  C   UNL     1      -7.265  -4.930  -0.062  0.00  0.00    +0.107 C 
ATOM     17  C   UNL     1      -8.229  -6.105   0.092  0.00  0.00    +0.041 C 
ATOM     18  C   UNL     1      -9.649  -5.548   0.247  0.00  0.00    +0.008 C 
ATOM     19  C   UNL     1      -9.752  -4.868   1.611  0.00  0.00    +0.035 C 
ATOM     20  C   UNL     1      -8.621  -3.892   1.804  0.00  0.00    -0.041 A 
ATOM     21  C   UNL     1      -7.477  -3.923   1.038  0.00  0.00    -0.011 A 
ATOM     22  C   UNL     1      -6.468  -2.998   1.271  0.00  0.00    +0.007 A 
ATOM     23  C   UNL     1      -6.604  -2.047   2.261  0.00  0.00    +0.000 A 
ATOM     24  C   UNL     1      -7.754  -2.013   3.027  0.00  0.00    +0.000 A 
ATOM     25  C   UNL     1      -8.757  -2.933   2.798  0.00  0.00    +0.004 A 
BRANCH  16  26
ATOM     26  O   UNL     1      -7.487  -4.301  -1.326  0.00  0.00    -0.382 OA
ATOM     27  H   UNL     1      -6.904  -3.550  -1.499  0.00  0.00    +0.211 HD
ENDBRANCH  16  26
ENDBRANCH  15  16
ENDBRANCH   3  15
TORSDOF 4
