REMARK  Name = ZINC67396492
REMARK  13 active torsions:
REMARK  status: ('A' for Active; 'I' for Inactive)
REMARK    1  A    between atoms: C_1  and  C_2
REMARK    2  A    between atoms: C_2  and  N_3
REMARK    3  A    between atoms: N_3  and  C_4
REMARK    4  A    between atoms: N_3  and  C_27
REMARK    5  A    between atoms: C_7  and  N_10
REMARK    6  A    between atoms: C_11  and  C_13
REMARK    7  A    between atoms: N_15  and  C_16
REMARK    8  A    between atoms: C_16  and  C_18
REMARK    9  A    between atoms: C_16  and  C_19
REMARK   10  A    between atoms: C_19  and  C_20
REMARK   11  A    between atoms: C_23  and  O_26
REMARK   12  A    between atoms: C_27  and  C_28
REMARK   13  A    between atoms: C_27  and  C_29
REMARK                            x       y       z     vdW  Elec       q    Type
REMARK                         _______ _______ _______ _____ _____    ______ ____
ROOT
ATOM      1  N   UNL     1      -2.136   0.917   5.757  0.00  0.00    -0.278 N 
ATOM      2  C   UNL     1      -1.535   1.620   6.737  0.00  0.00    +0.303 C 
ATOM      3  O   UNL     1      -0.400   2.024   6.585  0.00  0.00    -0.265 OA
ATOM      4  H   UNL     1      -3.068   0.660   5.846  0.00  0.00    +0.155 HD
ENDROOT
BRANCH   1   8
ATOM      5  C   UNL     1       0.002  -0.151   2.348  0.00  0.00    +0.014 A 
ATOM      6  C   UNL     1      -1.348   0.132   2.254  0.00  0.00    +0.023 A 
ATOM      7  C   UNL     1      -2.060   0.487   3.383  0.00  0.00    +0.025 A 
ATOM      8  C   UNL     1      -1.419   0.558   4.613  0.00  0.00    +0.034 A 
ATOM      9  C   UNL     1      -0.062   0.272   4.704  0.00  0.00    +0.025 A 
ATOM     10  C   UNL     1       0.643  -0.087   3.571  0.00  0.00    +0.023 A 
BRANCH   5  11
ATOM     11  N   UNL     1       0.720  -0.510   1.203  0.00  0.00    -0.392 NA
ATOM     12  H   UNL     1       1.682  -0.686   1.451  0.00  0.00    +0.127 HD
BRANCH  11  13
ATOM     13  C   UNL     1       0.136  -1.725   0.619  0.00  0.00    +0.049 C 
ATOM     14  C   UNL     1       0.921  -2.118  -0.634  0.00  0.00    +0.026 C 
ATOM     15  C   UNL     1       0.200  -2.863   1.639  0.00  0.00    +0.026 C 
ENDBRANCH  11  13
BRANCH  11  17
ATOM     16  C   UNL     1       1.377   1.811   0.784  0.00  0.00    +0.022 C 
ATOM     17  C   UNL     1       0.658   0.583   0.223  0.00  0.00    +0.082 C 
ENDBRANCH  11  17
ENDBRANCH   5  11
ENDBRANCH   1   8
BRANCH   2  18
ATOM     18  C   UNL     1      -2.264   1.903   8.009  0.00  0.00    +0.300 C 
ATOM     19  O   UNL     1      -3.398   1.499   8.161  0.00  0.00    -0.265 OA
ATOM     20  N   UNL     1      -1.662   2.606   8.989  0.00  0.00    -0.305 N 
ATOM     21  H   UNL     1      -0.756   2.929   8.868  0.00  0.00    +0.149 HD
BRANCH  20  22
ATOM     22  C   UNL     1      -2.377   2.883  10.237  0.00  0.00    +0.075 C 
ATOM     23  C   UNL     1      -2.217   1.697  11.191  0.00  0.00    +0.028 C 
BRANCH  22  24
ATOM     24  C   UNL     1      -1.800   4.142  10.887  0.00  0.00    +0.057 C 
BRANCH  24  25
ATOM     25  C   UNL     1      -2.067   5.332  10.002  0.00  0.00    -0.045 A 
ATOM     26  C   UNL     1      -1.152   5.688   9.029  0.00  0.00    +0.007 A 
ATOM     27  C   UNL     1      -1.394   6.778   8.217  0.00  0.00    +0.045 A 
ATOM     28  C   UNL     1      -2.558   7.517   8.378  0.00  0.00    +0.117 A 
ATOM     29  C   UNL     1      -3.475   7.157   9.355  0.00  0.00    +0.045 A 
ATOM     30  C   UNL     1      -3.230   6.063  10.161  0.00  0.00    +0.007 A 
BRANCH  28  31
ATOM     31  O   UNL     1      -2.798   8.591   7.580  0.00  0.00    -0.507 OA
ATOM     32  H   UNL     1      -3.280   8.378   6.769  0.00  0.00    +0.292 HD
ENDBRANCH  28  31
ENDBRANCH  24  25
ENDBRANCH  22  24
ENDBRANCH  20  22
ENDBRANCH   2  18
TORSDOF 9
