REMARK  Name = ZINC36284711
REMARK  5 active torsions:
REMARK  status: ('A' for Active; 'I' for Inactive)
REMARK    1  A    between atoms: C_1  and  C_2
REMARK    2  A    between atoms: C_5  and  S_9
REMARK    3  A    between atoms: C_6  and  C_8
REMARK    4  A    between atoms: S_9  and  N_12
REMARK    5  A    between atoms: N_12  and  C_13
REMARK                            x       y       z     vdW  Elec       q    Type
REMARK                         _______ _______ _______ _____ _____    ______ ____
ROOT
ATOM      1  N   UNL     1       1.172  -5.312   0.202  0.00  0.00    -0.187 NA
ATOM      2  H   UNL     1       1.753  -5.756  -0.436  0.00  0.00    +0.148 HD
ENDROOT
BRANCH   1   3
ATOM      3  C   UNL     1       1.487  -5.355   1.632  0.00  0.00    +0.077 C 
ATOM      4  C   UNL     1       2.506  -4.261   1.971  0.00  0.00    +0.020 C 
ATOM      5  C   UNL     1       2.741  -4.271   3.479  0.00  0.00    +0.003 C 
ATOM      6  C   UNL     1       3.337  -5.606   3.933  0.00  0.00    -0.027 C 
ATOM      7  C   UNL     1       3.127  -5.680   5.470  0.00  0.00    -0.079 C 
ATOM      8  N   UNL     1       1.837  -6.362   5.695  0.00  0.00    +0.379 N 
ATOM      9  C   UNL     1       1.261  -6.728   4.379  0.00  0.00    -0.079 C 
ATOM     10  C   UNL     1       2.490  -6.788   3.428  0.00  0.00    -0.025 C 
ATOM     11  C   UNL     1       2.106  -6.707   1.984  0.00  0.00    +0.022 C 
ATOM     12  H   UNL     1       1.985  -7.194   6.245  0.00  0.00    -0.086 HD
ATOM     13  H   UNL     1       1.206  -5.742   6.181  0.00  0.00    -0.086 HD
ENDBRANCH   1   3
BRANCH   1  14
ATOM     14  S   UNL     1      -0.175  -4.506  -0.326  0.00  0.00    +0.059 S 
ATOM     15  O   UNL     1      -1.250  -4.926   0.503  0.00  0.00    -0.153 OA
ATOM     16  O   UNL     1      -0.204  -4.645  -1.739  0.00  0.00    -0.153 OA
BRANCH  14  21
ATOM     17  C   UNL     1       0.694   1.354   0.816  0.00  0.00    +0.044 C 
ATOM     18  C   UNL     1       0.477  -0.109   0.531  0.00  0.00    -0.050 A 
ATOM     19  C   UNL     1      -0.519  -0.802   1.193  0.00  0.00    +0.005 A 
ATOM     20  C   UNL     1      -0.719  -2.145   0.932  0.00  0.00    +0.029 A 
ATOM     21  C   UNL     1       0.078  -2.795   0.007  0.00  0.00    +0.108 A 
ATOM     22  C   UNL     1       1.073  -2.102  -0.656  0.00  0.00    -0.024 A 
ATOM     23  C   UNL     1       1.270  -0.758  -0.397  0.00  0.00    +0.008 A 
ATOM     24  C   UNL     1       1.942  -2.810  -1.663  0.00  0.00    +0.046 C 
ENDBRANCH  14  21
ENDBRANCH   1  14
TORSDOF 3
