REMARK  Name = ZINC11819892
REMARK  6 active torsions:
REMARK  status: ('A' for Active; 'I' for Inactive)
REMARK    1  A    between atoms: C_9  and  C_12
REMARK    2  A    between atoms: C_12  and  C_13
REMARK    3  A    between atoms: C_13  and  N_52
REMARK    4  A    between atoms: C_14  and  C_15
REMARK    5  A    between atoms: C_14  and  N_52
REMARK    6  A    between atoms: C_16  and  C_23
REMARK                            x       y       z     vdW  Elec       q    Type
REMARK                         _______ _______ _______ _____ _____    ______ ____
ROOT
ATOM      1  C   UNL     1      -0.934  -4.971   1.184  0.00  0.00    -0.025 C 
ENDROOT
BRANCH   1   2
ATOM      2  C   UNL     1      -0.944  -6.420   0.770  0.00  0.00    +0.039 A 
ATOM      3  C   UNL     1      -1.698  -6.966  -0.222  0.00  0.00    +0.146 A 
ATOM      4  N   UNL     1      -1.413  -8.293  -0.278  0.00  0.00    -0.216 NA
ATOM      5  C   UNL     1      -0.531  -8.567   0.636  0.00  0.00    +0.178 A 
ATOM      6  N   UNL     1      -0.191  -7.434   1.333  0.00  0.00    -0.299 N 
ATOM      7  C   UNL     1       0.740  -7.579   2.339  0.00  0.00    +0.100 A 
ATOM      8  C   UNL     1       1.275  -8.768   2.608  0.00  0.00    +0.067 A 
ATOM      9  S   UNL     1       0.468  -9.818   1.410  0.00  0.00    -0.058 S 
BRANCH   3  10
ATOM     10  C   UNL     1      -2.652  -6.247  -1.083  0.00  0.00    +0.267 C 
ATOM     11  O   UNL     1      -2.821  -5.051  -0.938  0.00  0.00    -0.268 OA
ATOM     12  N   UNL     1      -3.339  -6.913  -2.033  0.00  0.00    -0.296 N 
ATOM     13  C   UNL     1      -3.228  -8.351  -2.320  0.00  0.00    +0.108 C 
ATOM     14  C   UNL     1      -4.178  -8.658  -3.496  0.00  0.00    +0.020 C 
ATOM     15  C   UNL     1      -4.340  -7.274  -4.179  0.00  0.00    +0.020 C 
ATOM     16  C   UNL     1      -4.320  -6.320  -2.959  0.00  0.00    +0.108 C 
ENDBRANCH   3  10
ENDBRANCH   1   2
BRANCH   1  17
ATOM     17  N   UNL     1       0.093  -4.253   0.406  0.00  0.00    +0.383 N 
ATOM     18  H   UNL     1       1.012  -4.673   0.588  0.00  0.00    -0.085 HD
ATOM     19  H   UNL     1      -0.126  -4.328  -0.595  0.00  0.00    -0.085 HD
BRANCH  17  20
ATOM     20  C   UNL     1       0.124  -2.829   0.791  0.00  0.00    -0.078 C 
BRANCH  20  21
ATOM     21  C   UNL     1       1.197  -2.111  -0.030  0.00  0.00    +0.029 C 
BRANCH  21  30
ATOM     22  C   UNL     1      -0.091   4.126   0.019  0.00  0.00    +0.004 A 
ATOM     23  C   UNL     1      -1.269   3.403   0.029  0.00  0.00    +0.004 A 
ATOM     24  C   UNL     1      -1.234   2.021   0.019  0.00  0.00    +0.049 A 
ATOM     25  C   UNL     1      -0.016   1.357   0.009  0.00  0.00    +0.162 A 
ATOM     26  C   UNL     1       1.168   2.084   0.002  0.00  0.00    +0.162 A 
ATOM     27  C   UNL     1       1.126   3.471   0.006  0.00  0.00    +0.049 A 
ATOM     28  O   UNL     1       2.373   1.453  -0.008  0.00  0.00    -0.485 OA
ATOM     29  C   UNL     1       2.373   0.072  -0.388  0.00  0.00    +0.273 C 
ATOM     30  C   UNL     1       1.236  -0.633   0.363  0.00  0.00    +0.209 C 
ATOM     31  O   UNL     1       0.002  -0.004   0.002  0.00  0.00    -0.482 OA
ENDBRANCH  21  30
ENDBRANCH  20  21
ENDBRANCH  17  20
ENDBRANCH   1  17
TORSDOF 6
