REMARK  Name = ZINC36601628
REMARK  15 active torsions:
REMARK  status: ('A' for Active; 'I' for Inactive)
REMARK    1  A    between atoms: C_1  and  C_2
REMARK    2  A    between atoms: C_5  and  C_7
REMARK    3  A    between atoms: C_7  and  N_8
REMARK    4  A    between atoms: N_8  and  C_9
REMARK    5  A    between atoms: C_9  and  C_11
REMARK    6  A    between atoms: C_9  and  C_20
REMARK    7  A    between atoms: C_12  and  O_19
REMARK    8  A    between atoms: C_14  and  O_18
REMARK    9  A    between atoms: C_16  and  O_17
REMARK   10  A    between atoms: N_22  and  C_23
REMARK   11  A    between atoms: C_23  and  C_24
REMARK   12  A    between atoms: C_23  and  C_25
REMARK   13  A    between atoms: C_23  and  C_26
REMARK   14  A    between atoms: C_27  and  C_29
REMARK   15  A    between atoms: C_29  and  C_31
REMARK                            x       y       z     vdW  Elec       q    Type
REMARK                         _______ _______ _______ _____ _____    ______ ____
ROOT
ATOM      1  C   UNL     1       3.611  -3.173  -0.865  0.00  0.00    +0.200 C 
ENDROOT
BRANCH   1   2
ATOM      2  C   UNL     1       4.595  -3.070  -2.001  0.00  0.00    +0.065 A 
ATOM      3  C   UNL     1       5.421  -1.961  -2.105  0.00  0.00    +0.129 A 
ATOM      4  C   UNL     1       6.327  -1.866  -3.151  0.00  0.00    +0.091 A 
ATOM      5  C   UNL     1       6.407  -2.881  -4.092  0.00  0.00    +0.124 A 
ATOM      6  C   UNL     1       5.582  -3.990  -3.988  0.00  0.00    +0.091 A 
ATOM      7  C   UNL     1       4.679  -4.087  -2.940  0.00  0.00    +0.129 A 
BRANCH   7   8
ATOM      8  O   UNL     1       3.874  -5.176  -2.835  0.00  0.00    -0.506 OA
ATOM      9  H   UNL     1       3.250  -5.276  -3.568  0.00  0.00    +0.292 HD
ENDBRANCH   7   8
BRANCH   5  10
ATOM     10  O   UNL     1       7.294  -2.787  -5.118  0.00  0.00    -0.507 OA
ATOM     11  H   UNL     1       8.162  -3.168  -4.923  0.00  0.00    +0.292 HD
ENDBRANCH   5  10
BRANCH   3  12
ATOM     12  O   UNL     1       5.343  -0.966  -1.182  0.00  0.00    -0.506 OA
ATOM     13  H   UNL     1       5.983  -1.047  -0.462  0.00  0.00    +0.292 HD
ENDBRANCH   3  12
ENDBRANCH   1   2
BRANCH   1  14
ATOM     14  C   UNL     1       2.328  -2.482  -1.248  0.00  0.00    +0.239 C 
ATOM     15  O   UNL     1       1.264  -2.921  -0.863  0.00  0.00    -0.273 OA
ATOM     16  N   UNL     1       2.361  -1.377  -2.018  0.00  0.00    -0.309 N 
ATOM     17  H   UNL     1       3.189  -1.109  -2.447  0.00  0.00    +0.149 HD
BRANCH  16  18
ATOM     18  C   UNL     1       1.147  -0.579  -2.208  0.00  0.00    +0.026 C 
ATOM     19  C   UNL     1       0.654  -0.069  -0.852  0.00  0.00    +0.031 C 
ATOM     20  C   UNL     1       1.456   0.611  -3.119  0.00  0.00    +0.031 C 
ATOM     21  C   UNL     1       0.063  -1.446  -2.852  0.00  0.00    +0.031 C 
ENDBRANCH  16  18
ENDBRANCH   1  14
BRANCH   1  22
ATOM     22  N   UNL     1       3.340  -4.584  -0.580  0.00  0.00    -0.275 N 
ATOM     23  C   UNL     1       2.344  -5.222  -1.225  0.00  0.00    +0.243 C 
ATOM     24  O   UNL     1       2.230  -6.429  -1.125  0.00  0.00    -0.270 OA
BRANCH  23  25
ATOM     25  C   UNL     1       1.394  -4.459  -2.049  0.00  0.00    +0.004 C 
ATOM     26  C   UNL     1       0.085  -4.648  -1.903  0.00  0.00    +0.017 C 
ATOM     27  C   UNL     1       1.903  -3.465  -3.061  0.00  0.00    +0.048 C 
ENDBRANCH  23  25
BRANCH  22  28
ATOM     28  C   UNL     1       4.152  -5.301   0.406  0.00  0.00    +0.183 C 
BRANCH  28  33
ATOM     29  C   UNL     1       2.854  -3.881   5.069  0.00  0.00    +0.086 C 
ATOM     30  C   UNL     1       2.897  -4.649   3.773  0.00  0.00    +0.102 A 
ATOM     31  C   UNL     1       2.148  -5.725   3.471  0.00  0.00    +0.045 A 
ATOM     32  C   UNL     1       2.512  -6.122   2.164  0.00  0.00    +0.046 A 
ATOM     33  C   UNL     1       3.462  -5.266   1.746  0.00  0.00    +0.122 A 
ATOM     34  O   UNL     1       3.687  -4.373   2.723  0.00  0.00    -0.463 OA
ENDBRANCH  28  33
ENDBRANCH  22  28
ENDBRANCH   1  22
TORSDOF 10
