REMARK  Name = ZINC35636253
REMARK  11 active torsions:
REMARK  status: ('A' for Active; 'I' for Inactive)
REMARK    1  A    between atoms: C_1  and  C_2
REMARK    2  A    between atoms: C_2  and  N_3
REMARK    3  A    between atoms: C_6  and  C_11
REMARK    4  A    between atoms: C_15  and  O_17
REMARK    5  A    between atoms: O_17  and  C_18
REMARK    6  A    between atoms: N_26  and  C_28
REMARK    7  A    between atoms: C_28  and  C_30
REMARK    8  A    between atoms: C_28  and  C_34
REMARK    9  A    between atoms: C_30  and  C_31
REMARK   10  A    between atoms: C_31  and  C_32
REMARK   11  A    between atoms: C_31  and  C_33
REMARK                            x       y       z     vdW  Elec       q    Type
REMARK                         _______ _______ _______ _____ _____    ______ ____
ROOT
ATOM      1  N   UNL     1      -0.179   0.638  -1.285  0.00  0.00    -0.257 N 
ATOM      2  C   UNL     1      -0.626   0.112  -2.463  0.00  0.00    +0.042 C 
ATOM      3  C   UNL     1       0.229  -0.412  -3.364  0.00  0.00    +0.058 C 
ATOM      4  C   UNL     1       1.706  -0.398  -3.024  0.00  0.00    +0.142 C 
ATOM      5  N   UNL     1       2.087   0.192  -1.730  0.00  0.00    -0.288 N 
ATOM      6  C   UNL     1       1.113   0.682  -0.936  0.00  0.00    +0.307 C 
ATOM      7  O   UNL     1       1.418   1.175   0.133  0.00  0.00    -0.252 OA
ATOM      8  C   UNL     1      -0.474  -0.888  -4.489  0.00  0.00    +0.247 C 
ATOM      9  O   UNL     1       0.048  -1.411  -5.457  0.00  0.00    -0.270 OA
ATOM     10  N   UNL     1      -1.798  -0.689  -4.355  0.00  0.00    -0.281 N 
ATOM     11  C   UNL     1      -2.010  -0.035  -3.055  0.00  0.00    +0.160 C 
ATOM     12  H   UNL     1       3.016   0.231  -1.456  0.00  0.00    +0.151 HD
ENDROOT
BRANCH   4  13
ATOM     13  C   UNL     1       2.203  -1.820  -3.050  0.00  0.00    -0.019 A 
ATOM     14  C   UNL     1       1.973  -2.652  -1.969  0.00  0.00    +0.006 A 
ATOM     15  C   UNL     1       2.427  -3.957  -1.990  0.00  0.00    +0.004 A 
ATOM     16  C   UNL     1       3.113  -4.434  -3.091  0.00  0.00    +0.046 A 
ATOM     17  C   UNL     1       3.345  -3.602  -4.176  0.00  0.00    +0.129 A 
ATOM     18  C   UNL     1       2.883  -2.293  -4.155  0.00  0.00    +0.052 A 
BRANCH  17  19
ATOM     19  O   UNL     1       4.019  -4.068  -5.260  0.00  0.00    -0.456 OA
BRANCH  19  20
ATOM     20  C   UNL     1       5.256  -3.563  -5.507  0.00  0.00    +0.128 A 
ATOM     21  C   UNL     1       5.846  -2.692  -4.602  0.00  0.00    +0.046 A 
ATOM     22  C   UNL     1       7.103  -2.180  -4.856  0.00  0.00    +0.004 A 
ATOM     23  C   UNL     1       7.774  -2.535  -6.012  0.00  0.00    +0.000 A 
ATOM     24  C   UNL     1       7.189  -3.402  -6.916  0.00  0.00    +0.004 A 
ATOM     25  C   UNL     1       5.935  -3.922  -6.663  0.00  0.00    +0.046 A 
ENDBRANCH  19  20
ENDBRANCH  17  19
ENDBRANCH   4  13
BRANCH   1  27
ATOM     26  C   UNL     1      -1.383   2.674  -0.662  0.00  0.00    +0.025 C 
ATOM     27  C   UNL     1      -1.166   1.191  -0.354  0.00  0.00    +0.111 C 
ENDBRANCH   1  27
BRANCH  10  28
ATOM     28  C   UNL     1      -2.834  -1.054  -5.324  0.00  0.00    +0.163 C 
BRANCH  28  29
ATOM     29  C   UNL     1      -2.688  -0.205  -6.560  0.00  0.00    +0.236 C 
ATOM     30  O   UNL     1      -1.707   0.495  -6.703  0.00  0.00    -0.274 OA
ATOM     31  N   UNL     1      -3.646  -0.223  -7.508  0.00  0.00    -0.296 N 
ATOM     32  C   UNL     1      -4.901  -0.964  -7.302  0.00  0.00    +0.136 C 
ATOM     33  C   UNL     1      -6.073  -0.027  -7.615  0.00  0.00    +0.179 C 
ATOM     34  O   UNL     1      -5.881   0.550  -8.909  0.00  0.00    -0.377 OA
ATOM     35  C   UNL     1      -4.711   1.364  -9.020  0.00  0.00    +0.179 C 
ATOM     36  C   UNL     1      -3.471   0.503  -8.776  0.00  0.00    +0.136 C 
ENDBRANCH  28  29
BRANCH  28  37
ATOM     37  C   UNL     1      -2.685  -2.530  -5.698  0.00  0.00    +0.035 C 
BRANCH  37  38
ATOM     38  C   UNL     1      -3.028  -3.400  -4.487  0.00  0.00    -0.015 C 
ATOM     39  C   UNL     1      -3.096  -4.867  -4.917  0.00  0.00    +0.007 C 
ATOM     40  C   UNL     1      -1.948  -3.232  -3.417  0.00  0.00    +0.007 C 
ENDBRANCH  37  38
ENDBRANCH  28  37
ENDBRANCH  10  28
TORSDOF 8
