REMARK  Name = ZINC03897426
REMARK  7 active torsions:
REMARK  status: ('A' for Active; 'I' for Inactive)
REMARK    1  A    between atoms: C_1  and  C_2
REMARK    2  A    between atoms: C_4  and  O_26
REMARK    3  A    between atoms: C_6  and  O_25
REMARK    4  A    between atoms: C_8  and  O_24
REMARK    5  A    between atoms: C_10  and  N_13
REMARK    6  A    between atoms: N_13  and  C_14
REMARK    7  A    between atoms: C_18  and  N_20
REMARK                            x       y       z     vdW  Elec       q    Type
REMARK                         _______ _______ _______ _____ _____    ______ ____
ROOT
ATOM      1  C   UNL     1      -2.199   1.117  -1.202  0.00  0.00    +0.041 C 
ATOM      2  C   UNL     1      -0.746   1.594  -1.236  0.00  0.00    +0.149 C 
ATOM      3  C   UNL     1      -0.013   1.086   0.008  0.00  0.00    +0.174 C 
ATOM      4  C   UNL     1       1.424   1.617  -0.003  0.00  0.00    +0.178 C 
ATOM      5  C   UNL     1       1.390   3.147  -0.073  0.00  0.00    +0.192 C 
ATOM      6  C   UNL     1       0.603   3.576  -1.314  0.00  0.00    +0.235 C 
ATOM      7  O   UNL     1      -0.714   3.023  -1.256  0.00  0.00    -0.351 OA
ENDROOT
BRANCH   6   8
ATOM      8  N   UNL     1       0.517   5.038  -1.357  0.00  0.00    -0.317 N 
ATOM      9  H   UNL     1       0.440   5.544  -0.532  0.00  0.00    +0.149 HD
BRANCH   8  10
ATOM     10  C   UNL     1       0.545   5.704  -2.585  0.00  0.00    +0.031 A 
ATOM     11  C   UNL     1       0.654   4.981  -3.766  0.00  0.00    +0.024 A 
ATOM     12  C   UNL     1       0.681   5.641  -4.979  0.00  0.00    +0.024 A 
ATOM     13  C   UNL     1       0.601   7.022  -5.018  0.00  0.00    +0.071 A 
ATOM     14  C   UNL     1       0.491   7.745  -3.843  0.00  0.00    +0.146 A 
ATOM     15  C   UNL     1       0.458   7.089  -2.628  0.00  0.00    +0.057 A 
ATOM     16 CL   UNL     1       0.635   7.849  -6.544  0.00  0.00    -0.081 Cl
BRANCH  14  17
ATOM     17  N   UNL     1       0.405   9.222  -3.889  0.00  0.00    +0.058 N 
ATOM     18  O   UNL     1       0.308   9.858  -2.855  0.00  0.00    -0.126 OA
ATOM     19  O   UNL     1       0.430   9.800  -4.960  0.00  0.00    -0.126 OA
ENDBRANCH  14  17
ENDBRANCH   8  10
ENDBRANCH   6   8
BRANCH   5  20
ATOM     20  O   UNL     1       0.756   3.665   1.098  0.00  0.00    -0.385 OA
ATOM     21  H   UNL     1       0.699   4.630   1.121  0.00  0.00    +0.210 HD
ENDBRANCH   5  20
BRANCH   4  22
ATOM     22  O   UNL     1       2.094   1.208   1.191  0.00  0.00    -0.386 OA
ATOM     23  H   UNL     1       3.010   1.511   1.251  0.00  0.00    +0.210 HD
ENDBRANCH   4  22
BRANCH   3  24
ATOM     24  O   UNL     1      -0.684   1.548   1.182  0.00  0.00    -0.387 OA
ATOM     25  H   UNL     1      -1.601   1.250   1.253  0.00  0.00    +0.210 HD
ENDBRANCH   3  24
TORSDOF 6
