REMARK  Name = ZINC61752311
REMARK  5 active torsions:
REMARK  status: ('A' for Active; 'I' for Inactive)
REMARK    1  A    between atoms: C_1  and  C_2
REMARK    2  A    between atoms: C_5  and  N_17
REMARK    3  A    between atoms: C_6  and  O_8
REMARK    4  A    between atoms: O_8  and  C_9
REMARK    5  A    between atoms: N_12  and  C_16
REMARK                            x       y       z     vdW  Elec       q    Type
REMARK                         _______ _______ _______ _____ _____    ______ ____
ROOT
ATOM      1  C   UNL     1       0.084   1.483  -0.026  0.00  0.00    +0.044 C 
ATOM      2  C   UNL     1       0.049  -0.024  -0.021  0.00  0.00    -0.047 A 
ATOM      3  C   UNL     1      -0.000  -0.716  -1.217  0.00  0.00    +0.005 A 
ATOM      4  C   UNL     1      -0.033  -2.098  -1.219  0.00  0.00    +0.027 A 
ATOM      5  C   UNL     1      -0.016  -2.793  -0.019  0.00  0.00    +0.068 A 
ATOM      6  C   UNL     1       0.034  -2.095   1.186  0.00  0.00    +0.151 A 
ATOM      7  C   UNL     1       0.072  -0.710   1.179  0.00  0.00    +0.051 A 
ENDROOT
BRANCH   5   8
ATOM      8  N   UNL     1      -0.049  -4.192  -0.018  0.00  0.00    -0.355 N 
ATOM      9  H   UNL     1      -0.084  -4.677  -0.857  0.00  0.00    +0.142 HD
ATOM     10  H   UNL     1      -0.037  -4.677   0.822  0.00  0.00    +0.142 HD
ENDBRANCH   5   8
BRANCH   6  11
ATOM     11  O   UNL     1       0.051  -2.771   2.366  0.00  0.00    -0.432 OA
BRANCH  11  12
ATOM     12  C   UNL     1       1.238  -3.260   2.802  0.00  0.00    +0.287 A 
ATOM     13  C   UNL     1       1.298  -4.105   3.999  0.00  0.00    +0.313 A 
ATOM     14  O   UNL     1       0.285  -4.380   4.620  0.00  0.00    -0.262 OA
ATOM     15  N   UNL     1       2.503  -4.571   4.398  0.00  0.00    -0.312 N 
ATOM     16  C   UNL     1       3.612  -4.242   3.679  0.00  0.00    +0.108 A 
ATOM     17  C   UNL     1       3.519  -3.461   2.581  0.00  0.00    +0.132 A 
ATOM     18  N   UNL     1       2.349  -2.988   2.155  0.00  0.00    -0.215 NA
ATOM     19  C   UNL     1       2.614  -5.418   5.588  0.00  0.00    +0.152 C 
ENDBRANCH  11  12
ENDBRANCH   6  11
TORSDOF 3
