REMARK  Name = ZINC63825310
REMARK  3 active torsions:
REMARK  status: ('A' for Active; 'I' for Inactive)
REMARK    1  A    between atoms: C_1  and  C_2
REMARK    2  A    between atoms: C_4  and  C_21
REMARK    3  A    between atoms: C_26  and  C_27
REMARK                            x       y       z     vdW  Elec       q    Type
REMARK                         _______ _______ _______ _____ _____    ______ ____
ROOT
ATOM      1  C   UNL     1      -0.383   0.103   1.003  0.00  0.00    +0.062 C 
ATOM      2  C   UNL     1      -0.976  -1.136   1.622  0.00  0.00    +0.022 C 
ATOM      3  C   UNL     1      -2.254  -1.341   1.773  0.00  0.00    -0.008 C 
ATOM      4  C   UNL     1      -3.441  -0.553   1.272  0.00  0.00    +0.043 C 
ATOM      5  C   UNL     1      -4.222  -1.495   0.343  0.00  0.00    +0.104 C 
ATOM      6  C   UNL     1      -4.234  -2.898   0.858  0.00  0.00    +0.215 C 
ATOM      7  O   UNL     1      -5.108  -3.620   0.427  0.00  0.00    -0.276 OA
ATOM      8  N   UNL     1      -3.393  -3.447   1.735  0.00  0.00    -0.292 N 
ATOM      9  C   UNL     1      -2.431  -2.664   2.499  0.00  0.00    +0.210 C 
ATOM     10  N   UNL     1      -1.087  -3.244   2.506  0.00  0.00    -0.210 N 
ATOM     11  N   UNL     1      -0.232  -2.205   2.099  0.00  0.00    -0.265 N 
ATOM     12  C   UNL     1      -0.732  -4.548   2.839  0.00  0.00    +0.162 A 
ATOM     13  C   UNL     1       0.606  -4.941   2.799  0.00  0.00    +0.050 A 
ATOM     14  C   UNL     1       0.907  -6.250   3.139  0.00  0.00    +0.045 A 
ATOM     15  C   UNL     1      -0.140  -7.089   3.499  0.00  0.00    +0.152 A 
ATOM     16  N   UNL     1      -1.377  -6.631   3.510  0.00  0.00    -0.136 NA
ATOM     17  N   UNL     1      -1.662  -5.419   3.201  0.00  0.00    -0.131 NA
ATOM     18 CL   UNL     1       0.179  -8.739   3.935  0.00  0.00    -0.060 Cl
ATOM     19  H   UNL     1      -3.424  -4.407   1.870  0.00  0.00    +0.151 HD
ATOM     20  H   UNL     1       0.736  -2.230   2.148  0.00  0.00    +0.170 HD
ENDROOT
BRANCH   4  21
ATOM     21  C   UNL     1      -2.966   0.678   0.498  0.00  0.00    +0.091 C 
ATOM     22  C   UNL     1      -2.183   1.608   1.402  0.00  0.00    +0.118 C 
ATOM     23  N   UNL     1      -2.840   2.723   1.426  0.00  0.00    -0.161 NA
ATOM     24  N   UNL     1      -3.989   2.680   0.644  0.00  0.00    -0.153 NA
ATOM     25  C   UNL     1      -4.147   1.521   0.058  0.00  0.00    +0.080 C 
BRANCH  25  26
ATOM     26  C   UNL     1      -5.241   1.117  -0.839  0.00  0.00    -0.001 A 
ATOM     27  C   UNL     1      -5.005   0.195  -1.864  0.00  0.00    +0.011 A 
ATOM     28  C   UNL     1      -6.035  -0.179  -2.700  0.00  0.00    +0.020 A 
ATOM     29  C   UNL     1      -7.301   0.356  -2.528  0.00  0.00    +0.041 A 
ATOM     30  C   UNL     1      -7.542   1.270  -1.515  0.00  0.00    +0.020 A 
ATOM     31  C   UNL     1      -6.523   1.649  -0.668  0.00  0.00    +0.011 A 
ATOM     32 CL   UNL     1      -8.592  -0.121  -3.586  0.00  0.00    -0.084 Cl
ENDBRANCH  25  26
ENDBRANCH   4  21
TORSDOF 2
