REMARK  Name = ZINC48434192
REMARK  3 active torsions:
REMARK  status: ('A' for Active; 'I' for Inactive)
REMARK    1  A    between atoms: C_4  and  C_7
REMARK    2  A    between atoms: C_10  and  S_12
REMARK    3  A    between atoms: S_12  and  C_13
REMARK                            x       y       z     vdW  Elec       q    Type
REMARK                         _______ _______ _______ _____ _____    ______ ____
ROOT
ATOM      1  C   UNL     1       3.698  -0.688  -0.038  0.00  0.00    +0.079 A 
ATOM      2  C   UNL     1       3.727  -2.054  -0.051  0.00  0.00    +0.076 A 
ATOM      3  S   UNL     1       5.491  -2.349  -0.068  0.00  0.00    -0.068 S 
ATOM      4  C   UNL     1       6.003  -0.637  -0.057  0.00  0.00    +0.141 A 
ATOM      5  N   UNL     1       4.839  -0.014  -0.047  0.00  0.00    -0.232 NA
ENDROOT
BRANCH   1   9
ATOM      6  C   UNL     1      -0.017   1.379   0.010  0.00  0.00    +0.000 A 
ATOM      7  C   UNL     1       1.169   2.092   0.002  0.00  0.00    +0.001 A 
ATOM      8  C   UNL     1       2.377   1.427  -0.013  0.00  0.00    +0.010 A 
ATOM      9  C   UNL     1       2.402   0.033  -0.021  0.00  0.00    +0.001 A 
ATOM     10  C   UNL     1       1.205  -0.680  -0.013  0.00  0.00    +0.010 A 
ATOM     11  C   UNL     1       0.002  -0.004   0.002  0.00  0.00    +0.001 A 
ENDBRANCH   1   9
BRANCH   4  12
ATOM     12  S   UNL     1       7.630   0.040  -0.063  0.00  0.00    -0.043 S 
BRANCH  12  13
ATOM     13  C   UNL     1       8.680  -1.375  -0.085  0.00  0.00    +0.110 A 
ATOM     14  C   UNL     1      10.068  -1.226  -0.089  0.00  0.00    +0.075 A 
ATOM     15  C   UNL     1      10.853  -2.365  -0.106  0.00  0.00    +0.135 A 
ATOM     16  N   UNL     1      10.268  -3.555  -0.118  0.00  0.00    -0.203 NA
ATOM     17  C   UNL     1       8.948  -3.665  -0.114  0.00  0.00    +0.215 A 
ATOM     18  N   UNL     1       8.162  -2.600  -0.093  0.00  0.00    -0.208 NA
ATOM     19  N   UNL     1       8.376  -4.925  -0.127  0.00  0.00    -0.327 N 
ATOM     20 CL   UNL     1      12.585  -2.237  -0.112  0.00  0.00    -0.062 Cl
ATOM     21  H   UNL     1       8.941  -5.714  -0.139  0.00  0.00    +0.145 HD
ATOM     22  H   UNL     1       7.411  -5.020  -0.124  0.00  0.00    +0.145 HD
ENDBRANCH  12  13
ENDBRANCH   4  12
TORSDOF 3
