REMARK  Name = ZINC39898034
REMARK  6 active torsions:
REMARK  status: ('A' for Active; 'I' for Inactive)
REMARK    1  A    between atoms: C_6  and  C_7
REMARK    2  A    between atoms: C_10  and  C_22
REMARK    3  A    between atoms: N_17  and  C_18
REMARK    4  A    between atoms: C_18  and  C_19
REMARK    5  A    between atoms: C_19  and  C_20
REMARK    6  A    between atoms: C_20  and  O_21
REMARK                            x       y       z     vdW  Elec       q    Type
REMARK                         _______ _______ _______ _____ _____    ______ ____
ROOT
ATOM      1  C   UNL     1      -1.293  -0.775   0.011  0.00  0.00    +0.141 C 
ATOM      2  C   UNL     1      -1.597  -1.288  -1.370  0.00  0.00    +0.035 A 
ATOM      3  C   UNL     1      -1.850  -0.998  -2.673  0.00  0.00    +0.075 A 
ATOM      4  N   UNL     1      -2.034  -2.191  -3.311  0.00  0.00    -0.276 N 
ATOM      5  N   UNL     1      -1.908  -3.160  -2.475  0.00  0.00    -0.168 NA
ATOM      6  H   UNL     1      -2.232  -2.293  -4.255  0.00  0.00    +0.189 HD
ATOM      7  C   UNL     1      -1.641  -2.697  -1.270  0.00  0.00    +0.153 A 
ATOM      8  C   UNL     1      -1.371  -3.060   0.133  0.00  0.00    +0.268 C 
ATOM      9  O   UNL     1      -1.335  -4.197   0.561  0.00  0.00    -0.268 OA
ATOM     10  N   UNL     1      -1.171  -1.955   0.874  0.00  0.00    -0.285 N 
ENDROOT
BRANCH   1  16
ATOM     11  C   UNL     1      -0.017   1.378   0.010  0.00  0.00    +0.007 A 
ATOM     12  C   UNL     1       1.171   2.086   0.002  0.00  0.00    +0.022 A 
ATOM     13  C   UNL     1       2.378   1.412  -0.013  0.00  0.00    +0.059 A 
ATOM     14  C   UNL     1       2.397   0.027  -0.021  0.00  0.00    +0.060 A 
ATOM     15  C   UNL     1       1.208  -0.680  -0.013  0.00  0.00    +0.027 A 
ATOM     16  C   UNL     1       0.002  -0.004   0.002  0.00  0.00    -0.021 A 
ATOM     17 CL   UNL     1       3.912  -0.821  -0.040  0.00  0.00    -0.082 Cl
ATOM     18 CL   UNL     1       3.869   2.301  -0.023  0.00  0.00    -0.082 Cl
ENDBRANCH   1  16
BRANCH   3  19
ATOM     19  C   UNL     1      -1.914   0.349  -3.281  0.00  0.00    +0.048 A 
ATOM     20  C   UNL     1      -3.117   0.827  -3.800  0.00  0.00    +0.033 A 
ATOM     21  C   UNL     1      -3.171   2.085  -4.366  0.00  0.00    +0.042 A 
ATOM     22  C   UNL     1      -2.034   2.873  -4.422  0.00  0.00    +0.024 A 
ATOM     23  C   UNL     1      -0.837   2.409  -3.912  0.00  0.00    +0.053 A 
ATOM     24  C   UNL     1      -0.769   1.151  -3.335  0.00  0.00    +0.188 A 
ATOM     25  O   UNL     1       0.406   0.696  -2.828  0.00  0.00    -0.287 OA
ATOM     26 CL   UNL     1      -4.669   2.680  -5.011  0.00  0.00    -0.084 Cl
ENDBRANCH   3  19
BRANCH  10  27
ATOM     27  C   UNL     1      -0.877  -1.933   2.309  0.00  0.00    +0.111 C 
BRANCH  27  28
ATOM     28  C   UNL     1      -2.187  -1.861   3.096  0.00  0.00    +0.047 C 
BRANCH  28  29
ATOM     29  C   UNL     1      -1.881  -1.838   4.595  0.00  0.00    +0.157 C 
BRANCH  29  30
ATOM     30  O   UNL     1      -3.104  -1.770   5.331  0.00  0.00    -0.395 OA
ATOM     31  H   UNL     1      -2.986  -1.752   6.290  0.00  0.00    +0.209 HD
ENDBRANCH  29  30
ENDBRANCH  28  29
ENDBRANCH  27  28
ENDBRANCH  10  27
TORSDOF 6
