REMARK  Name = ZINC49561696
REMARK  5 active torsions:
REMARK  status: ('A' for Active; 'I' for Inactive)
REMARK    1  A    between atoms: C_1  and  C_2
REMARK    2  A    between atoms: C_5  and  C_8
REMARK    3  A    between atoms: C_8  and  C_10
REMARK    4  A    between atoms: C_8  and  N_11
REMARK    5  A    between atoms: C_13  and  N_19
REMARK                            x       y       z     vdW  Elec       q    Type
REMARK                         _______ _______ _______ _____ _____    ______ ____
ROOT
ATOM      1  N   UNL     1      -1.258  -4.620   0.862  0.00  0.00    -0.321 N 
ATOM      2  C   UNL     1      -1.598  -5.968   0.843  0.00  0.00    +0.151 A 
ATOM      3  C   UNL     1      -2.127  -6.561   1.985  0.00  0.00    +0.166 A 
ATOM      4  C   UNL     1      -2.461  -7.903   1.953  0.00  0.00    +0.039 A 
ATOM      5  C   UNL     1      -2.254  -8.610   0.776  0.00  0.00    +0.042 A 
ATOM      6  C   UNL     1      -1.724  -7.957  -0.321  0.00  0.00    +0.131 A 
ATOM      7  N   UNL     1      -1.420  -6.673  -0.263  0.00  0.00    -0.218 NA
ATOM      8 CL   UNL     1      -1.463  -8.834  -1.796  0.00  0.00    -0.062 Cl
ATOM      9  H   UNL     1      -1.464  -4.079   1.641  0.00  0.00    +0.148 HD
ENDROOT
BRANCH   3  10
ATOM     10  N   UNL     1      -2.330  -5.767   3.217  0.00  0.00    +0.060 N 
ATOM     11  O   UNL     1      -1.530  -4.915   3.526  0.00  0.00    -0.126 OA
ATOM     12  O   UNL     1      -3.295  -5.971   3.916  0.00  0.00    -0.126 OA
ENDBRANCH   3  10
BRANCH   1  13
ATOM     13  C   UNL     1      -0.589  -4.017  -0.293  0.00  0.00    +0.099 C 
ATOM     14  C   UNL     1       0.920  -4.248  -0.187  0.00  0.00    +0.033 C 
BRANCH  13  19
ATOM     15  C   UNL     1      -1.669   1.659  -0.395  0.00  0.00    +0.044 C 
ATOM     16  C   UNL     1      -1.387   0.179  -0.368  0.00  0.00    -0.050 A 
ATOM     17  C   UNL     1      -1.379  -0.544  -1.546  0.00  0.00    +0.004 A 
ATOM     18  C   UNL     1      -1.120  -1.902  -1.522  0.00  0.00    +0.006 A 
ATOM     19  C   UNL     1      -0.870  -2.536  -0.320  0.00  0.00    -0.028 A 
ATOM     20  C   UNL     1      -0.877  -1.813   0.858  0.00  0.00    +0.006 A 
ATOM     21  C   UNL     1      -1.131  -0.454   0.833  0.00  0.00    +0.004 A 
ENDBRANCH  13  19
ENDBRANCH   1  13
TORSDOF 3
