REMARK  Name = ZINC05133724
REMARK  4 active torsions:
REMARK  status: ('A' for Active; 'I' for Inactive)
REMARK    1  A    between atoms: C_1  and  C_2
REMARK    2  A    between atoms: C_5  and  N_8
REMARK    3  A    between atoms: N_11  and  C_12
REMARK    4  A    between atoms: N_18  and  C_23
REMARK                            x       y       z     vdW  Elec       q    Type
REMARK                         _______ _______ _______ _____ _____    ______ ____
ROOT
ATOM      1  N   UNL     1      -4.763   3.614  -0.095  0.00  0.00    -0.269 N 
ATOM      2  C   UNL     1      -3.570   2.997   0.013  0.00  0.00    +0.308 C 
ATOM      3  O   UNL     1      -3.522   1.792   0.172  0.00  0.00    -0.252 OA
ATOM      4  N   UNL     1      -2.432   3.714  -0.054  0.00  0.00    -0.269 N 
ATOM      5  H   UNL     1      -4.805   4.582  -0.154  0.00  0.00    +0.156 HD
ATOM      6  H   UNL     1      -2.470   4.682  -0.102  0.00  0.00    +0.156 HD
ENDROOT
BRANCH   4   7
ATOM      7  C   UNL     1      -1.191   3.062  -0.055  0.00  0.00    +0.037 A 
ATOM      8  C   UNL     1      -1.057   1.833  -0.690  0.00  0.00    +0.024 A 
ATOM      9  C   UNL     1       0.166   1.188  -0.688  0.00  0.00    +0.018 A 
ATOM     10  C   UNL     1       1.255   1.773  -0.064  0.00  0.00    +0.030 A 
ATOM     11  C   UNL     1       1.132   3.007   0.575  0.00  0.00    +0.051 A 
ATOM     12  C   UNL     1      -0.102   3.648   0.572  0.00  0.00    +0.048 A 
ATOM     13  N   UNL     1       2.212   3.608   1.214  0.00  0.00    -0.273 N 
ATOM     14  C   UNL     1       3.499   3.363   0.984  0.00  0.00    +0.230 C 
ATOM     15  O   UNL     1       4.324   3.984   1.621  0.00  0.00    -0.274 OA
ATOM     16  C   UNL     1       3.988   2.360  -0.025  0.00  0.00    +0.170 C 
ATOM     17  S   UNL     1       2.824   0.963  -0.071  0.00  0.00    -0.114 S 
ATOM     18  C   UNL     1       1.902   4.608   2.240  0.00  0.00    +0.138 C 
ENDBRANCH   4   7
BRANCH   1  23
ATOM     19  C   UNL     1      -9.542   0.558  -0.203  0.00  0.00    +0.044 C 
ATOM     20  C   UNL     1      -8.272   1.369  -0.175  0.00  0.00    -0.050 A 
ATOM     21  C   UNL     1      -7.207   0.957   0.604  0.00  0.00    +0.005 A 
ATOM     22  C   UNL     1      -6.042   1.699   0.633  0.00  0.00    +0.023 A 
ATOM     23  C   UNL     1      -5.942   2.860  -0.122  0.00  0.00    +0.035 A 
ATOM     24  C   UNL     1      -7.015   3.274  -0.900  0.00  0.00    +0.023 A 
ATOM     25  C   UNL     1      -8.175   2.525  -0.928  0.00  0.00    +0.005 A 
ENDBRANCH   1  23
TORSDOF 2
