REMARK  Name = ZINC32747149
REMARK  11 active torsions:
REMARK  status: ('A' for Active; 'I' for Inactive)
REMARK    1  A    between atoms: C_1  and  C_2
REMARK    2  A    between atoms: C_3  and  C_26
REMARK    3  A    between atoms: C_4  and  C_25
REMARK    4  A    between atoms: C_7  and  C_8
REMARK    5  A    between atoms: C_8  and  C_10
REMARK    6  A    between atoms: C_10  and  C_12
REMARK    7  A    between atoms: C_10  and  N_13
REMARK    8  A    between atoms: N_13  and  C_14
REMARK    9  A    between atoms: C_14  and  C_16
REMARK   10  A    between atoms: C_14  and  C_17
REMARK   11  A    between atoms: C_26  and  C_28
REMARK                            x       y       z     vdW  Elec       q    Type
REMARK                         _______ _______ _______ _____ _____    ______ ____
ROOT
ATOM      1  C   UNL     1       3.459   5.821  -0.989  0.00  0.00    +0.000 C 
ATOM      2  C   UNL     1       4.325   6.290   0.181  0.00  0.00    -0.006 C 
ENDROOT
BRANCH   1   3
ATOM      3  N   UNL     1       2.175   5.322  -0.479  0.00  0.00    +0.390 N 
ATOM      4  H   UNL     1       2.329   4.845   0.500  0.00  0.00    -0.084 HD
ATOM      5  H   UNL     1       1.472   6.162  -0.371  0.00  0.00    -0.084 HD
BRANCH   3   6
ATOM      6  C   UNL     1       1.591   4.335  -1.397  0.00  0.00    -0.042 C 
ATOM      7  C   UNL     1       2.132   2.944  -1.062  0.00  0.00    -0.009 C 
BRANCH   6   8
ATOM      8  C   UNL     1       0.091   4.339  -1.251  0.00  0.00    -0.043 A 
ATOM      9  C   UNL     1      -0.491   4.856  -0.108  0.00  0.00    +0.005 A 
ATOM     10  C   UNL     1      -1.867   4.859   0.027  0.00  0.00    +0.020 A 
ATOM     11  C   UNL     1      -2.662   4.351  -0.985  0.00  0.00    +0.042 A 
ATOM     12  C   UNL     1      -2.081   3.828  -2.125  0.00  0.00    +0.040 A 
ATOM     13  C   UNL     1      -0.704   3.824  -2.260  0.00  0.00    +0.044 A 
ATOM     14 CL   UNL     1       0.027   3.174  -3.694  0.00  0.00    -0.083 Cl
ATOM     15 CL   UNL     1      -4.390   4.362  -0.819  0.00  0.00    -0.083 Cl
ENDBRANCH   6   8
ENDBRANCH   3   6
ENDBRANCH   1   3
BRANCH   1  16
ATOM     16  C   UNL     1       3.213   6.975  -1.926  0.00  0.00    +0.165 C 
ATOM     17  O   UNL     1       2.162   7.581  -1.881  0.00  0.00    -0.292 OA
BRANCH  16  24
ATOM     18  C   UNL     1       2.942   9.312  -3.956  0.00  0.00    +0.047 C 
ATOM     19  C   UNL     1       4.114   8.383  -3.769  0.00  0.00    -0.012 A 
ATOM     20  C   UNL     1       5.328   8.400  -4.494  0.00  0.00    +0.041 A 
ATOM     21  C   UNL     1       6.116   7.374  -3.994  0.00  0.00    +0.024 A 
ATOM     22  N   UNL     1       5.444   6.756  -3.013  0.00  0.00    -0.355 N 
ATOM     23  H   UNL     1       5.903   5.912  -2.479  0.00  0.00    +0.166 HD
ATOM     24  C   UNL     1       4.208   7.353  -2.860  0.00  0.00    +0.084 A 
ATOM     25  C   UNL     1       7.502   7.019  -4.468  0.00  0.00    +0.064 C 
BRANCH  20  26
ATOM     26  C   UNL     1       5.686   9.329  -5.571  0.00  0.00    +0.162 C 
ATOM     27  O   UNL     1       5.351   9.092  -6.713  0.00  0.00    -0.292 OA
ATOM     28  C   UNL     1       6.471  10.577  -5.260  0.00  0.00    +0.091 C 
ENDBRANCH  20  26
ENDBRANCH  16  24
ENDBRANCH   1  16
TORSDOF 6
