REMARK  Name = ZINC65921059
REMARK  6 active torsions:
REMARK  status: ('A' for Active; 'I' for Inactive)
REMARK    1  A    between atoms: C_1  and  C_2
REMARK    2  A    between atoms: C_6  and  C_12
REMARK    3  A    between atoms: C_10  and  C_11
REMARK    4  A    between atoms: C_12  and  C_13
REMARK    5  A    between atoms: N_15  and  N_16
REMARK    6  A    between atoms: N_19  and  C_20
REMARK                            x       y       z     vdW  Elec       q    Type
REMARK                         _______ _______ _______ _____ _____    ______ ____
ROOT
ATOM      1  C   UNL     1       1.489  -5.643  -1.072  0.00  0.00    +0.234 C 
ATOM      2  O   UNL     1       2.400  -4.971  -0.638  0.00  0.00    -0.274 OA
ATOM      3  N   UNL     1       1.744  -6.648  -1.933  0.00  0.00    -0.233 N 
ATOM      4  H   UNL     1       1.015  -7.185  -2.281  0.00  0.00    +0.173 HD
ENDROOT
BRANCH   3   5
ATOM      5  N   UNL     1       3.061  -6.917  -2.326  0.00  0.00    -0.218 N 
ATOM      6  C   UNL     1       3.316  -7.922  -3.187  0.00  0.00    +0.316 C 
ATOM      7  O   UNL     1       4.460  -8.155  -3.528  0.00  0.00    -0.251 OA
ATOM      8  N   UNL     1       2.303  -8.669  -3.670  0.00  0.00    -0.295 N 
ATOM      9  H   UNL     1       3.790  -6.380  -1.978  0.00  0.00    +0.174 HD
ATOM     10  H   UNL     1       1.391  -8.482  -3.398  0.00  0.00    +0.151 HD
BRANCH   8  11
ATOM     11  C   UNL     1       2.580  -9.761  -4.606  0.00  0.00    +0.074 C 
ATOM     12  C   UNL     1       2.589  -9.228  -6.053  0.00  0.00    +0.022 C 
ATOM     13  C   UNL     1       1.942 -10.366  -6.881  0.00  0.00    +0.002 C 
ATOM     14  C   UNL     1       0.828 -10.884  -5.938  0.00  0.00    +0.002 C 
ATOM     15  C   UNL     1       1.461 -10.815  -4.532  0.00  0.00    +0.022 C 
ENDBRANCH   8  11
ENDBRANCH   3   5
BRANCH   1  16
ATOM     16  C   UNL     1       0.071  -5.354  -0.650  0.00  0.00    +0.136 C 
BRANCH  16  22
ATOM     17  C   UNL     1      -0.018   1.503   0.010  0.00  0.00    +0.044 C 
ATOM     18  C   UNL     1       0.002  -0.004   0.002  0.00  0.00    -0.044 A 
ATOM     19  C   UNL     1       0.006  -0.684  -1.207  0.00  0.00    +0.004 A 
ATOM     20  C   UNL     1       0.024  -2.051  -1.233  0.00  0.00    +0.012 A 
ATOM     21  C   UNL     1       0.039  -2.764  -0.035  0.00  0.00    +0.024 A 
ATOM     22  C   UNL     1       0.060  -4.191   0.309  0.00  0.00    +0.007 A 
ATOM     23  C   UNL     1       0.068  -4.252   1.648  0.00  0.00    +0.200 A 
ATOM     24  O   UNL     1       0.054  -3.012   2.168  0.00  0.00    -0.462 OA
ATOM     25  C   UNL     1       0.036  -2.082   1.192  0.00  0.00    +0.138 A 
ATOM     26  C   UNL     1       0.023  -0.693   1.196  0.00  0.00    -0.005 A 
ATOM     27  C   UNL     1       0.025   0.060   2.502  0.00  0.00    +0.048 C 
ENDBRANCH  16  22
ENDBRANCH   1  16
TORSDOF 4
