REMARK  Name = ZINC13813219
REMARK  7 active torsions:
REMARK  status: ('A' for Active; 'I' for Inactive)
REMARK    1  A    between atoms: C_1  and  C_2
REMARK    2  A    between atoms: C_4  and  O_32
REMARK    3  A    between atoms: C_14  and  C_15
REMARK    4  A    between atoms: C_14  and  O_19
REMARK    5  A    between atoms: C_15  and  C_17
REMARK    6  A    between atoms: C_17  and  O_18
REMARK    7  A    between atoms: C_29  and  C_30
REMARK                            x       y       z     vdW  Elec       q    Type
REMARK                         _______ _______ _______ _____ _____    ______ ____
ROOT
ATOM      1  C   UNL     1      -2.136  -0.398   0.058  0.00  0.00    +0.015 C 
ATOM      2  C   UNL     1      -2.442   1.017   0.544  0.00  0.00    +0.009 C 
ATOM      3  C   UNL     1      -2.817   1.012   2.007  0.00  0.00    +0.041 C 
ATOM      4  C   UNL     1      -4.122   0.208   2.188  0.00  0.00    +0.120 C 
ATOM      5  C   UNL     1      -5.254   0.762   1.350  0.00  0.00    +0.035 C 
ATOM      6  C   UNL     1      -4.887   0.990  -0.117  0.00  0.00    +0.002 C 
ATOM      7  C   UNL     1      -3.579   1.694  -0.247  0.00  0.00    +0.002 C 
ATOM      8  C   UNL     1      -2.955   1.841  -1.639  0.00  0.00    +0.008 C 
ATOM      9  C   UNL     1      -1.508   2.303  -1.309  0.00  0.00    +0.043 C 
ATOM     10  C   UNL     1      -1.245   1.906   0.166  0.00  0.00    +0.131 C 
ATOM     11  C   UNL     1      -4.998  -0.331  -0.874  0.00  0.00    +0.045 C 
ATOM     12  C   UNL     1      -6.499  -0.568  -1.088  0.00  0.00    +0.193 C 
ATOM     13  C   UNL     1      -7.223  -0.408   0.224  0.00  0.00    -0.023 C 
ATOM     14  C   UNL     1      -8.535  -0.724   0.225  0.00  0.00    +0.053 C 
ATOM     15  C   UNL     1      -9.257  -0.587   1.514  0.00  0.00    +0.179 C 
ATOM     16  O   UNL     1     -10.142  -1.355   1.854  0.00  0.00    -0.288 OA
ATOM     17  C   UNL     1      -8.828   0.555   2.363  0.00  0.00    +0.047 C 
ATOM     18  C   UNL     1      -7.520   0.858   2.344  0.00  0.00    -0.012 C 
ATOM     19  C   UNL     1      -6.579   0.054   1.487  0.00  0.00    +0.016 C 
ATOM     20  C   UNL     1      -6.345  -1.232   2.271  0.00  0.00    +0.020 C 
ATOM     21  F   UNL     1      -6.988   0.366  -2.003  0.00  0.00    -0.241 F 
ENDROOT
BRANCH  10  22
ATOM     22  C   UNL     1       0.035   1.121   0.278  0.00  0.00    +0.190 C 
ATOM     23  O   UNL     1       0.457   0.515  -0.677  0.00  0.00    -0.292 OA
BRANCH  22  24
ATOM     24  C   UNL     1       0.792   1.098   1.581  0.00  0.00    +0.233 C 
BRANCH  24  25
ATOM     25  O   UNL     1       1.966   0.297   1.435  0.00  0.00    -0.387 OA
ATOM     26  H   UNL     1       2.503   0.237   2.237  0.00  0.00    +0.210 HD
ENDBRANCH  24  25
ENDBRANCH  22  24
ENDBRANCH  10  22
BRANCH  10  27
ATOM     27  O   UNL     1      -1.205   3.061   0.999  0.00  0.00    -0.380 OA
ATOM     28  H   UNL     1      -0.482   3.669   0.792  0.00  0.00    +0.211 HD
ENDBRANCH  10  27
BRANCH   4  29
ATOM     29  O   UNL     1      -4.458   0.318   3.582  0.00  0.00    -0.391 OA
ATOM     30  H   UNL     1      -3.776  -0.019   4.179  0.00  0.00    +0.210 HD
ENDBRANCH   4  29
TORSDOF 5
