REMARK  Name = ZINC39652863
REMARK  9 active torsions:
REMARK  status: ('A' for Active; 'I' for Inactive)
REMARK    1  A    between atoms: C_1  and  O_2
REMARK    2  A    between atoms: O_2  and  C_3
REMARK    3  A    between atoms: C_6  and  C_11
REMARK    4  A    between atoms: C_7  and  O_9
REMARK    5  A    between atoms: O_9  and  C_10
REMARK    6  A    between atoms: C_15  and  C_24
REMARK    7  A    between atoms: N_26  and  C_27
REMARK    8  A    between atoms: C_27  and  C_28
REMARK    9  A    between atoms: C_28  and  C_29
REMARK                            x       y       z     vdW  Elec       q    Type
REMARK                         _______ _______ _______ _____ _____    ______ ____
ROOT
ATOM      1  C   UNL     1       2.684  -2.691  -4.498  0.00  0.00    +0.250 C 
ATOM      2  O   UNL     1       2.880  -3.887  -4.600  0.00  0.00    -0.270 OA
ATOM      3  N   UNL     1       3.078  -1.857  -5.481  0.00  0.00    -0.296 N 
ATOM      4  C   UNL     1       3.025  -0.376  -5.491  0.00  0.00    +0.121 C 
ATOM      5  C   UNL     1       4.340   0.057  -6.178  0.00  0.00    +0.100 C 
ATOM      6  C   UNL     1       4.753  -1.152  -7.033  0.00  0.00    -0.004 C 
ATOM      7  C   UNL     1       3.670  -2.214  -6.793  0.00  0.00    +0.115 C 
ATOM      8  C   UNL     1       6.110  -1.681  -6.581  0.00  0.00    -0.010 C 
ATOM      9  C   UNL     1       6.526  -2.847  -7.483  0.00  0.00    -0.082 C 
ATOM     10  N   UNL     1       6.596  -2.389  -8.876  0.00  0.00    +0.379 N 
ATOM     11  C   UNL     1       5.265  -1.969  -9.332  0.00  0.00    -0.082 C 
ATOM     12  C   UNL     1       4.797  -0.766  -8.508  0.00  0.00    -0.010 C 
ATOM     13  H   UNL     1       7.234  -1.610  -8.941  0.00  0.00    -0.086 HD
ATOM     14  H   UNL     1       6.928  -3.142  -9.459  0.00  0.00    -0.086 HD
ENDROOT
BRANCH   1  18
ATOM     15  C   UNL     1       0.755  -1.142  -1.045  0.00  0.00    +0.124 A 
ATOM     16  C   UNL     1       0.547  -0.547  -2.286  0.00  0.00    +0.046 A 
ATOM     17  C   UNL     1       1.169  -1.045  -3.406  0.00  0.00    +0.020 A 
ATOM     18  C   UNL     1       2.016  -2.154  -3.300  0.00  0.00    +0.079 A 
ATOM     19  C   UNL     1       2.225  -2.752  -2.049  0.00  0.00    +0.136 A 
ATOM     20  C   UNL     1       1.597  -2.238  -0.927  0.00  0.00    +0.092 A 
BRANCH  15  22
ATOM     21  C   UNL     1      -0.716   0.486  -0.135  0.00  0.00    +0.277 C 
ATOM     22  O   UNL     1       0.137  -0.644   0.056  0.00  0.00    -0.495 OA
ENDBRANCH  15  22
BRANCH  19  23
ATOM     23  O   UNL     1       3.044  -3.828  -1.937  0.00  0.00    -0.494 OA
ATOM     24  C   UNL     1       3.209  -4.385  -0.631  0.00  0.00    +0.277 C 
ENDBRANCH  19  23
ENDBRANCH   1  18
BRANCH   5  25
ATOM     25  C   UNL     1       5.396   0.358  -5.146  0.00  0.00    +0.218 C 
ATOM     26  O   UNL     1       5.389  -0.226  -4.083  0.00  0.00    -0.275 OA
ATOM     27  N   UNL     1       6.348   1.276  -5.404  0.00  0.00    -0.315 N 
ATOM     28  H   UNL     1       6.354   1.743  -6.255  0.00  0.00    +0.149 HD
BRANCH  27  29
ATOM     29  C   UNL     1       7.375   1.569  -4.401  0.00  0.00    +0.109 C 
BRANCH  29  30
ATOM     30  C   UNL     1       8.326   2.639  -4.942  0.00  0.00    +0.054 C 
BRANCH  30  31
ATOM     31  C   UNL     1       9.382   2.940  -3.910  0.00  0.00    -0.046 A 
ATOM     32  C   UNL     1       9.166   3.929  -2.968  0.00  0.00    +0.005 A 
ATOM     33  C   UNL     1      10.135   4.205  -2.022  0.00  0.00    +0.015 A 
ATOM     34  C   UNL     1      11.320   3.492  -2.016  0.00  0.00    +0.018 A 
ATOM     35  C   UNL     1      11.535   2.502  -2.959  0.00  0.00    +0.015 A 
ATOM     36  C   UNL     1      10.564   2.223  -3.902  0.00  0.00    +0.005 A 
ATOM     37 BR   UNL     1      12.645   3.869  -0.722  0.00  0.00    -0.050 Br
ENDBRANCH  30  31
ENDBRANCH  29  30
ENDBRANCH  27  29
ENDBRANCH   5  25
TORSDOF 7
