REMARK  Name = ZINC65734477
REMARK  6 active torsions:
REMARK  status: ('A' for Active; 'I' for Inactive)
REMARK    1  A    between atoms: N_5  and  C1*_6
REMARK    2  A    between atoms: C2*_8  and  O2*_18
REMARK    3  A    between atoms: C3*_10  and  O3*_17
REMARK    4  A    between atoms: C4*_12  and  C5*_15
REMARK    5  A    between atoms: C5*_15  and  O5*_16
REMARK    6  A    between atoms: C_20  and  N_24
REMARK                            x       y       z     vdW  Elec       q    Type
REMARK                         _______ _______ _______ _____ _____    ______ ____
ROOT
ATOM      1  C   UNL     1      -0.016   1.355   0.009  0.00  0.00    +0.203 A 
ATOM      2  N   UNL     1       1.205   1.824   0.000  0.00  0.00    -0.231 NA
ATOM      3  C   UNL     1       2.080   0.811  -0.013  0.00  0.00    +0.139 A 
ATOM      4  C   UNL     1       1.322  -0.393  -0.013  0.00  0.00    +0.169 A 
ATOM      5  N   UNL     1       0.002  -0.004   0.002  0.00  0.00    -0.285 N 
ATOM      6  N   UNL     1       1.951  -1.548  -0.025  0.00  0.00    -0.189 NA
ATOM      7  C   UNL     1       3.295  -1.591  -0.037  0.00  0.00    +0.286 A 
ATOM      8  N   UNL     1       4.043  -0.472  -0.038  0.00  0.00    -0.200 NA
ATOM      9  C   UNL     1       3.487   0.718  -0.027  0.00  0.00    +0.134 A 
ATOM     10  I   UNL     1       4.670   2.448  -0.030  0.00  0.00    -0.019 I 
ENDROOT
BRANCH   5  11
ATOM     11  C1* UNL     1      -1.165  -0.889   0.009  0.00  0.00    +0.253 C 
ATOM     12  C2* UNL     1      -1.555  -1.276  -1.435  0.00  0.00    +0.195 C 
ATOM     13  C3* UNL     1      -3.100  -1.308  -1.410  0.00  0.00    +0.178 C 
ATOM     14  C4* UNL     1      -3.460  -0.937   0.045  0.00  0.00    +0.177 C 
ATOM     15  O4* UNL     1      -2.319  -0.196   0.532  0.00  0.00    -0.346 OA
BRANCH  13  16
ATOM     16  O3* UNL     1      -3.635  -0.347  -2.323  0.00  0.00    -0.386 OA
ATOM     17  H3* UNL     1      -4.601  -0.324  -2.348  0.00  0.00    +0.210 HD
ENDBRANCH  13  16
BRANCH  12  18
ATOM     18  O2* UNL     1      -1.086  -0.294  -2.361  0.00  0.00    -0.385 OA
ATOM     19  H2* UNL     1      -1.304  -0.487  -3.283  0.00  0.00    +0.210 HD
ENDBRANCH  12  18
BRANCH  14  20
ATOM     20  C5* UNL     1      -4.718  -0.065   0.077  0.00  0.00    +0.190 C 
BRANCH  20  21
ATOM     21  O5* UNL     1      -5.100   0.170   1.433  0.00  0.00    -0.392 OA
ATOM     22  H5* UNL     1      -5.892   0.717   1.529  0.00  0.00    +0.210 HD
ENDBRANCH  20  21
ENDBRANCH  14  20
ENDBRANCH   5  11
BRANCH   7  23
ATOM     23  N   UNL     1       3.899  -2.766  -0.048  0.00  0.00    -0.031 NA
ATOM     24  N   UNL     1       5.022  -2.821  -0.059  0.00  0.00    -0.159 NA
ATOM     25  N   UNL     1       6.121  -2.874  -0.070  0.00  0.00    +0.068 NA
ENDBRANCH   7  23
TORSDOF 6
