REMARK  Name = ZINC25511425
REMARK  6 active torsions:
REMARK  status: ('A' for Active; 'I' for Inactive)
REMARK    1  A    between atoms: C_1  and  C_2
REMARK    2  A    between atoms: C_2  and  C_3
REMARK    3  A    between atoms: C_3  and  C_4
REMARK    4  A    between atoms: C_6  and  S_9
REMARK    5  A    between atoms: S_9  and  C_10
REMARK    6  A    between atoms: C_10  and  C_11
REMARK                            x       y       z     vdW  Elec       q    Type
REMARK                         _______ _______ _______ _____ _____    ______ ____
ROOT
ATOM      1  C   UNL     1       3.539  -2.564   3.572  0.00  0.00    +0.112 C 
ENDROOT
BRANCH   1   2
ATOM      2  C   UNL     1       2.595  -1.874   2.621  0.00  0.00    -0.032 A 
ATOM      3  C   UNL     1       2.773  -0.536   2.321  0.00  0.00    +0.054 A 
ATOM      4  C   UNL     1       1.907   0.101   1.445  0.00  0.00    +0.164 A 
ATOM      5  C   UNL     1       0.861  -0.609   0.868  0.00  0.00    +0.180 A 
ATOM      6  C   UNL     1       0.686  -1.951   1.174  0.00  0.00    +0.086 A 
ATOM      7  C   UNL     1       1.553  -2.580   2.049  0.00  0.00    +0.028 A 
ATOM      8 CL   UNL     1      -0.621  -2.842   0.458  0.00  0.00    -0.080 Cl
ATOM      9  O   UNL     1       0.002  -0.004   0.002  0.00  0.00    -0.483 OA
ATOM     10  C   UNL     1      -0.017   1.427   0.010  0.00  0.00    +0.270 C 
ATOM     11  C   UNL     1       1.433   1.928  -0.001  0.00  0.00    +0.270 C 
ATOM     12  O   UNL     1       2.092   1.420   1.164  0.00  0.00    -0.485 OA
ENDBRANCH   1   2
BRANCH   1  13
ATOM     13  S   UNL     1       2.909  -2.412   5.262  0.00  0.00    -0.082 S 
BRANCH  13  16
ATOM     14  C   UNL     1       5.369  -4.205   7.702  0.00  0.00    +0.152 A 
ATOM     15  N   UNL     1       4.222  -3.491   7.485  0.00  0.00    -0.206 NA
ATOM     16  C   UNL     1       4.168  -3.280   6.137  0.00  0.00    +0.185 A 
ATOM     17  N   UNL     1       5.232  -3.846   5.616  0.00  0.00    -0.254 N 
ATOM     18  N   UNL     1       5.940  -4.382   6.545  0.00  0.00    -0.157 NA
ATOM     19  H   UNL     1       5.561  -3.909   4.568  0.00  0.00    +0.191 HD
BRANCH  14  20
ATOM     20  C   UNL     1       5.876  -4.696   9.034  0.00  0.00    +0.078 C 
BRANCH  20  22
ATOM     21  C   UNL     1       6.606  -6.708  10.323  0.00  0.00    +0.004 C 
ATOM     22  C   UNL     1       6.091  -6.209   8.971  0.00  0.00    +0.004 C 
ENDBRANCH  20  22
ENDBRANCH  14  20
ENDBRANCH  13  16
ENDBRANCH   1  13
TORSDOF 5
