REMARK  Name = ZINC50846835
REMARK  4 active torsions:
REMARK  status: ('A' for Active; 'I' for Inactive)
REMARK    1  A    between atoms: C_1  and  C_2
REMARK    2  A    between atoms: C_2  and  C_3
REMARK    3  A    between atoms: C_6  and  C_9
REMARK    4  A    between atoms: C_13  and  N_15
REMARK                            x       y       z     vdW  Elec       q    Type
REMARK                         _______ _______ _______ _____ _____    ______ ____
ROOT
ATOM      1  C   UNL     1       2.697  -1.862  -4.736  0.00  0.00    +0.162 A 
ATOM      2  N   UNL     1       4.004  -2.070  -4.697  0.00  0.00    -0.232 NA
ATOM      3  C   UNL     1       4.666  -2.501  -5.766  0.00  0.00    +0.050 A 
ATOM      4  C   UNL     1       3.973  -2.736  -6.929  0.00  0.00    +0.013 A 
ATOM      5  C   UNL     1       2.591  -2.503  -6.944  0.00  0.00    +0.123 A 
ATOM      6  N   UNL     1       1.994  -2.076  -5.839  0.00  0.00    -0.213 NA
ATOM      7  C   UNL     1       4.632  -3.238  -8.184  0.00  0.00    +0.040 C 
ATOM      8  C   UNL     1       6.144  -3.024  -8.116  0.00  0.00    +0.005 C 
ATOM      9  C   UNL     1       6.656  -3.596  -6.790  0.00  0.00    +0.006 C 
ATOM     10  C   UNL     1       6.152  -2.709  -5.652  0.00  0.00    +0.056 C 
ENDROOT
BRANCH   1  14
ATOM     11  C   UNL     1       0.707  -0.490  -1.238  0.00  0.00    -0.048 A 
ATOM     12  C   UNL     1      -0.013  -0.718  -2.396  0.00  0.00    +0.004 A 
ATOM     13  C   UNL     1       0.627  -1.163  -3.535  0.00  0.00    +0.012 A 
ATOM     14  C   UNL     1       2.003  -1.383  -3.516  0.00  0.00    +0.019 A 
ATOM     15  C   UNL     1       2.725  -1.152  -2.346  0.00  0.00    +0.012 A 
ATOM     16  C   UNL     1       2.074  -0.701  -1.215  0.00  0.00    +0.004 A 
BRANCH  11  18
ATOM     17  C   UNL     1      -0.019   1.526   0.010  0.00  0.00    +0.009 C 
ATOM     18  C   UNL     1       0.002  -0.004   0.002  0.00  0.00    +0.032 C 
ENDBRANCH  11  18
ENDBRANCH   1  14
BRANCH   5  19
ATOM     19  N   UNL     1       1.856  -2.722  -8.098  0.00  0.00    -0.343 N 
ATOM     20  H   UNL     1       2.298  -3.037  -8.902  0.00  0.00    +0.144 HD
ATOM     21  H   UNL     1       0.900  -2.559  -8.102  0.00  0.00    +0.144 HD
ENDBRANCH   5  19
TORSDOF 3
