REMARK  Name = ZINC40713768
REMARK  6 active torsions:
REMARK  status: ('A' for Active; 'I' for Inactive)
REMARK    1  A    between atoms: C_1  and  C_2
REMARK    2  A    between atoms: C_2  and  C_3
REMARK    3  A    between atoms: C_2  and  N_4
REMARK    4  A    between atoms: C_5  and  C_7
REMARK    5  A    between atoms: C_7  and  N_8
REMARK    6  A    between atoms: C_10  and  N_16
REMARK                            x       y       z     vdW  Elec       q    Type
REMARK                         _______ _______ _______ _____ _____    ______ ____
ROOT
ATOM      1  N   UNL     1      -3.087  -3.596  -1.065  0.00  0.00    -0.319 N 
ATOM      2  C   UNL     1      -4.294  -4.286  -1.165  0.00  0.00    +0.140 A 
ATOM      3  C   UNL     1      -4.316  -5.567  -1.724  0.00  0.00    +0.066 A 
ATOM      4  C   UNL     1      -5.526  -6.240  -1.816  0.00  0.00    +0.043 A 
ATOM      5  C   UNL     1      -6.671  -5.609  -1.345  0.00  0.00    +0.038 A 
ATOM      6  C   UNL     1      -6.573  -4.343  -0.805  0.00  0.00    +0.128 A 
ATOM      7  N   UNL     1      -5.408  -3.726  -0.725  0.00  0.00    -0.238 NA
ATOM      8 BR   UNL     1      -8.348  -6.478  -1.444  0.00  0.00    -0.049 Br
ATOM      9  H   UNL     1      -2.268  -4.003  -1.387  0.00  0.00    +0.148 HD
ENDROOT
BRANCH   3  10
ATOM     10  N   UNL     1      -3.135  -6.161  -2.185  0.00  0.00    -0.355 N 
ATOM     11  H   UNL     1      -2.293  -5.684  -2.117  0.00  0.00    +0.142 HD
ATOM     12  H   UNL     1      -3.158  -7.050  -2.572  0.00  0.00    +0.142 HD
ENDBRANCH   3  10
BRANCH   1  13
ATOM     13  C   UNL     1      -3.057  -2.256  -0.474  0.00  0.00    +0.198 C 
BRANCH  13  15
ATOM     14  N   UNL     1      -1.372  -0.511   0.012  0.00  0.00    -0.312 N 
ATOM     15  C   UNL     1      -1.643  -1.734  -0.485  0.00  0.00    +0.230 C 
ATOM     16  O   UNL     1      -0.749  -2.415  -0.941  0.00  0.00    -0.274 OA
ATOM     17  H   UNL     1      -2.087   0.033   0.377  0.00  0.00    +0.149 HD
BRANCH  14  19
ATOM     18  C   UNL     1      -0.019   1.526   0.010  0.00  0.00    +0.027 C 
ATOM     19  C   UNL     1       0.002  -0.004   0.002  0.00  0.00    +0.067 C 
ATOM     20  C   UNL     1       0.742  -0.511   1.242  0.00  0.00    +0.027 C 
ENDBRANCH  14  19
ENDBRANCH  13  15
ENDBRANCH   1  13
TORSDOF 4
