REMARK  Name = ZINC16382411
REMARK  8 active torsions:
REMARK  status: ('A' for Active; 'I' for Inactive)
REMARK    1  A    between atoms: C_1  and  C_2
REMARK    2  A    between atoms: C_3  and  C_19
REMARK    3  A    between atoms: C_4  and  C_10
REMARK    4  A    between atoms: C_13  and  O_17
REMARK    5  A    between atoms: N_21  and  C_22
REMARK    6  A    between atoms: C_27  and  C_28
REMARK    7  A    between atoms: C_28  and  O_30
REMARK    8  A    between atoms: O_30  and  C_31
REMARK                            x       y       z     vdW  Elec       q    Type
REMARK                         _______ _______ _______ _____ _____    ______ ____
ROOT
ATOM      1  C   UNL     1      -5.911  -2.844   0.202  0.00  0.00    +0.061 C 
ATOM      2  C   UNL     1      -6.104  -1.377  -0.087  0.00  0.00    +0.019 C 
ATOM      3  C   UNL     1      -5.024  -0.583  -0.243  0.00  0.00    +0.056 C 
ATOM      4  C   UNL     1      -5.263   0.883  -0.538  0.00  0.00    +0.142 C 
ATOM      5  N   UNL     1      -6.664   1.327  -0.624  0.00  0.00    -0.288 N 
ATOM      6  C   UNL     1      -7.639   0.415  -0.438  0.00  0.00    +0.304 C 
ATOM      7  O   UNL     1      -8.799   0.771  -0.506  0.00  0.00    -0.252 OA
ATOM      8  N   UNL     1      -7.370  -0.871  -0.180  0.00  0.00    -0.273 N 
ATOM      9  H   UNL     1      -6.881   2.254  -0.810  0.00  0.00    +0.151 HD
ATOM     10  H   UNL     1      -8.116  -1.479  -0.056  0.00  0.00    +0.156 HD
ENDROOT
BRANCH   4  11
ATOM     11  C   UNL     1      -4.585   1.690   0.539  0.00  0.00    -0.020 A 
ATOM     12  C   UNL     1      -5.149   1.770   1.800  0.00  0.00    +0.029 A 
ATOM     13  C   UNL     1      -4.527   2.504   2.792  0.00  0.00    +0.084 A 
ATOM     14  C   UNL     1      -3.341   3.172   2.518  0.00  0.00    +0.149 A 
ATOM     15  C   UNL     1      -2.780   3.095   1.252  0.00  0.00    +0.061 A 
ATOM     16  C   UNL     1      -3.404   2.354   0.265  0.00  0.00    +0.024 A 
ATOM     17 BR   UNL     1      -1.165   4.003   0.874  0.00  0.00    -0.046 Br
ATOM     18 CL   UNL     1      -5.231   2.598   4.375  0.00  0.00    -0.080 Cl
BRANCH  14  19
ATOM     19  O   UNL     1      -2.729   3.899   3.490  0.00  0.00    -0.504 OA
ATOM     20  H   UNL     1      -3.010   4.824   3.526  0.00  0.00    +0.292 HD
ENDBRANCH  14  19
ENDBRANCH   4  11
BRANCH   3  21
ATOM     21  C   UNL     1      -3.711  -1.105  -0.141  0.00  0.00    +0.248 C 
ATOM     22  O   UNL     1      -3.022  -1.220  -1.139  0.00  0.00    -0.270 OA
ATOM     23  N   UNL     1      -3.224  -1.475   1.060  0.00  0.00    -0.281 N 
ATOM     24  H   UNL     1      -3.751  -1.332   1.861  0.00  0.00    +0.155 HD
BRANCH  23  25
ATOM     25  C   UNL     1      -1.966  -2.062   1.149  0.00  0.00    +0.048 A 
ATOM     26  C   UNL     1      -0.943  -1.654   0.304  0.00  0.00    +0.024 A 
ATOM     27  C   UNL     1       0.303  -2.242   0.391  0.00  0.00    +0.002 A 
ATOM     28  C   UNL     1       0.544  -3.238   1.323  0.00  0.00    +0.001 A 
ATOM     29  C   UNL     1      -0.457  -3.654   2.174  0.00  0.00    +0.017 A 
ATOM     30  C   UNL     1      -1.723  -3.068   2.098  0.00  0.00    +0.080 A 
BRANCH  30  31
ATOM     31  C   UNL     1      -2.799  -3.507   3.005  0.00  0.00    +0.341 C 
ATOM     32  O   UNL     1      -3.870  -2.934   3.000  0.00  0.00    -0.245 OA
BRANCH  31  33
ATOM     33  O   UNL     1      -2.592  -4.541   3.844  0.00  0.00    -0.464 OA
ATOM     34  C   UNL     1      -3.726  -4.986   4.634  0.00  0.00    +0.280 C 
ENDBRANCH  31  33
ENDBRANCH  30  31
ENDBRANCH  23  25
ENDBRANCH   3  21
TORSDOF 6
