REMARK  Name = ZINC02349737
REMARK  9 active torsions:
REMARK  status: ('A' for Active; 'I' for Inactive)
REMARK    1  A    between atoms: C_1  and  C_2
REMARK    2  A    between atoms: C_2  and  C_3
REMARK    3  A    between atoms: C_3  and  C_4
REMARK    4  A    between atoms: C_4  and  C_5
REMARK    5  A    between atoms: C_8  and  N_11
REMARK    6  A    between atoms: C_12  and  N_34
REMARK    7  A    between atoms: C_13  and  C_24
REMARK    8  A    between atoms: N_26  and  C_27
REMARK    9  A    between atoms: C_27  and  C_28
REMARK                            x       y       z     vdW  Elec       q    Type
REMARK                         _______ _______ _______ _____ _____    ______ ____
ROOT
ATOM      1  N   UNL     1      -1.239   2.070   0.019  0.00  0.00    -0.280 N 
ATOM      2  C   UNL     1      -2.142   2.030   1.040  0.00  0.00    +0.117 A 
ATOM      3  C   UNL     1      -3.248   2.818   0.740  0.00  0.00    +0.104 A 
ATOM      4  C   UNL     1      -3.002   3.396  -0.592  0.00  0.00    +0.123 A 
ATOM      5  C   UNL     1      -1.691   2.883  -1.002  0.00  0.00    +0.166 A 
ATOM      6  N   UNL     1      -1.200   3.227  -2.173  0.00  0.00    -0.225 NA
ATOM      7  C   UNL     1      -1.893   4.049  -2.972  0.00  0.00    +0.092 A 
ATOM      8  C   UNL     1      -1.372   4.427  -4.223  0.00  0.00    +0.030 A 
ATOM      9  C   UNL     1      -2.083   5.262  -5.029  0.00  0.00    +0.002 A 
ATOM     10  C   UNL     1      -3.326   5.753  -4.633  0.00  0.00    +0.002 A 
ATOM     11  C   UNL     1      -3.862   5.410  -3.431  0.00  0.00    +0.030 A 
ATOM     12  C   UNL     1      -3.157   4.548  -2.571  0.00  0.00    +0.090 A 
ATOM     13  N   UNL     1      -3.675   4.204  -1.385  0.00  0.00    -0.241 NA
ENDROOT
BRANCH   1  17
ATOM     14  C   UNL     1       2.396   0.031  -0.021  0.00  0.00    -0.047 A 
ATOM     15  C   UNL     1       1.208  -0.677  -0.013  0.00  0.00    +0.005 A 
ATOM     16  C   UNL     1       0.002  -0.004   0.002  0.00  0.00    +0.026 A 
ATOM     17  C   UNL     1      -0.017   1.384   0.010  0.00  0.00    +0.050 A 
ATOM     18  C   UNL     1       1.178   2.092   0.002  0.00  0.00    +0.026 A 
ATOM     19  C   UNL     1       2.381   1.413  -0.013  0.00  0.00    +0.005 A 
BRANCH  14  20
ATOM     20  C   UNL     1       3.711  -0.706  -0.037  0.00  0.00    +0.035 C 
BRANCH  20  21
ATOM     21  C   UNL     1       4.141  -0.948  -1.485  0.00  0.00    +0.004 C 
BRANCH  21  23
ATOM     22  C   UNL     1       5.907  -1.938  -2.950  0.00  0.00    +0.004 C 
ATOM     23  C   UNL     1       5.476  -1.697  -1.502  0.00  0.00    -0.003 C 
ENDBRANCH  21  23
ENDBRANCH  20  21
ENDBRANCH  14  20
ENDBRANCH   1  17
BRANCH   3  24
ATOM     24  C   UNL     1      -4.424   3.030   1.581  0.00  0.00    +0.250 C 
ATOM     25  O   UNL     1      -4.444   3.949   2.379  0.00  0.00    -0.270 OA
ATOM     26  N   UNL     1      -5.486   2.207   1.474  0.00  0.00    -0.309 N 
ATOM     27  H   UNL     1      -5.470   1.475   0.838  0.00  0.00    +0.149 HD
BRANCH  26  28
ATOM     28  C   UNL     1      -6.665   2.420   2.317  0.00  0.00    +0.136 C 
BRANCH  28  29
ATOM     29  C   UNL     1      -7.718   1.356   1.998  0.00  0.00    +0.135 C 
ATOM     30  C   UNL     1      -8.963   1.571   2.881  0.00  0.00    +0.035 C 
ATOM     31  C   UNL     1     -10.116   1.771   1.867  0.00  0.00    +0.031 C 
ATOM     32  C   UNL     1      -9.537   1.124   0.584  0.00  0.00    +0.160 C 
ATOM     33  O   UNL     1      -8.138   1.479   0.629  0.00  0.00    -0.375 OA
ENDBRANCH  28  29
ENDBRANCH  26  28
ENDBRANCH   3  24
BRANCH   2  34
ATOM     34  N   UNL     1      -1.982   1.315   2.198  0.00  0.00    -0.343 N 
ATOM     35  H   UNL     1      -1.179   0.787   2.335  0.00  0.00    +0.144 HD
ATOM     36  H   UNL     1      -2.671   1.337   2.881  0.00  0.00    +0.144 HD
ENDBRANCH   2  34
TORSDOF 8
