REMARK  Name = ZINC07813120
REMARK  6 active torsions:
REMARK  status: ('A' for Active; 'I' for Inactive)
REMARK    1  A    between atoms: C_9  and  O_27
REMARK    2  A    between atoms: C_10  and  C_11
REMARK    3  A    between atoms: N_12  and  N_13
REMARK    4  A    between atoms: C_14  and  C_16
REMARK    5  A    between atoms: N_18  and  C_19
REMARK    6  A    between atoms: C_19  and  C_20
REMARK                            x       y       z     vdW  Elec       q    Type
REMARK                         _______ _______ _______ _____ _____    ______ ____
ROOT
ATOM      1  N   UNL     1       7.322   0.146  -0.069  0.00  0.00    -0.199 N 
ATOM      2  C   UNL     1       8.490  -0.526  -0.084  0.00  0.00    +0.318 C 
ATOM      3  O   UNL     1       8.492  -1.741  -0.090  0.00  0.00    -0.263 OA
ATOM      4  H   UNL     1       7.320   1.116  -0.065  0.00  0.00    +0.178 HD
ENDROOT
BRANCH   2   5
ATOM      5  C   UNL     1       9.780   0.222  -0.093  0.00  0.00    +0.301 C 
ATOM      6  O   UNL     1       9.777   1.436  -0.088  0.00  0.00    -0.265 OA
ATOM      7  N   UNL     1      10.948  -0.449  -0.108  0.00  0.00    -0.303 N 
ATOM      8  H   UNL     1      10.950  -1.419  -0.113  0.00  0.00    +0.149 HD
BRANCH   7   9
ATOM      9  C   UNL     1      12.216   0.286  -0.117  0.00  0.00    +0.140 C 
BRANCH   9  10
ATOM     10  C   UNL     1      13.363  -0.691  -0.133  0.00  0.00    -0.030 A 
ATOM     11  C   UNL     1      13.897  -1.149   1.057  0.00  0.00    +0.006 A 
ATOM     12  C   UNL     1      14.949  -2.045   1.043  0.00  0.00    +0.020 A 
ATOM     13  C   UNL     1      15.468  -2.484  -0.162  0.00  0.00    +0.041 A 
ATOM     14  C   UNL     1      14.933  -2.025  -1.353  0.00  0.00    +0.020 A 
ATOM     15  C   UNL     1      13.877  -1.133  -1.338  0.00  0.00    +0.006 A 
ATOM     16 CL   UNL     1      16.790  -3.609  -0.181  0.00  0.00    -0.084 Cl
ENDBRANCH   9  10
ENDBRANCH   7   9
ENDBRANCH   2   5
BRANCH   1  18
ATOM     17  C   UNL     1       4.981   0.091  -0.046  0.00  0.00    +0.142 C 
ATOM     18  N   UNL     1       6.110  -0.557  -0.061  0.00  0.00    -0.187 NA
BRANCH  17  28
ATOM     19  C   UNL     1      -0.016   1.358   0.009  0.00  0.00    +0.001 A 
ATOM     20  C   UNL     1       1.167   2.091   0.002  0.00  0.00    +0.001 A 
ATOM     21  C   UNL     1       2.379   1.465  -0.013  0.00  0.00    +0.009 A 
ATOM     22  C   UNL     1       2.435   0.067  -0.021  0.00  0.00    -0.006 A 
ATOM     23  C   UNL     1       1.233  -0.683  -0.013  0.00  0.00    -0.017 A 
ATOM     24  C   UNL     1       0.002  -0.004   0.002  0.00  0.00    +0.008 A 
ATOM     25  C   UNL     1       1.291  -2.087  -0.021  0.00  0.00    +0.012 A 
ATOM     26  C   UNL     1       2.487  -2.734  -0.037  0.00  0.00    +0.046 A 
ATOM     27  C   UNL     1       3.696  -2.042  -0.045  0.00  0.00    +0.126 A 
ATOM     28  C   UNL     1       3.711  -0.646  -0.037  0.00  0.00    +0.044 A 
BRANCH  27  29
ATOM     29  O   UNL     1       4.867  -2.729  -0.060  0.00  0.00    -0.506 OA
ATOM     30  H   UNL     1       5.197  -2.923  -0.948  0.00  0.00    +0.292 HD
ENDBRANCH  27  29
ENDBRANCH  17  28
ENDBRANCH   1  18
TORSDOF 6
