REMARK  Name = ZINC63479934
REMARK  5 active torsions:
REMARK  status: ('A' for Active; 'I' for Inactive)
REMARK    1  A    between atoms: C_1  and  O_2
REMARK    2  A    between atoms: O_2  and  C_3
REMARK    3  A    between atoms: C_7  and  N_9
REMARK    4  A    between atoms: C_14  and  C_32
REMARK    5  A    between atoms: C_32  and  C_33
REMARK                            x       y       z     vdW  Elec       q    Type
REMARK                         _______ _______ _______ _____ _____    ______ ____
ROOT
ATOM      1  N   UNL     1      -2.542  -4.067   0.016  0.00  0.00    -0.210 N 
ATOM      2  C   UNL     1      -1.453  -4.837  -0.086  0.00  0.00    +0.232 C 
ATOM      3  O   UNL     1      -0.315  -4.430  -0.184  0.00  0.00    -0.274 OA
ATOM      4  C   UNL     1      -1.861  -6.292  -0.058  0.00  0.00    +0.107 C 
ATOM      5  C   UNL     1      -1.603  -6.916  -1.446  0.00  0.00    +0.072 C 
ATOM      6  N   UNL     1      -2.839  -7.684  -1.755  0.00  0.00    -0.295 NA
ATOM      7  C   UNL     1      -3.930  -6.836  -1.239  0.00  0.00    +0.136 C 
ATOM      8  C   UNL     1      -3.408  -6.227   0.086  0.00  0.00    +0.123 C 
ATOM      9  C   UNL     1      -3.692  -4.743   0.121  0.00  0.00    +0.233 C 
ATOM     10  O   UNL     1      -4.792  -4.243   0.227  0.00  0.00    -0.274 OA
ATOM     11  C   UNL     1      -5.185  -7.631  -1.017  0.00  0.00    +0.006 A 
ATOM     12  C   UNL     1      -5.489  -8.723  -0.235  0.00  0.00    +0.046 A 
ATOM     13  C   UNL     1      -6.772  -9.246  -0.245  0.00  0.00    +0.124 A 
ATOM     14  C   UNL     1      -7.746  -8.667  -1.041  0.00  0.00    +0.040 A 
ATOM     15  C   UNL     1      -7.444  -7.572  -1.823  0.00  0.00    +0.026 A 
ATOM     16  C   UNL     1      -6.156  -7.041  -1.820  0.00  0.00    +0.039 A 
ATOM     17  N   UNL     1      -5.614  -5.956  -2.515  0.00  0.00    -0.283 N 
ATOM     18  C   UNL     1      -4.311  -5.769  -2.229  0.00  0.00    +0.243 C 
ATOM     19  O   UNL     1      -3.587  -4.909  -2.682  0.00  0.00    -0.273 OA
ATOM     20  F   UNL     1      -7.072 -10.319   0.520  0.00  0.00    -0.205 F 
ATOM     21  H   UNL     1      -2.934  -7.831  -2.748  0.00  0.00    +0.124 HD
ATOM     22  H   UNL     1      -6.118  -5.401  -3.131  0.00  0.00    +0.155 HD
ENDROOT
BRANCH   1  27
ATOM     23  C   UNL     1      -2.755  -0.573   1.161  0.00  0.00    +0.122 A 
ATOM     24  C   UNL     1      -2.366   0.102   0.012  0.00  0.00    +0.046 A 
ATOM     25  C   UNL     1      -2.038  -0.605  -1.129  0.00  0.00    +0.005 A 
ATOM     26  C   UNL     1      -2.096  -1.986  -1.130  0.00  0.00    +0.024 A 
ATOM     27  C   UNL     1      -2.484  -2.666   0.017  0.00  0.00    +0.047 A 
ATOM     28  C   UNL     1      -2.808  -1.958   1.165  0.00  0.00    +0.069 A 
BRANCH  23  30
ATOM     29  C   UNL     1      -2.999   1.548   2.206  0.00  0.00    +0.277 C 
ATOM     30  O   UNL     1      -3.077   0.123   2.283  0.00  0.00    -0.495 OA
ENDBRANCH  23  30
ENDBRANCH   1  27
BRANCH   5  31
ATOM     31  C   UNL     1      -0.393  -7.850  -1.393  0.00  0.00    +0.052 C 
BRANCH  31  32
ATOM     32  C   UNL     1      -0.084  -8.352  -2.780  0.00  0.00    -0.040 C 
ATOM     33  C   UNL     1       0.814  -7.836  -3.650  0.00  0.00    -0.001 A 
ATOM     34  C   UNL     1       1.735  -6.696  -3.570  0.00  0.00    +0.010 A 
ATOM     35  C   UNL     1       2.529  -6.418  -4.628  0.00  0.00    +0.001 A 
ATOM     36  C   UNL     1       2.495  -7.190  -5.798  0.00  0.00    +0.002 A 
ATOM     37  C   UNL     1       1.675  -8.252  -5.947  0.00  0.00    +0.026 A 
ATOM     38  C   UNL     1       0.796  -8.635  -4.897  0.00  0.00    +0.043 A 
ATOM     39  N   UNL     1      -0.078  -9.607  -4.800  0.00  0.00    -0.380 N 
ATOM     40  C   UNL     1      -0.711  -9.538  -3.478  0.00  0.00    +0.144 C 
ATOM     41  H   UNL     1      -0.271 -10.264  -5.487  0.00  0.00    +0.160 HD
ENDBRANCH  31  32
ENDBRANCH   5  31
TORSDOF 4
