REMARK  Name = ZINC36993212
REMARK  6 active torsions:
REMARK  status: ('A' for Active; 'I' for Inactive)
REMARK    1  A    between atoms: C_1  and  C_2
REMARK    2  A    between atoms: C_2  and  C_3
REMARK    3  A    between atoms: C_3  and  C_4
REMARK    4  A    between atoms: C_4  and  C_5
REMARK    5  A    between atoms: C_5  and  N_6
REMARK    6  A    between atoms: N_6  and  C_7
REMARK                            x       y       z     vdW  Elec       q    Type
REMARK                         _______ _______ _______ _____ _____    ______ ____
ROOT
ATOM      1  C   UNL     1      -4.030  -4.774   0.015  0.00  0.00    +0.049 A 
ATOM      2  C   UNL     1      -5.242  -4.095   0.024  0.00  0.00    +0.072 A 
ATOM      3  C   UNL     1      -6.429  -4.805   0.032  0.00  0.00    +0.144 A 
ATOM      4  C   UNL     1      -6.406  -6.199   0.031  0.00  0.00    +0.077 A 
ATOM      5  C   UNL     1      -5.197  -6.874   0.021  0.00  0.00    +0.048 A 
ATOM      6  C   UNL     1      -4.010  -6.163   0.007  0.00  0.00    +0.064 A 
ATOM      7 CL   UNL     1      -2.494  -7.008  -0.013  0.00  0.00    -0.082 Cl
ATOM      8  N   UNL     1      -7.620  -6.905   0.040  0.00  0.00    -0.280 N 
ATOM      9  C   UNL     1      -8.761  -6.249  -0.265  0.00  0.00    +0.255 C 
ATOM     10  O   UNL     1      -9.825  -6.830  -0.234  0.00  0.00    -0.272 OA
ATOM     11  C   UNL     1      -8.706  -4.791  -0.646  0.00  0.00    +0.325 C 
ATOM     12  O   UNL     1      -7.624  -4.156   0.041  0.00  0.00    -0.481 OA
ATOM     13  H   UNL     1      -7.640  -7.849   0.263  0.00  0.00    +0.155 HD
ENDROOT
BRANCH   1  14
ATOM     14  N   UNL     1      -2.828  -4.058   0.007  0.00  0.00    -0.343 N 
ATOM     15  H   UNL     1      -1.982  -4.531  -0.003  0.00  0.00    +0.146 HD
BRANCH  14  16
ATOM     16  C   UNL     1      -2.848  -2.593   0.015  0.00  0.00    +0.101 C 
BRANCH  16  17
ATOM     17  C   UNL     1      -1.413  -2.063   0.004  0.00  0.00    +0.019 C 
BRANCH  17  18
ATOM     18  C   UNL     1      -1.433  -0.534   0.013  0.00  0.00    +0.001 C 
BRANCH  18  20
ATOM     19  C   UNL     1      -0.019   1.526   0.010  0.00  0.00    +0.004 C 
ATOM     20  C   UNL     1       0.002  -0.004   0.002  0.00  0.00    -0.003 C 
ENDBRANCH  18  20
ENDBRANCH  17  18
ENDBRANCH  16  17
ENDBRANCH  14  16
ENDBRANCH   1  14
TORSDOF 5
