REMARK  Name = ZINC13000972
REMARK  7 active torsions:
REMARK  status: ('A' for Active; 'I' for Inactive)
REMARK    1  A    between atoms: C_1  and  C_2
REMARK    2  A    between atoms: C_5  and  C_8
REMARK    3  A    between atoms: C_8  and  N_9
REMARK    4  A    between atoms: C_10  and  C_12
REMARK    5  A    between atoms: C_13  and  C_25
REMARK    6  A    between atoms: C_15  and  N_17
REMARK    7  A    between atoms: C_18  and  C_20
REMARK                            x       y       z     vdW  Elec       q    Type
REMARK                         _______ _______ _______ _____ _____    ______ ____
ROOT
ATOM      1  C   UNL     1       1.147   5.877   3.027  0.00  0.00    +0.078 A 
ATOM      2  C   UNL     1       1.134   7.183   3.496  0.00  0.00    -0.029 A 
ATOM      3  C   UNL     1       1.144   7.363   4.853  0.00  0.00    +0.035 A 
ATOM      4  C   UNL     1       1.167   6.252   5.669  0.00  0.00    +0.073 A 
ATOM      5  S   UNL     1       1.167   4.935   4.542  0.00  0.00    -0.069 S 
ATOM      6  C   UNL     1       1.110   8.356   2.550  0.00  0.00    +0.045 C 
ENDROOT
BRANCH   1   8
ATOM      7  N   UNL     1       1.157   4.074   1.394  0.00  0.00    -0.307 N 
ATOM      8  C   UNL     1       1.141   5.397   1.647  0.00  0.00    +0.251 C 
ATOM      9  O   UNL     1       1.122   6.193   0.725  0.00  0.00    -0.270 OA
ATOM     10  H   UNL     1       1.172   3.440   2.128  0.00  0.00    +0.149 HD
BRANCH   7  11
ATOM     11  C   UNL     1       1.151   3.592   0.010  0.00  0.00    +0.139 C 
BRANCH  11  16
ATOM     12  C   UNL     1       1.229  -2.186  -0.022  0.00  0.00    +0.044 C 
ATOM     13  C   UNL     1       1.208  -0.679  -0.014  0.00  0.00    -0.050 A 
ATOM     14  C   UNL     1       0.002  -0.004   0.002  0.00  0.00    +0.003 A 
ATOM     15  C   UNL     1      -0.017   1.378   0.010  0.00  0.00    +0.005 A 
ATOM     16  C   UNL     1       1.171   2.086   0.002  0.00  0.00    -0.030 A 
ATOM     17  C   UNL     1       2.377   1.411  -0.014  0.00  0.00    +0.005 A 
ATOM     18  C   UNL     1       2.396   0.029  -0.021  0.00  0.00    +0.003 A 
ENDBRANCH  11  16
ENDBRANCH   7  11
ENDBRANCH   1   8
BRANCH   4  19
ATOM     19  N   UNL     1       1.181   6.200   7.056  0.00  0.00    -0.273 N 
ATOM     20  C   UNL     1       1.203   5.008   7.686  0.00  0.00    +0.284 C 
ATOM     21  O   UNL     1       1.211   3.978   7.038  0.00  0.00    -0.266 OA
ATOM     22  H   UNL     1       1.174   7.021   7.573  0.00  0.00    +0.156 HD
BRANCH  20  23
ATOM     23  C   UNL     1       1.217   4.954   9.151  0.00  0.00    +0.189 A 
ATOM     24  C   UNL     1       1.240   3.820   9.912  0.00  0.00    +0.054 A 
ATOM     25  C   UNL     1       1.247   4.233  11.253  0.00  0.00    +0.042 A 
ATOM     26  C   UNL     1       1.229   5.585  11.252  0.00  0.00    +0.196 A 
ATOM     27  O   UNL     1       1.216   6.015   9.984  0.00  0.00    -0.458 OA
ENDBRANCH  20  23
ENDBRANCH   4  19
TORSDOF 5
