REMARK  Name = ZINC06600039
REMARK  17 active torsions:
REMARK  status: ('A' for Active; 'I' for Inactive)
REMARK    1  A    between atoms: C_1  and  C_2
REMARK    2  A    between atoms: C_2  and  O_3
REMARK    3  A    between atoms: O_3  and  C_4
REMARK    4  A    between atoms: C_4  and  C_5
REMARK    5  A    between atoms: C_5  and  C_6
REMARK    6  A    between atoms: C_6  and  N_7
REMARK    7  A    between atoms: N_7  and  C_8
REMARK    8  A    between atoms: C_8  and  C_10
REMARK    9  A    between atoms: C_8  and  C_17
REMARK   10  A    between atoms: N_19  and  C_20
REMARK   11  A    between atoms: C_20  and  C_21
REMARK   12  A    between atoms: C_21  and  C_22
REMARK   13  A    between atoms: C_22  and  C_23
REMARK   14  A    between atoms: C_22  and  C_24
REMARK   15  A    between atoms: C_25  and  C_27
REMARK   16  A    between atoms: C_28  and  N_35
REMARK   17  A    between atoms: C_29  and  C_32
REMARK                            x       y       z     vdW  Elec       q    Type
REMARK                         _______ _______ _______ _____ _____    ______ ____
ROOT
ATOM      1  N   UNL     1       1.574  -4.280  -4.477  0.00  0.00    -0.281 N 
ATOM      2  C   UNL     1       0.815  -3.932  -3.419  0.00  0.00    +0.257 C 
ATOM      3  O   UNL     1       1.286  -3.962  -2.297  0.00  0.00    -0.269 OA
ENDROOT
BRANCH   2   4
ATOM      4  C   UNL     1      -0.575  -3.518  -3.619  0.00  0.00    +0.115 A 
ATOM      5  C   UNL     1      -1.499  -3.045  -2.687  0.00  0.00    +0.076 A 
ATOM      6  C   UNL     1      -2.742  -2.745  -3.241  0.00  0.00    +0.155 A 
ATOM      7  N   UNL     1      -2.937  -2.922  -4.531  0.00  0.00    -0.203 NA
ATOM      8  S   UNL     1      -1.536  -3.477  -5.119  0.00  0.00    +0.019 S 
BRANCH   6   9
ATOM      9  C   UNL     1      -3.831  -2.233  -2.389  0.00  0.00    +0.262 C 
ATOM     10  O   UNL     1      -3.618  -1.974  -1.220  0.00  0.00    -0.269 OA
ATOM     11  N   UNL     1      -5.063  -2.052  -2.906  0.00  0.00    -0.324 N 
ATOM     12  H   UNL     1      -5.232  -2.259  -3.838  0.00  0.00    +0.145 HD
ATOM     13  H   UNL     1      -5.779  -1.716  -2.345  0.00  0.00    +0.145 HD
ENDBRANCH   6   9
BRANCH   5  14
ATOM     14  N   UNL     1      -1.209  -2.888  -1.338  0.00  0.00    -0.355 N 
ATOM     15  H   UNL     1      -0.297  -2.986  -1.024  0.00  0.00    +0.142 HD
ATOM     16  H   UNL     1      -1.919  -2.681  -0.710  0.00  0.00    +0.142 HD
ENDBRANCH   5  14
ENDBRANCH   2   4
BRANCH   1  17
ATOM     17  C   UNL     1       1.043  -4.142  -5.836  0.00  0.00    +0.111 C 
BRANCH  17  18
ATOM     18  C   UNL     1       0.195  -5.368  -6.178  0.00  0.00    +0.047 C 
BRANCH  18  19
ATOM     19  C   UNL     1      -0.360  -5.225  -7.597  0.00  0.00    +0.161 C 
BRANCH  19  20
ATOM     20  O   UNL     1      -1.152  -6.370  -7.917  0.00  0.00    -0.380 OA
BRANCH  20  22
ATOM     21  C   UNL     1      -2.544  -7.604  -9.460  0.00  0.00    +0.034 C 
ATOM     22  C   UNL     1      -1.721  -6.336  -9.228  0.00  0.00    +0.156 C 
ENDBRANCH  20  22
ENDBRANCH  19  20
ENDBRANCH  18  19
ENDBRANCH  17  18
ENDBRANCH   1  17
BRANCH   1  23
ATOM     23  C   UNL     1       2.929  -4.795  -4.269  0.00  0.00    +0.192 C 
BRANCH  23  24
ATOM     24  C   UNL     1       3.071  -6.129  -4.957  0.00  0.00    -0.018 A 
ATOM     25  C   UNL     1       3.135  -7.289  -4.207  0.00  0.00    +0.007 A 
ATOM     26  C   UNL     1       3.264  -8.512  -4.837  0.00  0.00    +0.020 A 
ATOM     27  C   UNL     1       3.330  -8.576  -6.218  0.00  0.00    +0.041 A 
ATOM     28  C   UNL     1       3.265  -7.415  -6.967  0.00  0.00    +0.020 A 
ATOM     29  C   UNL     1       3.130  -6.192  -6.336  0.00  0.00    +0.007 A 
ATOM     30 CL   UNL     1       3.493 -10.112  -7.010  0.00  0.00    -0.084 Cl
ENDBRANCH  23  24
BRANCH  23  31
ATOM     31  C   UNL     1       3.929  -3.825  -4.844  0.00  0.00    +0.238 C 
ATOM     32  O   UNL     1       3.547  -2.804  -5.375  0.00  0.00    -0.273 OA
ATOM     33  N   UNL     1       5.248  -4.093  -4.768  0.00  0.00    -0.313 N 
ATOM     34  H   UNL     1       5.553  -4.910  -4.343  0.00  0.00    +0.149 HD
BRANCH  33  35
ATOM     35  C   UNL     1       6.220  -3.150  -5.327  0.00  0.00    +0.104 C 
BRANCH  35  36
ATOM     36  C   UNL     1       7.636  -3.688  -5.109  0.00  0.00    +0.022 C 
BRANCH  36  37
ATOM     37  C   UNL     1       8.651  -2.704  -5.693  0.00  0.00    -0.016 C 
ATOM     38  C   UNL     1       8.594  -1.389  -4.912  0.00  0.00    +0.007 C 
ATOM     39  C   UNL     1      10.057  -3.298  -5.588  0.00  0.00    +0.007 C 
ENDBRANCH  36  37
ENDBRANCH  35  36
ENDBRANCH  33  35
ENDBRANCH  23  31
ENDBRANCH   1  23
TORSDOF 14
