REMARK  Name = ZINC05077038
REMARK  8 active torsions:
REMARK  status: ('A' for Active; 'I' for Inactive)
REMARK    1  A    between atoms: C_1  and  C_2
REMARK    2  A    between atoms: C_2  and  C_20
REMARK    3  A    between atoms: N_5  and  C_9
REMARK    4  A    between atoms: C_9  and  C_10
REMARK    5  A    between atoms: N_15  and  C_16
REMARK    6  A    between atoms: C_16  and  C_17
REMARK    7  A    between atoms: C_16  and  C_18
REMARK    8  A    between atoms: C_16  and  C_19
REMARK                            x       y       z     vdW  Elec       q    Type
REMARK                         _______ _______ _______ _____ _____    ______ ____
ROOT
ATOM      1  C   UNL     1       0.656   6.185   1.145  0.00  0.00    +0.047 C 
ATOM      2  C   UNL     1      -0.710   5.683   0.670  0.00  0.00    +0.135 C 
ATOM      3  C   UNL     1      -0.955   4.264   1.145  0.00  0.00    +0.251 C 
ATOM      4  O   UNL     1      -1.021   3.876   2.292  0.00  0.00    -0.272 OA
ATOM      5  N   UNL     1      -1.083   3.523   0.026  0.00  0.00    -0.215 N 
ATOM      6  C   UNL     1      -0.962   4.270  -1.077  0.00  0.00    +0.310 C 
ATOM      7  O   UNL     1      -1.044   3.826  -2.206  0.00  0.00    -0.252 OA
ATOM      8  N   UNL     1      -0.738   5.567  -0.798  0.00  0.00    -0.281 N 
ATOM      9  H   UNL     1      -0.619   6.285  -1.438  0.00  0.00    +0.152 HD
ENDROOT
BRANCH   2  10
ATOM     10  C   UNL     1      -1.808   6.596   1.151  0.00  0.00    -0.012 A 
ATOM     11  C   UNL     1      -2.396   6.378   2.383  0.00  0.00    +0.010 A 
ATOM     12  C   UNL     1      -3.404   7.213   2.828  0.00  0.00    +0.050 A 
ATOM     13  C   UNL     1      -3.828   8.271   2.038  0.00  0.00    +0.162 A 
ATOM     14  C   UNL     1      -3.236   8.491   0.801  0.00  0.00    +0.162 A 
ATOM     15  C   UNL     1      -2.221   7.652   0.363  0.00  0.00    +0.055 A 
ATOM     16  O   UNL     1      -3.633   9.527   0.012  0.00  0.00    -0.485 OA
ATOM     17  C   UNL     1      -4.899  10.121   0.320  0.00  0.00    +0.270 C 
ATOM     18  C   UNL     1      -4.966  10.349   1.836  0.00  0.00    +0.270 C 
ATOM     19  O   UNL     1      -4.825   9.082   2.488  0.00  0.00    -0.485 OA
ENDBRANCH   2  10
BRANCH   5  20
ATOM     20  C   UNL     1      -1.331   2.079   0.020  0.00  0.00    +0.214 C 
BRANCH  20  21
ATOM     21  C   UNL     1      -0.016   1.344   0.009  0.00  0.00    +0.238 C 
ATOM     22  O   UNL     1       1.025   1.964   0.003  0.00  0.00    -0.274 OA
ATOM     23  N   UNL     1       0.002  -0.004   0.002  0.00  0.00    -0.239 N 
ATOM     24  C   UNL     1       1.178  -0.662  -0.013  0.00  0.00    +0.306 C 
ATOM     25  O   UNL     1       2.222  -0.040  -0.019  0.00  0.00    -0.252 OA
ATOM     26  N   UNL     1       1.196  -2.010  -0.020  0.00  0.00    -0.294 N 
ATOM     27  H   UNL     1      -0.831  -0.500   0.007  0.00  0.00    +0.159 HD
ATOM     28  H   UNL     1       0.363  -2.506  -0.015  0.00  0.00    +0.151 HD
BRANCH  26  29
ATOM     29  C   UNL     1       2.475  -2.725  -0.036  0.00  0.00    +0.028 C 
ATOM     30  C   UNL     1       3.284  -2.351   1.207  0.00  0.00    +0.031 C 
ATOM     31  C   UNL     1       2.216  -4.233  -0.042  0.00  0.00    +0.031 C 
ATOM     32  C   UNL     1       3.260  -2.337  -1.291  0.00  0.00    +0.031 C 
ENDBRANCH  26  29
ENDBRANCH  20  21
ENDBRANCH   5  20
TORSDOF 4
