REMARK  Name = ZINC02725285
REMARK  5 active torsions:
REMARK  status: ('A' for Active; 'I' for Inactive)
REMARK    1  A    between atoms: C_1  and  C_2
REMARK    2  A    between atoms: C_5  and  C_8
REMARK    3  A    between atoms: C_8  and  N_9
REMARK    4  A    between atoms: N_12  and  C_13
REMARK    5  A    between atoms: C_13  and  C_22
REMARK                            x       y       z     vdW  Elec       q    Type
REMARK                         _______ _______ _______ _____ _____    ______ ____
ROOT
ATOM      1  N   UNL     1       1.222  -2.667  -1.404  0.00  0.00    -0.295 N 
ATOM      2  C   UNL     1       1.237  -3.991  -1.657  0.00  0.00    +0.306 C 
ATOM      3  O   UNL     1       1.257  -4.786  -0.736  0.00  0.00    -0.253 OA
ATOM      4  N   UNL     1       1.231  -4.434  -2.929  0.00  0.00    -0.220 N 
ATOM      5  H   UNL     1       1.206  -2.034  -2.138  0.00  0.00    +0.151 HD
ATOM      6  H   UNL     1       1.215  -3.801  -3.664  0.00  0.00    +0.158 HD
ENDROOT
BRANCH   4   7
ATOM      7  C   UNL     1       1.248  -5.873  -3.204  0.00  0.00    +0.436 C 
ATOM      8  O   UNL     1       0.129  -6.522  -2.571  0.00  0.00    -0.426 OA
ATOM      9  C   UNL     1       0.587  -6.914  -1.342  0.00  0.00    +0.169 A 
ATOM     10  C   UNL     1      -0.084  -7.292  -0.190  0.00  0.00    +0.049 A 
ATOM     11  C   UNL     1       0.628  -7.649   0.939  0.00  0.00    +0.004 A 
ATOM     12  C   UNL     1       2.010  -7.630   0.924  0.00  0.00    +0.004 A 
ATOM     13  C   UNL     1       2.686  -7.253  -0.222  0.00  0.00    +0.049 A 
ATOM     14  C   UNL     1       1.979  -6.894  -1.358  0.00  0.00    +0.169 A 
ATOM     15  O   UNL     1       2.396  -6.492  -2.594  0.00  0.00    -0.426 OA
BRANCH   7  16
ATOM     16  C   UNL     1       1.236  -6.131  -4.712  0.00  0.00    +0.490 C 
ATOM     17  F   UNL     1       2.365  -5.545  -5.294  0.00  0.00    -0.162 F 
ATOM     18  F   UNL     1       1.253  -7.510  -4.949  0.00  0.00    -0.162 F 
ATOM     19  F   UNL     1       0.081  -5.576  -5.272  0.00  0.00    -0.162 F 
ENDBRANCH   7  16
ENDBRANCH   4   7
BRANCH   1  20
ATOM     20  C   UNL     1       1.229  -2.186  -0.021  0.00  0.00    +0.141 C 
BRANCH  20  25
ATOM     21  C   UNL     1       1.151   3.592   0.010  0.00  0.00    +0.044 C 
ATOM     22  C   UNL     1       1.171   2.086   0.002  0.00  0.00    -0.050 A 
ATOM     23  C   UNL     1      -0.017   1.378   0.010  0.00  0.00    +0.003 A 
ATOM     24  C   UNL     1       0.002  -0.004   0.002  0.00  0.00    +0.005 A 
ATOM     25  C   UNL     1       1.208  -0.679  -0.013  0.00  0.00    -0.030 A 
ATOM     26  C   UNL     1       2.396   0.029  -0.021  0.00  0.00    +0.005 A 
ATOM     27  C   UNL     1       2.377   1.411  -0.015  0.00  0.00    +0.003 A 
ENDBRANCH  20  25
ENDBRANCH   1  20
TORSDOF 4
