REMARK  Name = ZINC12587825
REMARK  4 active torsions:
REMARK  status: ('A' for Active; 'I' for Inactive)
REMARK    1  A    between atoms: C_4  and  C_7
REMARK    2  A    between atoms: C_13  and  C_15
REMARK    3  A    between atoms: C_15  and  C_16
REMARK    4  A    between atoms: C_23  and  N_62
REMARK                            x       y       z     vdW  Elec       q    Type
REMARK                         _______ _______ _______ _____ _____    ______ ____
ROOT
ATOM      1  C   UNL     1       0.354   1.357  -0.335  0.00  0.00    +0.028 C 
ATOM      2  C   UNL     1       0.180  -0.127  -0.496  0.00  0.00    +0.200 C 
ATOM      3  O   UNL     1       0.659  -0.863   0.341  0.00  0.00    -0.278 OA
ATOM      4  N   UNL     1      -0.481  -0.670  -1.524  0.00  0.00    -0.318 N 
ATOM      5  C   UNL     1      -1.125   0.128  -2.564  0.00  0.00    +0.085 C 
ATOM      6  C   UNL     1      -0.563   1.550  -2.557  0.00  0.00    -0.058 C 
ATOM      7  H   UNL     1      -0.536  -1.637  -1.581  0.00  0.00    +0.149 HD
ATOM      8  N   UNL     1      -0.632   2.062  -1.173  0.00  0.00    +0.391 N 
ATOM      9  H   UNL     1      -1.573   1.892  -0.800  0.00  0.00    -0.080 HD
ENDROOT
BRANCH   8  10
ATOM     10  C   UNL     1      -0.363   3.518  -1.156  0.00  0.00    -0.059 C 
ATOM     11  C   UNL     1      -0.974   4.159   0.108  0.00  0.00    +0.020 C 
ATOM     12  C   UNL     1      -1.465   5.522  -0.340  0.00  0.00    -0.046 A 
ATOM     13  C   UNL     1      -1.805   6.641   0.403  0.00  0.00    +0.004 A 
ATOM     14  C   UNL     1      -2.229   7.793  -0.229  0.00  0.00    +0.000 A 
ATOM     15  C   UNL     1      -2.315   7.831  -1.608  0.00  0.00    +0.000 A 
ATOM     16  C   UNL     1      -1.977   6.716  -2.351  0.00  0.00    +0.004 A 
ATOM     17  C   UNL     1      -1.551   5.560  -1.719  0.00  0.00    -0.046 A 
ATOM     18  C   UNL     1      -1.129   4.226  -2.295  0.00  0.00    +0.020 C 
ENDBRANCH   8  10
BRANCH   1  19
ATOM     19  C   UNL     1       0.127   1.739   1.129  0.00  0.00    +0.090 C 
BRANCH  19  26
ATOM     20  C   UNL     1      -2.425   1.464   5.463  0.00  0.00    +0.022 C 
ATOM     21  C   UNL     1      -3.251   0.769   4.379  0.00  0.00    +0.027 C 
ATOM     22  C   UNL     1      -3.170   1.581   3.082  0.00  0.00    +0.108 C 
ATOM     23  N   UNL     1      -1.756   1.774   2.732  0.00  0.00    -0.301 N 
ATOM     24  C   UNL     1      -0.852   2.347   3.739  0.00  0.00    +0.108 C 
ATOM     25  C   UNL     1      -0.960   1.532   5.026  0.00  0.00    +0.027 C 
ATOM     26  C   UNL     1      -1.297   1.428   1.514  0.00  0.00    +0.214 C 
ATOM     27  O   UNL     1      -2.029   0.867   0.727  0.00  0.00    -0.276 OA
BRANCH  20  31
ATOM     28  C   UNL     1      -2.721  -0.742   9.110  0.00  0.00    +0.000 A 
ATOM     29  C   UNL     1      -3.144   0.574   9.061  0.00  0.00    +0.000 A 
ATOM     30  C   UNL     1      -3.048   1.287   7.881  0.00  0.00    +0.004 A 
ATOM     31  C   UNL     1      -2.529   0.686   6.750  0.00  0.00    -0.044 A 
ATOM     32  C   UNL     1      -2.111  -0.631   6.797  0.00  0.00    +0.004 A 
ATOM     33  C   UNL     1      -2.203  -1.343   7.978  0.00  0.00    +0.000 A 
ENDBRANCH  20  31
ENDBRANCH  19  26
ENDBRANCH   1  19
TORSDOF 4
