REMARK  Name = ZINC39079336
REMARK  3 active torsions:
REMARK  status: ('A' for Active; 'I' for Inactive)
REMARK    1  A    between atoms: C_1  and  N_2
REMARK    2  A    between atoms: N_2  and  C_3
REMARK    3  A    between atoms: N_2  and  C_4
REMARK                            x       y       z     vdW  Elec       q    Type
REMARK                         _______ _______ _______ _____ _____    ______ ____
ROOT
ATOM      1  C   UNL     1      -1.362  -0.549   0.012  0.00  0.00    +0.277 C 
ATOM      2  C   UNL     1      -1.310  -2.076  -0.136  0.00  0.00    +0.070 C 
ATOM      3  C   UNL     1      -2.741  -2.614  -0.026  0.00  0.00    +0.057 C 
ATOM      4  C   UNL     1      -3.653  -1.790  -0.892  0.00  0.00    +0.146 C 
ATOM      5  N   UNL     1      -3.337  -0.646  -1.337  0.00  0.00    -0.002 N 
ATOM      6  O   UNL     1      -4.284   0.040  -2.135  0.00  0.00    -0.131 OA
ATOM      7  O   UNL     1      -2.102  -0.014  -1.087  0.00  0.00    -0.362 OA
ENDROOT
BRANCH   1   9
ATOM      8  C   UNL     1      -0.018   1.465   0.010  0.00  0.00    +0.108 C 
ATOM      9  N   UNL     1       0.002  -0.004   0.002  0.00  0.00    -0.272 NA
ATOM     10  C   UNL     1       0.786  -0.526   1.129  0.00  0.00    +0.108 C 
ENDBRANCH   1   9
TORSDOF 1
