REMARK  Name = ZINC58311948
REMARK  7 active torsions:
REMARK  status: ('A' for Active; 'I' for Inactive)
REMARK    1  A    between atoms: C_1  and  C_2
REMARK    2  A    between atoms: C_5  and  N_8
REMARK    3  A    between atoms: N_8  and  C_9
REMARK    4  A    between atoms: C_14  and  N_15
REMARK    5  A    between atoms: N_15  and  S_16
REMARK    6  A    between atoms: S_16  and  C_19
REMARK    7  A    between atoms: C_29  and  C_31
REMARK                            x       y       z     vdW  Elec       q    Type
REMARK                         _______ _______ _______ _____ _____    ______ ____
ROOT
ATOM      1  N   UNL     1       0.265  -6.781  -0.103  0.00  0.00    -0.214 N 
ATOM      2  H   UNL     1       0.712  -6.458  -0.901  0.00  0.00    +0.174 HD
ENDROOT
BRANCH   1   8
ATOM      3  C   UNL     1       0.131  -4.601   0.942  0.00  0.00    +0.054 A 
ATOM      4  C   UNL     1       0.094  -3.821   2.089  0.00  0.00    +0.025 A 
ATOM      5  C   UNL     1       0.161  -4.419   3.333  0.00  0.00    +0.002 A 
ATOM      6  C   UNL     1       0.267  -5.793   3.440  0.00  0.00    +0.002 A 
ATOM      7  C   UNL     1       0.305  -6.578   2.303  0.00  0.00    +0.026 A 
ATOM      8  C   UNL     1       0.232  -5.988   1.050  0.00  0.00    +0.069 A 
BRANCH   3   9
ATOM      9  N   UNL     1       0.063  -3.998  -0.320  0.00  0.00    -0.313 N 
ATOM     10  H   UNL     1      -0.022  -4.546  -1.115  0.00  0.00    +0.152 HD
BRANCH   9  15
ATOM     11  C   UNL     1       0.281   1.650  -0.780  0.00  0.00    +0.044 C 
ATOM     12  C   UNL     1       0.223   0.149  -0.658  0.00  0.00    -0.050 A 
ATOM     13  C   UNL     1       1.052  -0.502   0.237  0.00  0.00    +0.005 A 
ATOM     14  C   UNL     1       1.002  -1.878   0.351  0.00  0.00    +0.023 A 
ATOM     15  C   UNL     1       0.116  -2.607  -0.433  0.00  0.00    +0.031 A 
ATOM     16  C   UNL     1      -0.716  -1.948  -1.330  0.00  0.00    +0.023 A 
ATOM     17  C   UNL     1      -0.664  -0.573  -1.436  0.00  0.00    +0.005 A 
ENDBRANCH   9  15
ENDBRANCH   3   9
ENDBRANCH   1   8
BRANCH   1  18
ATOM     18  S   UNL     1      -0.459  -8.271  -0.104  0.00  0.00    +0.072 S 
ATOM     19  O   UNL     1      -0.366  -8.766  -1.433  0.00  0.00    -0.150 OA
ATOM     20  O   UNL     1       0.065  -8.978   1.012  0.00  0.00    -0.150 OA
BRANCH  18  21
ATOM     21  C   UNL     1      -2.172  -8.017   0.220  0.00  0.00    +0.109 A 
ATOM     22  C   UNL     1      -2.635  -8.014   1.523  0.00  0.00    +0.030 A 
ATOM     23  C   UNL     1      -3.977  -7.817   1.776  0.00  0.00    +0.026 A 
ATOM     24  C   UNL     1      -4.863  -7.622   0.723  0.00  0.00    +0.040 A 
ATOM     25  C   UNL     1      -4.399  -7.621  -0.583  0.00  0.00    -0.024 A 
ATOM     26  C   UNL     1      -3.049  -7.817  -0.828  0.00  0.00    +0.034 A 
ATOM     27  C   UNL     1      -5.327  -7.402  -1.748  0.00  0.00    +0.038 C 
ATOM     28  C   UNL     1      -6.770  -7.704  -1.347  0.00  0.00    +0.024 C 
ATOM     29  C   UNL     1      -7.102  -6.929  -0.065  0.00  0.00    +0.114 C 
ATOM     30  N   UNL     1      -6.223  -7.428   1.001  0.00  0.00    -0.271 N 
ATOM     31  C   UNL     1      -6.717  -7.697   2.226  0.00  0.00    +0.217 C 
ATOM     32  O   UNL     1      -5.975  -8.068   3.111  0.00  0.00    -0.276 OA
ATOM     33  C   UNL     1      -8.190  -7.535   2.497  0.00  0.00    +0.109 C 
ENDBRANCH  18  21
ENDBRANCH   1  18
TORSDOF 5
