REMARK  Name = ZINC57406014
REMARK  6 active torsions:
REMARK  status: ('A' for Active; 'I' for Inactive)
REMARK    1  A    between atoms: C_1  and  C_2
REMARK    2  A    between atoms: C_15  and  C_17
REMARK    3  A    between atoms: C_17  and  C_19
REMARK    4  A    between atoms: C_17  and  N_20
REMARK    5  A    between atoms: C_22  and  C_29
REMARK    6  A    between atoms: C_25  and  C_28
REMARK                            x       y       z     vdW  Elec       q    Type
REMARK                         _______ _______ _______ _____ _____    ______ ____
ROOT
ATOM      1  C   UNL     1      -0.019   1.526   0.010  0.00  0.00    +0.008 C 
ATOM      2  C   UNL     1       0.002  -0.004   0.002  0.00  0.00    -0.009 C 
ATOM      3  C   UNL     1       0.726  -0.501  -1.253  0.00  0.00    +0.008 C 
ATOM      4  C   UNL     1       0.536  -2.011  -1.397  0.00  0.00    +0.037 C 
ATOM      5  C   UNL     1       0.949  -2.688  -0.093  0.00  0.00    -0.023 A 
ATOM      6  C   UNL     1       1.031  -1.976   1.055  0.00  0.00    -0.004 A 
ATOM      7  S   UNL     1       1.537  -3.145   2.292  0.00  0.00    -0.073 S 
ATOM      8  C   UNL     1       1.637  -4.581   1.270  0.00  0.00    +0.116 A 
ATOM      9  C   UNL     1       1.271  -4.101  -0.007  0.00  0.00    +0.075 A 
ATOM     10  C   UNL     1       1.257  -5.054  -1.081  0.00  0.00    +0.260 A 
ATOM     11  O   UNL     1       0.955  -4.742  -2.220  0.00  0.00    -0.267 OA
ATOM     12  N   UNL     1       1.599  -6.321  -0.747  0.00  0.00    -0.309 N 
ATOM     13  H   UNL     1       1.603  -6.997  -1.443  0.00  0.00    +0.170 HD
ATOM     14  C   UNL     1       1.938  -6.688   0.512  0.00  0.00    +0.128 A 
ATOM     15  N   UNL     1       1.962  -5.845   1.522  0.00  0.00    -0.225 NA
ATOM     16  C   UNL     1       0.751  -0.516   1.241  0.00  0.00    +0.046 C 
ENDROOT
BRANCH  14  17
ATOM     17  C   UNL     1       2.301  -8.127   0.768  0.00  0.00    +0.120 C 
ATOM     18  C   UNL     1       1.166  -9.033   0.289  0.00  0.00    +0.032 C 
BRANCH  17  19
ATOM     19  N   UNL     1       2.515  -8.330   2.208  0.00  0.00    -0.288 NA
ATOM     20  C   UNL     1       1.262  -8.154   2.956  0.00  0.00    +0.116 C 
ATOM     21  C   UNL     1       1.541  -8.314   4.453  0.00  0.00    +0.130 C 
ATOM     22  O   UNL     1       2.137  -9.593   4.687  0.00  0.00    -0.371 OA
ATOM     23  C   UNL     1       3.360  -9.798   3.974  0.00  0.00    +0.130 C 
ATOM     24  C   UNL     1       3.099  -9.653   2.473  0.00  0.00    +0.116 C 
ATOM     25  C   UNL     1       3.893 -11.201   4.268  0.00  0.00    +0.039 C 
ATOM     26  C   UNL     1       0.228  -8.211   5.231  0.00  0.00    +0.039 C 
ENDBRANCH  17  19
ENDBRANCH  14  17
TORSDOF 2
