REMARK  Name = ZINC25678873
REMARK  11 active torsions:
REMARK  status: ('A' for Active; 'I' for Inactive)
REMARK    1  A    between atoms: C_1  and  C_2
REMARK    2  A    between atoms: C_2  and  O_3
REMARK    3  A    between atoms: O_3  and  C_4
REMARK    4  A    between atoms: C_9  and  N_10
REMARK    5  A    between atoms: C_11  and  C_13
REMARK    6  A    between atoms: C_13  and  C_15
REMARK    7  A    between atoms: C_13  and  O_21
REMARK    8  A    between atoms: O_21  and  C_22
REMARK    9  A    between atoms: C_22  and  C_24
REMARK   10  A    between atoms: C_27  and  C_30
REMARK   11  A    between atoms: C_30  and  N_31
REMARK                            x       y       z     vdW  Elec       q    Type
REMARK                         _______ _______ _______ _____ _____    ______ ____
ROOT
ATOM      1  C   UNL     1      -7.221  -3.503  -1.081  0.00  0.00    +0.292 C 
ENDROOT
BRANCH   1   2
ATOM      2  C   UNL     1      -8.538  -2.770  -1.055  0.00  0.00    +0.002 A 
ATOM      3  C   UNL     1      -8.725  -1.657  -1.854  0.00  0.00    +0.008 A 
ATOM      4  C   UNL     1      -9.933  -0.987  -1.833  0.00  0.00    +0.000 A 
ATOM      5  C   UNL     1     -10.952  -1.424  -1.008  0.00  0.00    +0.000 A 
ATOM      6  C   UNL     1     -10.764  -2.534  -0.206  0.00  0.00    +0.000 A 
ATOM      7  C   UNL     1      -9.556  -3.207  -0.229  0.00  0.00    +0.008 A 
ENDBRANCH   1   2
BRANCH   1   9
ATOM      8  N   UNL     1      -8.095  -5.387  -2.426  0.00  0.00    -0.279 N 
ATOM      9  C   UNL     1      -7.176  -4.411  -2.283  0.00  0.00    +0.263 C 
ATOM     10  O   UNL     1      -6.312  -4.264  -3.122  0.00  0.00    -0.271 OA
ATOM     11  H   UNL     1      -8.822  -5.580  -1.623  0.00  0.00    +0.155 HD
BRANCH   8  17
ATOM     12  C   UNL     1      -8.673  -7.436  -3.578  0.00  0.00    +0.142 A 
ATOM     13  C   UNL     1      -8.699  -8.191  -4.739  0.00  0.00    +0.047 A 
ATOM     14  C   UNL     1      -8.182  -7.675  -5.913  0.00  0.00    +0.004 A 
ATOM     15  C   UNL     1      -7.637  -6.404  -5.932  0.00  0.00    +0.002 A 
ATOM     16  C   UNL     1      -7.612  -5.642  -4.779  0.00  0.00    +0.027 A 
ATOM     17  C   UNL     1      -8.124  -6.156  -3.597  0.00  0.00    +0.076 A 
BRANCH  12  18
ATOM     18  O   UNL     1      -9.182  -7.942  -2.424  0.00  0.00    -0.490 OA
BRANCH  18  20
ATOM     19  C   UNL     1     -10.248  -9.657  -1.096  0.00  0.00    +0.048 C 
ATOM     20  C   UNL     1      -9.728  -9.262  -2.480  0.00  0.00    +0.226 C 
ENDBRANCH  18  20
ENDBRANCH  12  18
ENDBRANCH   8  17
ENDBRANCH   1   9
BRANCH   1  21
ATOM     21  O   UNL     1      -6.134  -2.544  -1.158  0.00  0.00    -0.444 OA
BRANCH  21  22
ATOM     22  C   UNL     1      -5.629  -2.097   0.009  0.00  0.00    +0.340 C 
ATOM     23  O   UNL     1      -6.085  -2.498   1.061  0.00  0.00    -0.245 OA
BRANCH  22  24
ATOM     24  C   UNL     1      -4.522  -1.120   0.008  0.00  0.00    +0.059 A 
ATOM     25  C   UNL     1      -3.996  -0.655   1.215  0.00  0.00    +0.015 A 
ATOM     26  C   UNL     1      -2.961   0.258   1.207  0.00  0.00    +0.006 A 
ATOM     27  C   UNL     1      -2.445   0.712   0.007  0.00  0.00    -0.030 A 
ATOM     28  C   UNL     1      -2.965   0.260  -1.193  0.00  0.00    +0.006 A 
ATOM     29  C   UNL     1      -3.995  -0.657  -1.200  0.00  0.00    +0.015 A 
BRANCH  27  30
ATOM     30  C   UNL     1      -1.315   1.709   0.006  0.00  0.00    +0.141 C 
BRANCH  30  31
ATOM     31  N   UNL     1      -0.035   0.996   0.007  0.00  0.00    -0.295 N 
ATOM     32  C   UNL     1       1.122   1.688   0.001  0.00  0.00    +0.297 C 
ATOM     33  O   UNL     1       1.103   2.903  -0.000  0.00  0.00    -0.253 OA
ATOM     34  N   UNL     1       2.300   1.032  -0.004  0.00  0.00    -0.313 N 
ATOM     35  H   UNL     1      -0.018  -0.104   0.013  0.00  0.00    +0.151 HD
ATOM     36  H   UNL     1       3.244   1.596  -0.009  0.00  0.00    +0.146 HD
ATOM     37  H   UNL     1       2.316  -0.068  -0.003  0.00  0.00    +0.146 HD
ENDBRANCH  30  31
ENDBRANCH  27  30
ENDBRANCH  22  24
ENDBRANCH  21  22
ENDBRANCH   1  21
TORSDOF 10
