REMARK  Name = ZINC04920447
REMARK  12 active torsions:
REMARK  status: ('A' for Active; 'I' for Inactive)
REMARK    1  A    between atoms: C_1  and  C_2
REMARK    2  A    between atoms: C_2  and  C_3
REMARK    3  A    between atoms: C_2  and  N_4
REMARK    4  A    between atoms: N_4  and  C_5
REMARK    5  A    between atoms: C_5  and  C_6
REMARK    6  A    between atoms: C_9  and  O_12
REMARK    7  A    between atoms: O_12  and  S_13
REMARK    8  A    between atoms: S_13  and  C_16
REMARK    9  A    between atoms: N_25  and  C_26
REMARK   10  A    between atoms: C_26  and  C_27
REMARK   11  A    between atoms: C_26  and  C_28
REMARK   12  A    between atoms: C_26  and  C_29
REMARK                            x       y       z     vdW  Elec       q    Type
REMARK                         _______ _______ _______ _____ _____    ______ ____
ROOT
ATOM      1  C   UNL     1       4.734  -2.457  -3.451  0.00  0.00    -0.030 A 
ATOM      2  C   UNL     1       4.439  -3.662  -2.840  0.00  0.00    +0.009 A 
ATOM      3  C   UNL     1       3.207  -3.852  -2.244  0.00  0.00    +0.049 A 
ATOM      4  C   UNL     1       2.266  -2.832  -2.257  0.00  0.00    +0.157 A 
ATOM      5  C   UNL     1       2.563  -1.626  -2.876  0.00  0.00    +0.049 A 
ATOM      6  C   UNL     1       3.798  -1.439  -3.466  0.00  0.00    +0.009 A 
ENDROOT
BRANCH   1   7
ATOM      7  C   UNL     1       6.078  -2.253  -4.101  0.00  0.00    +0.144 C 
BRANCH   7   8
ATOM      8  N   UNL     1       6.010  -2.667  -5.504  0.00  0.00    -0.279 N 
ATOM      9  C   UNL     1       5.667  -1.776  -6.454  0.00  0.00    +0.303 C 
ATOM     10  O   UNL     1       5.697  -2.095  -7.627  0.00  0.00    -0.253 OA
ATOM     11  N   UNL     1       5.290  -0.530  -6.105  0.00  0.00    -0.294 N 
ATOM     12  H   UNL     1       5.341  -0.250  -5.178  0.00  0.00    +0.151 HD
BRANCH  11  13
ATOM     13  C   UNL     1       4.804   0.402  -7.126  0.00  0.00    +0.028 C 
ATOM     14  C   UNL     1       3.563  -0.184  -7.801  0.00  0.00    +0.031 C 
ATOM     15  C   UNL     1       4.446   1.737  -6.469  0.00  0.00    +0.031 C 
ATOM     16  C   UNL     1       5.897   0.626  -8.173  0.00  0.00    +0.031 C 
ENDBRANCH  11  13
BRANCH   8  18
ATOM     17  C   UNL     1       5.117  -4.660  -6.606  0.00  0.00    +0.028 C 
ATOM     18  C   UNL     1       6.315  -4.052  -5.874  0.00  0.00    +0.072 C 
ATOM     19  C   UNL     1       7.540  -4.076  -6.792  0.00  0.00    +0.028 C 
ENDBRANCH   8  18
ENDBRANCH   7   8
ENDBRANCH   1   7
BRANCH   4  20
ATOM     20  O   UNL     1       1.054  -3.017  -1.671  0.00  0.00    -0.342 OA
BRANCH  20  21
ATOM     21  S   UNL     1       1.009  -2.616  -0.204  0.00  0.00    +0.151 S 
ATOM     22  O   UNL     1       2.247  -3.020   0.366  0.00  0.00    -0.131 OA
ATOM     23  O   UNL     1      -0.243  -3.061   0.300  0.00  0.00    -0.131 OA
BRANCH  21  24
ATOM     24  C   UNL     1       0.978  -0.855  -0.145  0.00  0.00    +0.128 A 
ATOM     25  C   UNL     1      -0.231  -0.185  -0.153  0.00  0.00    +0.033 A 
ATOM     26  C   UNL     1      -0.256   1.196  -0.107  0.00  0.00    +0.040 A 
ATOM     27  C   UNL     1       0.930   1.908  -0.053  0.00  0.00    +0.124 A 
ATOM     28  C   UNL     1       2.141   1.236  -0.045  0.00  0.00    +0.040 A 
ATOM     29  C   UNL     1       2.163  -0.145  -0.091  0.00  0.00    +0.033 A 
ATOM     30  F   UNL     1       0.907   3.258  -0.008  0.00  0.00    -0.205 F 
ENDBRANCH  21  24
ENDBRANCH  20  21
ENDBRANCH   4  20
TORSDOF 7
