REMARK  Name = ZINC37142132
REMARK  9 active torsions:
REMARK  status: ('A' for Active; 'I' for Inactive)
REMARK    1  A    between atoms: C_1  and  N_2
REMARK    2  A    between atoms: N_2  and  C_3
REMARK    3  A    between atoms: N_2  and  C_4
REMARK    4  A    between atoms: C_4  and  C_6
REMARK    5  A    between atoms: C_4  and  C_24
REMARK    6  A    between atoms: C_6  and  N_7
REMARK    7  A    between atoms: C_8  and  C_10
REMARK    8  A    between atoms: C_10  and  C_11
REMARK    9  A    between atoms: C_11  and  N_12
REMARK                            x       y       z     vdW  Elec       q    Type
REMARK                         _______ _______ _______ _____ _____    ______ ____
ROOT
ATOM      1  N   UNL     1      -0.914  -2.531   0.563  0.00  0.00    -0.316 N 
ATOM      2  C   UNL     1      -0.976  -3.877   0.530  0.00  0.00    +0.215 C 
ATOM      3  O   UNL     1      -1.633  -4.433  -0.325  0.00  0.00    -0.276 OA
ATOM      4  H   UNL     1      -0.389  -2.087   1.247  0.00  0.00    +0.149 HD
ENDROOT
BRANCH   1   5
ATOM      5  C   UNL     1      -1.640  -1.740  -0.433  0.00  0.00    +0.096 C 
BRANCH   5   6
ATOM      6  C   UNL     1      -1.509  -0.253  -0.097  0.00  0.00    +0.016 C 
BRANCH   6   7
ATOM      7  C   UNL     1      -0.070   0.169  -0.239  0.00  0.00    +0.093 A 
ATOM      8  C   UNL     1       0.460   0.819  -1.291  0.00  0.00    +0.043 A 
ATOM      9  C   UNL     1       1.831   1.013  -1.006  0.00  0.00    +0.041 A 
ATOM     10  C   UNL     1       2.058   0.470   0.204  0.00  0.00    +0.195 A 
ATOM     11  O   UNL     1       0.902  -0.035   0.666  0.00  0.00    -0.469 OA
ENDBRANCH   6   7
BRANCH   6  13
ATOM     12  C   UNL     1      -1.819   1.404   1.610  0.00  0.00    -0.096 C 
ATOM     13  N   UNL     1      -1.953  -0.022   1.284  0.00  0.00    +0.384 N 
ATOM     14  C   UNL     1      -3.359  -0.425   1.421  0.00  0.00    -0.096 C 
ATOM     15  H   UNL     1      -1.385  -0.566   1.916  0.00  0.00    -0.082 HD
ENDBRANCH   6  13
ENDBRANCH   5   6
ENDBRANCH   1   5
BRANCH   2  16
ATOM     16  C   UNL     1      -0.229  -4.691   1.555  0.00  0.00    +0.117 C 
BRANCH  16  17
ATOM     17  C   UNL     1      -0.466  -6.181   1.294  0.00  0.00    +0.135 C 
BRANCH  17  18
ATOM     18  N   UNL     1       0.260  -6.972   2.291  0.00  0.00    -0.298 N 
ATOM     19  C   UNL     1       1.540  -7.357   2.042  0.00  0.00    +0.202 A 
ATOM     20  N   UNL     1       2.248  -8.058   2.874  0.00  0.00    -0.237 NA
ATOM     21  C   UNL     1       1.750  -8.462   4.069  0.00  0.00    +0.078 A 
ATOM     22  C   UNL     1       2.511  -9.216   4.964  0.00  0.00    +0.029 A 
ATOM     23  C   UNL     1       1.966  -9.603   6.167  0.00  0.00    +0.017 A 
ATOM     24  C   UNL     1       0.663  -9.254   6.503  0.00  0.00    +0.019 A 
ATOM     25  C   UNL     1      -0.108  -8.510   5.636  0.00  0.00    +0.030 A 
ATOM     26  C   UNL     1       0.426  -8.107   4.414  0.00  0.00    +0.066 A 
ATOM     27  C   UNL     1      -0.347  -7.309   3.452  0.00  0.00    +0.262 A 
ATOM     28  O   UNL     1      -1.491  -6.967   3.689  0.00  0.00    -0.267 OA
ATOM     29 BR   UNL     1      -0.056  -9.803   8.163  0.00  0.00    -0.050 Br
ENDBRANCH  17  18
ENDBRANCH  16  17
ENDBRANCH   2  16
TORSDOF 7
