REMARK  Name = ZINC67130430
REMARK  8 active torsions:
REMARK  status: ('A' for Active; 'I' for Inactive)
REMARK    1  A    between atoms: C_1  and  C_2
REMARK    2  A    between atoms: C_7  and  C_8
REMARK    3  A    between atoms: N_10  and  N_11
REMARK    4  A    between atoms: C_12  and  C_14
REMARK    5  A    between atoms: C_14  and  C_15
REMARK    6  A    between atoms: C_15  and  C_16
REMARK    7  A    between atoms: C_16  and  C_17
REMARK    8  A    between atoms: C_17  and  C_18
REMARK                            x       y       z     vdW  Elec       q    Type
REMARK                         _______ _______ _______ _____ _____    ______ ____
ROOT
ATOM      1  N   UNL     1       0.572   0.035   4.839  0.00  0.00    -0.234 N 
ATOM      2  C   UNL     1       0.795  -0.642   5.982  0.00  0.00    +0.229 C 
ATOM      3  O   UNL     1       0.902  -1.850   5.961  0.00  0.00    -0.274 OA
ATOM      4  H   UNL     1       0.486   1.001   4.856  0.00  0.00    +0.173 HD
ENDROOT
BRANCH   1   7
ATOM      5  C   UNL     1       0.242   0.021   2.481  0.00  0.00    +0.260 C 
ATOM      6  O   UNL     1       0.134   1.232   2.503  0.00  0.00    -0.269 OA
ATOM      7  N   UNL     1       0.465  -0.656   3.625  0.00  0.00    -0.230 N 
ATOM      8  H   UNL     1       0.550  -1.622   3.607  0.00  0.00    +0.173 HD
BRANCH   5  15
ATOM      9  C   UNL     1      -0.512   1.452   0.082  0.00  0.00    +0.044 C 
ATOM     10  C   UNL     1      -0.235  -0.028   0.036  0.00  0.00    -0.038 A 
ATOM     11  C   UNL     1      -0.334  -0.714  -1.157  0.00  0.00    +0.004 A 
ATOM     12  C   UNL     1      -0.080  -2.073  -1.200  0.00  0.00    +0.000 A 
ATOM     13  C   UNL     1       0.275  -2.754  -0.049  0.00  0.00    +0.001 A 
ATOM     14  C   UNL     1       0.378  -2.080   1.150  0.00  0.00    +0.013 A 
ATOM     15  C   UNL     1       0.128  -0.708   1.200  0.00  0.00    +0.041 A 
ENDBRANCH   5  15
ENDBRANCH   1   7
BRANCH   2  16
ATOM     16  C   UNL     1       0.910   0.101   7.288  0.00  0.00    +0.097 C 
BRANCH  16  17
ATOM     17  C   UNL     1       1.161  -0.895   8.422  0.00  0.00    +0.009 C 
BRANCH  17  18
ATOM     18  C   UNL     1       1.278  -0.140   9.747  0.00  0.00    +0.002 C 
BRANCH  18  19
ATOM     19  C   UNL     1       1.529  -1.137  10.881  0.00  0.00    +0.016 C 
BRANCH  19  20
ATOM     20  C   UNL     1       1.647  -0.382  12.207  0.00  0.00    +0.069 C 
ATOM     21  C   UNL     1       1.857  -1.359  13.384  0.00  0.00    +0.108 C 
ATOM     22  C   UNL     1       2.851  -0.852  14.433  0.00  0.00    +0.105 C 
ATOM     23  C   UNL     1       3.438   0.539  14.111  0.00  0.00    +0.093 C 
ATOM     24  S   UNL     1       3.203   0.608  12.270  0.00  0.00    -0.154 S 
ATOM     25  N   UNL     1       2.052  -0.754  15.665  0.00  0.00    -0.294 N 
ATOM     26  C   UNL     1       0.795  -1.136  15.401  0.00  0.00    +0.300 C 
ATOM     27  O   UNL     1      -0.084  -1.152  16.241  0.00  0.00    -0.253 OA
ATOM     28  N   UNL     1       0.597  -1.489  14.132  0.00  0.00    -0.294 N 
ATOM     29  H   UNL     1       2.382  -0.460  16.528  0.00  0.00    +0.151 HD
ATOM     30  H   UNL     1      -0.249  -1.788  13.763  0.00  0.00    +0.151 HD
ENDBRANCH  19  20
ENDBRANCH  18  19
ENDBRANCH  17  18
ENDBRANCH  16  17
ENDBRANCH   2  16
TORSDOF 7
