REMARK  Name = ZINC09086295
REMARK  9 active torsions:
REMARK  status: ('A' for Active; 'I' for Inactive)
REMARK    1  A    between atoms: C_1  and  O_2
REMARK    2  A    between atoms: O_2  and  C_3
REMARK    3  A    between atoms: C_3  and  C_4
REMARK    4  A    between atoms: C_11  and  N_32
REMARK    5  A    between atoms: C_12  and  C_30
REMARK    6  A    between atoms: C_13  and  C_15
REMARK    7  A    between atoms: C_20  and  O_21
REMARK    8  A    between atoms: O_21  and  C_22
REMARK    9  A    between atoms: C_22  and  C_23
REMARK                            x       y       z     vdW  Elec       q    Type
REMARK                         _______ _______ _______ _____ _____    ______ ____
ROOT
ATOM      1  C   UNL     1      -1.156  -2.103   0.002  0.00  0.00    +0.069 A 
ATOM      2  C   UNL     1      -2.161  -2.992   0.001  0.00  0.00    +0.051 A 
ATOM      3  C   UNL     1      -1.601  -4.288  -0.011  0.00  0.00    +0.245 A 
ATOM      4  N   UNL     1      -0.305  -4.167  -0.016  0.00  0.00    -0.135 NA
ATOM      5  N   UNL     1       0.005  -2.798  -0.013  0.00  0.00    -0.276 N 
ATOM      6  H   UNL     1       0.897  -2.416  -0.019  0.00  0.00    +0.189 HD
ATOM      7  O   UNL     1      -2.373  -5.408  -0.018  0.00  0.00    -0.421 OA
ATOM      8  C   UNL     1      -3.685  -5.255  -0.286  0.00  0.00    +0.201 C 
ATOM      9  C   UNL     1      -4.332  -4.071  -0.291  0.00  0.00    +0.098 C 
ATOM     10  C   UNL     1      -3.650  -2.760   0.012  0.00  0.00    +0.105 C 
ENDROOT
BRANCH  10  11
ATOM     11  C   UNL     1      -4.079  -2.265   1.369  0.00  0.00    +0.007 A 
ATOM     12  C   UNL     1      -3.853  -3.041   2.490  0.00  0.00    +0.008 A 
ATOM     13  C   UNL     1      -4.246  -2.588   3.736  0.00  0.00    +0.001 A 
ATOM     14  C   UNL     1      -4.865  -1.358   3.863  0.00  0.00    +0.004 A 
ATOM     15  C   UNL     1      -5.092  -0.579   2.746  0.00  0.00    +0.046 A 
ATOM     16  C   UNL     1      -4.694  -1.029   1.495  0.00  0.00    +0.125 A 
BRANCH  16  17
ATOM     17  O   UNL     1      -4.911  -0.262   0.395  0.00  0.00    -0.487 OA
BRANCH  17  18
ATOM     18  C   UNL     1      -5.550   1.000   0.599  0.00  0.00    +0.266 C 
BRANCH  18  19
ATOM     19  C   UNL     1      -5.706   1.705  -0.724  0.00  0.00    +0.008 A 
ATOM     20  C   UNL     1      -5.259   1.103  -1.885  0.00  0.00    +0.008 A 
ATOM     21  C   UNL     1      -5.402   1.749  -3.098  0.00  0.00    +0.000 A 
ATOM     22  C   UNL     1      -5.992   2.998  -3.151  0.00  0.00    +0.001 A 
ATOM     23  C   UNL     1      -6.439   3.601  -1.992  0.00  0.00    +0.020 A 
ATOM     24  C   UNL     1      -6.302   2.952  -0.777  0.00  0.00    +0.047 A 
ATOM     25 CL   UNL     1      -6.869   3.707   0.680  0.00  0.00    -0.083 Cl
ENDBRANCH  18  19
ENDBRANCH  17  18
ENDBRANCH  16  17
ENDBRANCH  10  11
BRANCH   8  26
ATOM     26  N   UNL     1      -4.414  -6.382  -0.573  0.00  0.00    -0.328 N 
ATOM     27  H   UNL     1      -3.982  -7.250  -0.579  0.00  0.00    +0.145 HD
ATOM     28  H   UNL     1      -5.361  -6.310  -0.771  0.00  0.00    +0.145 HD
ENDBRANCH   8  26
BRANCH   9  29
ATOM     29  C   UNL     1      -5.731  -4.058  -0.598  0.00  0.00    +0.101 C 
ATOM     30  N   UNL     1      -6.840  -4.048  -0.842  0.00  0.00    -0.191 NA
ENDBRANCH   9  29
BRANCH   1  31
ATOM     31  C   UNL     1      -1.295  -0.603   0.011  0.00  0.00    +0.214 C 
BRANCH  31  33
ATOM     32  C   UNL     1      -0.017   1.425   0.010  0.00  0.00    +0.194 C 
ATOM     33  O   UNL     1       0.002  -0.004   0.002  0.00  0.00    -0.377 OA
ENDBRANCH  31  33
ENDBRANCH   1  31
TORSDOF 8
