REMARK  Name = ZINC44963586
REMARK  8 active torsions:
REMARK  status: ('A' for Active; 'I' for Inactive)
REMARK    1  A    between atoms: C_5  and  C_7
REMARK    2  A    between atoms: C_13  and  C_22
REMARK    3  A    between atoms: C_22  and  O_23
REMARK    4  A    between atoms: O_23  and  C_24
REMARK    5  A    between atoms: C_26  and  O_40
REMARK    6  A    between atoms: C_28  and  O_39
REMARK    7  A    between atoms: C_30  and  O_38
REMARK    8  A    between atoms: C_32  and  C_35
REMARK                            x       y       z     vdW  Elec       q    Type
REMARK                         _______ _______ _______ _____ _____    ______ ____
ROOT
ATOM      1  C   UNL     1       1.634  -1.954  -0.599  0.00  0.00    +0.078 C 
ATOM      2  N   UNL     1       2.706  -2.657  -0.461  0.00  0.00    -0.276 NA
ATOM      3  C   UNL     1       2.658  -4.083  -0.117  0.00  0.00    +0.197 C 
ATOM      4  C   UNL     1       1.908  -4.793  -1.214  0.00  0.00    +0.065 A 
ATOM      5  C   UNL     1       2.357  -5.785  -2.000  0.00  0.00    +0.136 A 
ATOM      6  N   UNL     1       1.375  -6.109  -2.858  0.00  0.00    -0.238 NA
ATOM      7  C   UNL     1       0.334  -5.353  -2.630  0.00  0.00    +0.140 A 
ATOM      8  N   UNL     1       0.623  -4.530  -1.591  0.00  0.00    -0.296 N 
ATOM      9  C   UNL     1      -0.228  -3.606  -0.980  0.00  0.00    +0.057 A 
ATOM     10  C   UNL     1       0.240  -2.393  -0.464  0.00  0.00    +0.026 A 
ATOM     11  C   UNL     1      -0.656  -1.543   0.202  0.00  0.00    +0.032 A 
ATOM     12  C   UNL     1      -1.985  -1.882   0.320  0.00  0.00    +0.042 A 
ATOM     13  C   UNL     1      -2.452  -3.069  -0.222  0.00  0.00    +0.022 A 
ATOM     14  C   UNL     1      -1.577  -3.927  -0.875  0.00  0.00    +0.028 A 
ATOM     15 CL   UNL     1      -3.079  -0.821   1.152  0.00  0.00    -0.084 Cl
ENDROOT
BRANCH   1  20
ATOM     16  C   UNL     1       2.656   1.652  -0.339  0.00  0.00    +0.001 A 
ATOM     17  C   UNL     1       2.209   2.149  -1.551  0.00  0.00    +0.003 A 
ATOM     18  C   UNL     1       1.577   1.317  -2.455  0.00  0.00    +0.039 A 
ATOM     19  C   UNL     1       1.386  -0.019  -2.153  0.00  0.00    +0.133 A 
ATOM     20  C   UNL     1       1.835  -0.526  -0.931  0.00  0.00    +0.036 A 
ATOM     21  C   UNL     1       2.473   0.322  -0.024  0.00  0.00    +0.013 A 
ATOM     22  F   UNL     1       0.767  -0.832  -3.037  0.00  0.00    -0.205 F 
ENDBRANCH   1  20
BRANCH   7  23
ATOM     23  C   UNL     1      -0.966  -5.389  -3.392  0.00  0.00    +0.237 C 
BRANCH  23  24
ATOM     24  O   UNL     1      -1.801  -6.420  -2.861  0.00  0.00    -0.341 OA
BRANCH  24  25
ATOM     25  C   UNL     1      -1.546  -7.715  -3.410  0.00  0.00    +0.283 C 
ATOM     26  C   UNL     1      -2.291  -8.773  -2.591  0.00  0.00    +0.201 C 
ATOM     27  C   UNL     1      -3.797  -8.515  -2.689  0.00  0.00    +0.179 C 
ATOM     28  C   UNL     1      -4.211  -8.524  -4.163  0.00  0.00    +0.185 C 
ATOM     29  C   UNL     1      -3.392  -7.476  -4.921  0.00  0.00    +0.265 C 
ATOM     30  O   UNL     1      -2.000  -7.756  -4.764  0.00  0.00    -0.331 OA
BRANCH  29  31
ATOM     31  C   UNL     1      -3.751  -7.519  -6.384  0.00  0.00    +0.387 C 
ATOM     32  O   UNL     1      -4.875  -7.214  -6.745  0.00  0.00    -0.243 OA
ATOM     33  O   UNL     1      -2.918  -7.860  -7.207  0.00  0.00    -0.243 OA
ENDBRANCH  29  31
BRANCH  28  34
ATOM     34  O   UNL     1      -3.967  -9.817  -4.720  0.00  0.00    -0.386 OA
ATOM     35  H   UNL     1      -4.206  -9.895  -5.654  0.00  0.00    +0.210 HD
ENDBRANCH  28  34
BRANCH  27  36
ATOM     36  O   UNL     1      -4.103  -7.244  -2.112  0.00  0.00    -0.386 OA
ATOM     37  H   UNL     1      -5.043  -7.015  -2.140  0.00  0.00    +0.210 HD
ENDBRANCH  27  36
BRANCH  26  38
ATOM     38  O   UNL     1      -1.993 -10.072  -3.105  0.00  0.00    -0.384 OA
ATOM     39  H   UNL     1      -1.053 -10.300  -3.078  0.00  0.00    +0.210 HD
ENDBRANCH  26  38
ENDBRANCH  24  25
ENDBRANCH  23  24
ENDBRANCH   7  23
TORSDOF 8
