REMARK  Name = ZINC37001951
REMARK  6 active torsions:
REMARK  status: ('A' for Active; 'I' for Inactive)
REMARK    1  A    between atoms: C_1  and  C_2
REMARK    2  A    between atoms: C_2  and  C_3
REMARK    3  A    between atoms: C_3  and  C_5
REMARK    4  A    between atoms: C_3  and  N_19
REMARK    5  A    between atoms: N_7  and  C_8
REMARK    6  A    between atoms: C_10  and  C_16
REMARK                            x       y       z     vdW  Elec       q    Type
REMARK                         _______ _______ _______ _____ _____    ______ ____
ROOT
ATOM      1  C   UNL     1       0.872  -2.010   1.174  0.00  0.00    +0.203 C 
ATOM      2  O   UNL     1       0.106  -2.714   1.798  0.00  0.00    -0.277 OA
ATOM      3  N   UNL     1       1.831  -2.571   0.411  0.00  0.00    -0.285 N 
ATOM      4  H   UNL     1       2.392  -2.012  -0.150  0.00  0.00    +0.155 HD
ENDROOT
BRANCH   3   5
ATOM      5  C   UNL     1       2.018  -3.960   0.427  0.00  0.00    +0.070 A 
ATOM      6  C   UNL     1       1.629  -4.696   1.531  0.00  0.00    +0.044 A 
ATOM      7  C   UNL     1       1.817  -6.082   1.544  0.00  0.00    +0.100 A 
ATOM      8  C   UNL     1       2.397  -6.715   0.438  0.00  0.00    +0.140 A 
ATOM      9  C   UNL     1       2.781  -5.969  -0.660  0.00  0.00    +0.079 A 
ATOM     10  C   UNL     1       2.589  -4.598  -0.672  0.00  0.00    +0.147 A 
ATOM     11  F   UNL     1       2.963  -3.876  -1.750  0.00  0.00    -0.203 F 
ATOM     12  F   UNL     1       2.581  -8.053   0.444  0.00  0.00    -0.205 F 
BRANCH   7  13
ATOM     13  C   UNL     1       1.406  -6.872   2.716  0.00  0.00    +0.389 C 
ATOM     14  O   UNL     1       0.900  -6.316   3.682  0.00  0.00    -0.240 OA
ATOM     15  O   UNL     1       1.571  -8.084   2.725  0.00  0.00    -0.240 OA
ENDBRANCH   7  13
ENDBRANCH   3   5
BRANCH   1  16
ATOM     16  C   UNL     1       0.752  -0.510   1.253  0.00  0.00    +0.013 C 
BRANCH  16  17
ATOM     17  N   UNL     1       0.000  -0.142   2.460  0.00  0.00    +0.386 N 
ATOM     18  H   UNL     1      -0.080   0.862   2.513  0.00  0.00    -0.089 HD
ATOM     19  H   UNL     1      -0.921  -0.552   2.421  0.00  0.00    -0.089 HD
ATOM     20  H   UNL     1       0.486  -0.484   3.276  0.00  0.00    -0.089 HD
ENDBRANCH  16  17
BRANCH  16  22
ATOM     21  C   UNL     1       0.003   1.538   0.034  0.00  0.00    +0.002 C 
ATOM     22  C   UNL     1       0.016   0.008   0.016  0.00  0.00    -0.011 C 
ENDBRANCH  16  22
ENDBRANCH   1  16
TORSDOF 5
