REMARK  Name = ZINC62630253
REMARK  7 active torsions:
REMARK  status: ('A' for Active; 'I' for Inactive)
REMARK    1  A    between atoms: C_1  and  C_2
REMARK    2  A    between atoms: C_2  and  C_3
REMARK    3  A    between atoms: C_2  and  N_12
REMARK    4  A    between atoms: N_5  and  C_6
REMARK    5  A    between atoms: C_6  and  C_7
REMARK    6  A    between atoms: C_13  and  C_15
REMARK    7  A    between atoms: N_17  and  C_18
REMARK                            x       y       z     vdW  Elec       q    Type
REMARK                         _______ _______ _______ _____ _____    ______ ____
ROOT
ATOM      1  N   UNL     1       0.684  -0.499  -1.198  0.00  0.00    -0.297 N 
ATOM      2  C   UNL     1       0.003  -0.625  -2.354  0.00  0.00    +0.300 C 
ATOM      3  O   UNL     1      -1.179  -0.355  -2.395  0.00  0.00    -0.265 OA
ATOM      4  H   UNL     1       1.629  -0.714  -1.166  0.00  0.00    +0.150 HD
ENDROOT
BRANCH   2   5
ATOM      5  C   UNL     1       0.704  -1.095  -3.586  0.00  0.00    +0.303 C 
ATOM      6  O   UNL     1       1.887  -1.365  -3.546  0.00  0.00    -0.265 OA
ATOM      7  N   UNL     1       0.024  -1.221  -4.742  0.00  0.00    -0.276 N 
ATOM      8  H   UNL     1      -0.934  -1.069  -4.761  0.00  0.00    +0.155 HD
BRANCH   7   9
ATOM      9  C   UNL     1       0.698  -1.571  -5.916  0.00  0.00    +0.052 A 
ATOM     10  C   UNL     1       1.778  -2.444  -5.865  0.00  0.00    +0.026 A 
ATOM     11  C   UNL     1       2.442  -2.788  -7.025  0.00  0.00    +0.022 A 
ATOM     12  C   UNL     1       2.033  -2.264  -8.240  0.00  0.00    +0.042 A 
ATOM     13  C   UNL     1       0.958  -1.395  -8.295  0.00  0.00    +0.041 A 
ATOM     14  C   UNL     1       0.286  -1.051  -7.138  0.00  0.00    +0.064 A 
ATOM     15 CL   UNL     1      -1.067   0.034  -7.208  0.00  0.00    -0.082 Cl
ATOM     16 CL   UNL     1       2.872  -2.699  -9.697  0.00  0.00    -0.083 Cl
ENDBRANCH   7   9
ENDBRANCH   2   5
BRANCH   1  18
ATOM     17  C   UNL     1      -0.030   1.493   0.029  0.00  0.00    +0.038 C 
ATOM     18  C   UNL     1      -0.004  -0.037   0.010  0.00  0.00    +0.156 C 
BRANCH  18  19
ATOM     19  C   UNL     1       0.726  -0.542   1.228  0.00  0.00    +0.233 C 
ATOM     20  O   UNL     1       1.723  -1.221   1.099  0.00  0.00    -0.274 OA
ATOM     21  N   UNL     1       0.271  -0.239   2.460  0.00  0.00    -0.307 N 
ATOM     22  H   UNL     1      -0.526   0.304   2.563  0.00  0.00    +0.149 HD
BRANCH  21  23
ATOM     23  C   UNL     1       0.981  -0.731   3.644  0.00  0.00    +0.178 C 
BRANCH  23  24
ATOM     24  C   UNL     1       0.274  -0.255   4.887  0.00  0.00    +0.122 A 
ATOM     25  C   UNL     1      -0.707  -0.911   5.533  0.00  0.00    +0.046 A 
ATOM     26  C   UNL     1      -1.077  -0.109   6.637  0.00  0.00    +0.041 A 
ATOM     27  C   UNL     1      -0.301   0.989   6.599  0.00  0.00    +0.195 A 
ATOM     28  O   UNL     1       0.519   0.892   5.540  0.00  0.00    -0.466 OA
ENDBRANCH  23  24
ENDBRANCH  21  23
ENDBRANCH  18  19
ENDBRANCH   1  18
TORSDOF 6
