REMARK  Name = ZINC13474030
REMARK  10 active torsions:
REMARK  status: ('A' for Active; 'I' for Inactive)
REMARK    1  A    between atoms: C_1  and  C_2
REMARK    2  A    between atoms: C_4  and  O_22
REMARK    3  A    between atoms: C_6  and  O_9
REMARK    4  A    between atoms: O_9  and  C_10
REMARK    5  A    between atoms: C_14  and  C_17
REMARK    6  A    between atoms: C_15  and  O_16
REMARK    7  A    between atoms: N_19  and  C_20
REMARK    8  A    between atoms: N_19  and  C_21
REMARK    9  A    between atoms: O_22  and  C_23
REMARK   10  A    between atoms: C_27  and  C_29
REMARK                            x       y       z     vdW  Elec       q    Type
REMARK                         _______ _______ _______ _____ _____    ______ ____
ROOT
ATOM      1  C   UNL     1       5.299  -7.822   2.565  0.00  0.00    +0.050 C 
ATOM      2  C   UNL     1       4.219  -6.777   2.443  0.00  0.00    +0.030 A 
ATOM      3  C   UNL     1       2.991  -7.090   1.877  0.00  0.00    +0.191 A 
ATOM      4  C   UNL     1       2.019  -6.103   1.780  0.00  0.00    +0.260 A 
ATOM      5  N   UNL     1       2.251  -4.878   2.225  0.00  0.00    -0.172 NA
ATOM      6  C   UNL     1       3.412  -4.546   2.765  0.00  0.00    +0.260 A 
ATOM      7  C   UNL     1       4.430  -5.483   2.894  0.00  0.00    +0.191 A 
ATOM      8  F   UNL     1       5.611  -5.137   3.451  0.00  0.00    -0.200 F 
ATOM      9  F   UNL     1       2.745  -8.339   1.425  0.00  0.00    -0.200 F 
ENDROOT
BRANCH   6  10
ATOM     10  O   UNL     1       3.609  -3.276   3.204  0.00  0.00    -0.432 OA
BRANCH  10  11
ATOM     11  C   UNL     1       2.550  -2.424   3.190  0.00  0.00    +0.172 A 
ATOM     12  C   UNL     1       1.274  -2.901   3.441  0.00  0.00    +0.050 A 
ATOM     13  C   UNL     1       0.190  -2.039   3.428  0.00  0.00    +0.005 A 
ATOM     14  C   UNL     1       0.369  -0.699   3.165  0.00  0.00    +0.017 A 
ATOM     15  C   UNL     1       1.651  -0.202   2.909  0.00  0.00    +0.082 A 
ATOM     16  C   UNL     1       2.747  -1.073   2.922  0.00  0.00    +0.171 A 
BRANCH  15  17
ATOM     17  C   UNL     1       1.847   1.233   2.626  0.00  0.00    +0.250 C 
ATOM     18  O   UNL     1       2.559   1.903   3.349  0.00  0.00    -0.270 OA
ATOM     19  N   UNL     1       1.237   1.800   1.567  0.00  0.00    -0.304 N 
ATOM     20  C   UNL     1       1.431   3.225   1.287  0.00  0.00    +0.132 C 
ATOM     21  C   UNL     1       0.380   0.993   0.695  0.00  0.00    +0.132 C 
ENDBRANCH  15  17
BRANCH  16  22
ATOM     22  O   UNL     1       3.996  -0.601   2.676  0.00  0.00    -0.503 OA
ATOM     23  H   UNL     1       4.246  -0.619   1.742  0.00  0.00    +0.292 HD
ENDBRANCH  16  22
ENDBRANCH  10  11
ENDBRANCH   6  10
BRANCH   4  24
ATOM     24  O   UNL     1       0.814  -6.399   1.227  0.00  0.00    -0.436 OA
BRANCH  24  25
ATOM     25  C   UNL     1      -0.069  -5.383   1.042  0.00  0.00    +0.131 A 
ATOM     26  C   UNL     1       0.393  -4.098   0.790  0.00  0.00    +0.046 A 
ATOM     27  C   UNL     1      -0.502  -3.062   0.601  0.00  0.00    +0.004 A 
ATOM     28  C   UNL     1      -1.861  -3.298   0.660  0.00  0.00    +0.011 A 
ATOM     29  C   UNL     1      -2.334  -4.586   0.911  0.00  0.00    +0.016 A 
ATOM     30  C   UNL     1      -1.431  -5.631   1.097  0.00  0.00    +0.057 A 
BRANCH  29  31
ATOM     31  C   UNL     1      -3.791  -4.843   0.975  0.00  0.00    +0.094 C 
ATOM     32  N   UNL     1      -4.681  -3.808   0.786  0.00  0.00    -0.345 N 
ATOM     33  H   UNL     1      -5.166  -6.314   1.271  0.00  0.00    +0.157 HD
ATOM     34  H   UNL     1      -4.354  -2.912   0.611  0.00  0.00    +0.144 HD
ATOM     35  H   UNL     1      -5.636  -3.976   0.828  0.00  0.00    +0.144 HD
ATOM     36  N   UNL     1      -4.173  -6.087   1.217  0.00  0.00    -0.387 N 
ATOM     37  H   UNL     1      -3.470  -6.823   1.352  0.00  0.00    +0.157 HD
ENDBRANCH  29  31
ENDBRANCH  24  25
ENDBRANCH   4  24
TORSDOF 7
