REMARK  Name = ZINC44544936
REMARK  9 active torsions:
REMARK  status: ('A' for Active; 'I' for Inactive)
REMARK    1  A    between atoms: C_1  and  N_2
REMARK    2  A    between atoms: C_10  and  C_11
REMARK    3  A    between atoms: C_11  and  C_13
REMARK    4  A    between atoms: C_11  and  N_32
REMARK    5  A    between atoms: C_13  and  C_14
REMARK    6  A    between atoms: N_16  and  C_17
REMARK    7  A    between atoms: C_17  and  C_19
REMARK    8  A    between atoms: C_17  and  C_23
REMARK    9  A    between atoms: C_19  and  C_20
REMARK                            x       y       z     vdW  Elec       q    Type
REMARK                         _______ _______ _______ _____ _____    ______ ____
ROOT
ATOM      1  C   UNL     1       1.600   0.474   4.316  0.00  0.00    +0.212 C 
ATOM      2  O   UNL     1       0.530   0.705   4.838  0.00  0.00    -0.276 OA
ATOM      3  N   UNL     1       2.742   0.672   5.003  0.00  0.00    -0.308 N 
ATOM      4  H   UNL     1       3.594   0.422   4.612  0.00  0.00    +0.149 HD
ENDROOT
BRANCH   1   5
ATOM      5  C   UNL     1       1.653  -0.032   2.897  0.00  0.00    +0.085 C 
BRANCH   5   6
ATOM      6  C   UNL     1       0.230  -0.168   2.351  0.00  0.00    -0.018 C 
BRANCH   6  16
ATOM      7  C   UNL     1       0.095   1.773  -0.030  0.00  0.00    +0.149 C 
ATOM      8  N   UNL     1       0.225   0.319  -0.154  0.00  0.00    -0.348 N 
ATOM      9  C   UNL     1       0.310  -0.369  -1.343  0.00  0.00    +0.049 A 
ATOM     10  C   UNL     1       0.304   0.021  -2.679  0.00  0.00    +0.026 A 
ATOM     11  C   UNL     1       0.408  -0.929  -3.670  0.00  0.00    +0.002 A 
ATOM     12  C   UNL     1       0.519  -2.276  -3.351  0.00  0.00    +0.001 A 
ATOM     13  C   UNL     1       0.526  -2.682  -2.046  0.00  0.00    +0.010 A 
ATOM     14  C   UNL     1       0.423  -1.735  -1.025  0.00  0.00    +0.000 A 
ATOM     15  C   UNL     1       0.400  -1.813   0.437  0.00  0.00    +0.029 A 
ATOM     16  C   UNL     1       0.286  -0.556   0.896  0.00  0.00    +0.006 A 
ENDBRANCH   6  16
BRANCH   6  17
ATOM     17  N   UNL     1      -0.488  -1.203   3.107  0.00  0.00    +0.384 N 
ATOM     18  H   UNL     1      -0.006  -2.084   3.012  0.00  0.00    -0.089 HD
ATOM     19  H   UNL     1      -0.525  -0.943   4.081  0.00  0.00    -0.089 HD
ATOM     20  H   UNL     1      -1.426  -1.292   2.746  0.00  0.00    -0.089 HD
ENDBRANCH   6  17
ENDBRANCH   5   6
ENDBRANCH   1   5
BRANCH   3  21
ATOM     21  C   UNL     1       2.697   1.265   6.343  0.00  0.00    +0.115 C 
BRANCH  21  22
ATOM     22  C   UNL     1       2.594   2.764   6.225  0.00  0.00    -0.012 A 
ATOM     23  C   UNL     1       2.945   3.380   5.088  0.00  0.00    +0.051 A 
ATOM     24  S   UNL     1       2.650   5.102   5.438  0.00  0.00    -0.096 S 
ATOM     25  C   UNL     1       2.061   4.947   7.105  0.00  0.00    +0.020 A 
ATOM     26  C   UNL     1       2.105   3.556   7.344  0.00  0.00    -0.006 A 
ATOM     27  C   UNL     1       1.679   3.119   8.620  0.00  0.00    +0.009 A 
ATOM     28  C   UNL     1       1.249   4.011   9.553  0.00  0.00    +0.001 A 
ATOM     29  C   UNL     1       1.212   5.373   9.291  0.00  0.00    +0.001 A 
ATOM     30  C   UNL     1       1.628   5.841   8.060  0.00  0.00    +0.015 A 
ENDBRANCH  21  22
BRANCH  21  31
ATOM     31  C   UNL     1       3.973   0.900   7.105  0.00  0.00    +0.152 C 
BRANCH  31  32
ATOM     32  C   UNL     1       4.008  -0.588   7.342  0.00  0.00    +0.358 C 
ATOM     33  O   UNL     1       3.052  -1.278   7.031  0.00  0.00    -0.246 OA
ATOM     34  O   UNL     1       4.992  -1.102   7.846  0.00  0.00    -0.246 OA
ENDBRANCH  31  32
ENDBRANCH  21  31
ENDBRANCH   3  21
TORSDOF 8
