REMARK  Name = ZINC27728665
REMARK  12 active torsions:
REMARK  status: ('A' for Active; 'I' for Inactive)
REMARK    1  A    between atoms: C_1  and  C_2
REMARK    2  A    between atoms: C_2  and  C_4
REMARK    3  A    between atoms: C_2  and  S_17
REMARK    4  A    between atoms: C_4  and  C_6
REMARK    5  A    between atoms: C_7  and  N_16
REMARK    6  A    between atoms: N_8  and  C_15
REMARK    7  A    between atoms: N_11  and  C_14
REMARK    8  A    between atoms: S_17  and  C_18
REMARK    9  A    between atoms: N_22  and  C_23
REMARK   10  A    between atoms: C_26  and  C_29
REMARK   11  A    between atoms: C_29  and  C_30
REMARK   12  A    between atoms: C_29  and  C_31
REMARK                            x       y       z     vdW  Elec       q    Type
REMARK                         _______ _______ _______ _____ _____    ______ ____
ROOT
ATOM      1  C   UNL     1      -0.249   1.723  -0.084  0.00  0.00    +0.028 C 
ATOM      2  C   UNL     1       0.041   0.221  -0.060  0.00  0.00    +0.122 C 
ENDROOT
BRANCH   2   3
ATOM      3  C   UNL     1       0.757  -0.172  -1.327  0.00  0.00    +0.185 C 
ATOM      4  O   UNL     1       1.970  -0.233  -1.345  0.00  0.00    -0.291 OA
BRANCH   3   5
ATOM      5  C   UNL     1       0.018  -0.471  -2.491  0.00  0.00    +0.121 A 
ATOM      6  C   UNL     1       0.649  -0.979  -3.640  0.00  0.00    +0.116 A 
ATOM      7  N   UNL     1      -0.108  -1.253  -4.743  0.00  0.00    -0.284 N 
ATOM      8  C   UNL     1      -1.435  -1.047  -4.748  0.00  0.00    +0.333 A 
ATOM      9  O   UNL     1      -2.064  -1.307  -5.754  0.00  0.00    -0.246 OA
ATOM     10  N   UNL     1      -2.092  -0.564  -3.680  0.00  0.00    -0.263 N 
ATOM     11  C   UNL     1      -1.435  -0.267  -2.540  0.00  0.00    +0.269 A 
ATOM     12  O   UNL     1      -2.034   0.165  -1.573  0.00  0.00    -0.267 OA
ATOM     13  C   UNL     1      -3.541  -0.363  -3.754  0.00  0.00    +0.157 C 
ATOM     14  C   UNL     1       0.540  -1.782  -5.946  0.00  0.00    +0.155 C 
BRANCH   6  15
ATOM     15  N   UNL     1       1.993  -1.193  -3.654  0.00  0.00    -0.344 N 
ATOM     16  H   UNL     1       2.495  -1.175  -2.824  0.00  0.00    +0.144 HD
ATOM     17  H   UNL     1       2.448  -1.363  -4.493  0.00  0.00    +0.144 HD
ENDBRANCH   6  15
ENDBRANCH   3   5
ENDBRANCH   2   3
BRANCH   2  18
ATOM     18  S   UNL     1       1.085  -0.171   1.371  0.00  0.00    -0.076 S 
BRANCH  18  19
ATOM     19  C   UNL     1       0.064   0.204   2.757  0.00  0.00    +0.174 A 
ATOM     20  N   UNL     1      -1.168   0.654   2.705  0.00  0.00    -0.230 NA
ATOM     21  C   UNL     1      -1.633   0.824   3.955  0.00  0.00    +0.131 A 
ATOM     22  C   UNL     1      -0.667   0.470   4.819  0.00  0.00    +0.113 A 
ATOM     23  N   UNL     1       0.417   0.069   4.068  0.00  0.00    -0.295 N 
BRANCH  23  24
ATOM     24  C   UNL     1       1.649  -0.389   4.558  0.00  0.00    +0.048 A 
ATOM     25  C   UNL     1       2.196  -1.567   4.070  0.00  0.00    +0.026 A 
ATOM     26  C   UNL     1       3.410  -2.016   4.554  0.00  0.00    +0.006 A 
ATOM     27  C   UNL     1       4.078  -1.292   5.525  0.00  0.00    -0.045 A 
ATOM     28  C   UNL     1       3.535  -0.118   6.012  0.00  0.00    +0.006 A 
ATOM     29  C   UNL     1       2.325   0.339   5.527  0.00  0.00    +0.026 A 
BRANCH  27  30
ATOM     30  C   UNL     1       5.402  -1.784   6.052  0.00  0.00    +0.013 C 
ATOM     31  C   UNL     1       6.481  -0.735   5.779  0.00  0.00    +0.012 C 
ATOM     32  C   UNL     1       5.293  -2.024   7.559  0.00  0.00    +0.012 C 
ENDBRANCH  27  30
ENDBRANCH  23  24
ENDBRANCH  18  19
ENDBRANCH   2  18
TORSDOF 7
