REMARK  Name = ZINC10876415
REMARK  10 active torsions:
REMARK  status: ('A' for Active; 'I' for Inactive)
REMARK    1  A    between atoms: C_1  and  C_2
REMARK    2  A    between atoms: C_3  and  C_32
REMARK    3  A    between atoms: N_9  and  C_29
REMARK    4  A    between atoms: C_10  and  S_12
REMARK    5  A    between atoms: S_12  and  C_13
REMARK    6  A    between atoms: C_13  and  C_14
REMARK    7  A    between atoms: N_19  and  C_20
REMARK    8  A    between atoms: C_26  and  C_28
REMARK    9  A    between atoms: C_29  and  C_30
REMARK   10  A    between atoms: C_29  and  C_31
REMARK                            x       y       z     vdW  Elec       q    Type
REMARK                         _______ _______ _______ _____ _____    ______ ____
ROOT
ATOM      1  S   UNL     1      -1.384   1.285  -1.489  0.00  0.00    -0.078 S 
ENDROOT
BRANCH   1  11
ATOM      2  C   UNL     1       2.826  -0.447  -6.756  0.00  0.00    +0.045 C 
ATOM      3  C   UNL     1       2.728  -0.752  -5.283  0.00  0.00    -0.026 A 
ATOM      4  C   UNL     1       3.624  -1.559  -4.696  0.00  0.00    -0.008 A 
ATOM      5  S   UNL     1       3.090  -1.605  -2.996  0.00  0.00    -0.073 S 
ATOM      6  C   UNL     1       1.677  -0.538  -3.123  0.00  0.00    +0.117 A 
ATOM      7  C   UNL     1       1.660  -0.177  -4.483  0.00  0.00    +0.075 A 
ATOM      8  C   UNL     1       0.603   0.700  -4.881  0.00  0.00    +0.263 A 
ATOM      9  O   UNL     1       0.508   1.067  -6.040  0.00  0.00    -0.267 OA
ATOM     10  N   UNL     1      -0.289   1.111  -3.961  0.00  0.00    -0.285 N 
ATOM     11  C   UNL     1      -0.196   0.715  -2.658  0.00  0.00    +0.173 A 
ATOM     12  N   UNL     1       0.768  -0.093  -2.264  0.00  0.00    -0.216 NA
ATOM     13  C   UNL     1       4.802  -2.259  -5.324  0.00  0.00    +0.052 C 
BRANCH  10  14
ATOM     14  C   UNL     1      -1.378   2.004  -4.364  0.00  0.00    +0.087 C 
ATOM     15  C   UNL     1      -0.792   3.286  -4.959  0.00  0.00    +0.031 C 
ATOM     16  C   UNL     1      -2.249   1.307  -5.412  0.00  0.00    +0.031 C 
ENDBRANCH  10  14
ENDBRANCH   1  11
BRANCH   1  17
ATOM     17  C   UNL     1      -0.779   0.458   0.003  0.00  0.00    +0.173 C 
BRANCH  17  18
ATOM     18  C   UNL     1      -1.668   0.810   1.168  0.00  0.00    +0.231 C 
ATOM     19  O   UNL     1      -2.616   1.547   1.006  0.00  0.00    -0.274 OA
ATOM     20  N   UNL     1      -1.408   0.305   2.391  0.00  0.00    -0.239 N 
ATOM     21  C   UNL     1      -2.203   0.620   3.433  0.00  0.00    +0.306 C 
ATOM     22  O   UNL     1      -3.154   1.359   3.270  0.00  0.00    -0.252 OA
ATOM     23  N   UNL     1      -1.943   0.115   4.655  0.00  0.00    -0.296 N 
ATOM     24  H   UNL     1      -0.648  -0.284   2.521  0.00  0.00    +0.159 HD
ATOM     25  H   UNL     1      -1.183  -0.474   4.785  0.00  0.00    +0.151 HD
BRANCH  23  26
ATOM     26  C   UNL     1      -2.807   0.457   5.788  0.00  0.00    +0.077 C 
ATOM     27  C   UNL     1      -4.010  -0.487   5.815  0.00  0.00    +0.022 C 
ATOM     28  C   UNL     1      -4.912  -0.130   6.997  0.00  0.00    +0.002 C 
ATOM     29  C   UNL     1      -4.124  -0.271   8.301  0.00  0.00    +0.000 C 
ATOM     30  C   UNL     1      -2.921   0.674   8.274  0.00  0.00    +0.005 C 
ATOM     31  C   UNL     1      -2.018   0.317   7.091  0.00  0.00    +0.006 C 
ATOM     32  C   UNL     1      -0.815   1.261   7.064  0.00  0.00    +0.009 C 
ENDBRANCH  23  26
ENDBRANCH  17  18
ENDBRANCH   1  17
TORSDOF 5
