REMARK  Name = ZINC64653789
REMARK  8 active torsions:
REMARK  status: ('A' for Active; 'I' for Inactive)
REMARK    1  A    between atoms: C_1  and  O_2
REMARK    2  A    between atoms: O_2  and  C_3
REMARK    3  A    between atoms: C_3  and  C_4
REMARK    4  A    between atoms: C_4  and  N_5
REMARK    5  A    between atoms: C_12  and  C_18
REMARK    6  A    between atoms: N_20  and  C_21
REMARK    7  A    between atoms: C_21  and  C_22
REMARK    8  A    between atoms: C_22  and  C_23
REMARK                            x       y       z     vdW  Elec       q    Type
REMARK                         _______ _______ _______ _____ _____    ______ ____
ROOT
ATOM      1  N   UNL     1       1.401  -2.532  -0.162  0.00  0.00    -0.249 N 
ATOM      2  C   UNL     1       0.777  -2.643  -1.360  0.00  0.00    +0.234 C 
ATOM      3  O   UNL     1      -0.408  -2.422  -1.489  0.00  0.00    -0.274 OA
ATOM      4  C   UNL     1       1.646  -3.060  -2.526  0.00  0.00    +0.144 C 
ATOM      5  C   UNL     1       0.938  -4.096  -3.338  0.00  0.00    -0.008 C 
ATOM      6  C   UNL     1       1.609  -4.963  -4.095  0.00  0.00    +0.010 C 
ATOM      7  C   UNL     1       3.077  -4.972  -4.117  0.00  0.00    +0.038 C 
ATOM      8  C   UNL     1       3.768  -4.282  -3.140  0.00  0.00    +0.035 C 
ATOM      9  C   UNL     1       3.028  -3.564  -2.190  0.00  0.00    +0.049 C 
ATOM     10  N   UNL     1       3.475  -3.360  -0.972  0.00  0.00    -0.196 NA
ATOM     11  C   UNL     1       2.708  -2.796  -0.030  0.00  0.00    +0.163 C 
ATOM     12  S   UNL     1       3.444  -2.407   1.466  0.00  0.00    -0.016 S 
ENDROOT
BRANCH   7  13
ATOM     13  C   UNL     1       3.808  -5.712  -5.173  0.00  0.00    +0.244 C 
ATOM     14  O   UNL     1       5.023  -5.713  -5.184  0.00  0.00    -0.270 OA
ATOM     15  N   UNL     1       3.125  -6.382  -6.122  0.00  0.00    -0.311 N 
ATOM     16  H   UNL     1       2.155  -6.380  -6.114  0.00  0.00    +0.149 HD
BRANCH  15  17
ATOM     17  C   UNL     1       3.847  -7.113  -7.166  0.00  0.00    +0.109 C 
BRANCH  17  18
ATOM     18  C   UNL     1       2.843  -7.781  -8.108  0.00  0.00    +0.052 C 
BRANCH  18  19
ATOM     19  C   UNL     1       3.586  -8.533  -9.182  0.00  0.00    -0.040 C 
ATOM     20  C   UNL     1       3.905  -9.848  -9.182  0.00  0.00    -0.001 A 
ATOM     21  C   UNL     1       3.664 -10.929  -8.220  0.00  0.00    +0.010 A 
ATOM     22  C   UNL     1       4.114 -12.172  -8.504  0.00  0.00    +0.001 A 
ATOM     23  C   UNL     1       4.803 -12.453  -9.692  0.00  0.00    +0.002 A 
ATOM     24  C   UNL     1       5.061 -11.513 -10.625  0.00  0.00    +0.026 A 
ATOM     25  C   UNL     1       4.634 -10.170 -10.430  0.00  0.00    +0.043 A 
ATOM     26  N   UNL     1       4.761  -9.097 -11.172  0.00  0.00    -0.380 N 
ATOM     27  C   UNL     1       4.122  -7.972 -10.481  0.00  0.00    +0.144 C 
ATOM     28  H   UNL     1       5.202  -9.055 -12.035  0.00  0.00    +0.160 HD
ENDBRANCH  18  19
ENDBRANCH  17  18
ENDBRANCH  15  17
ENDBRANCH   7  13
BRANCH   1  29
ATOM     29  C   UNL     1       0.633  -2.108   1.011  0.00  0.00    +0.143 C 
BRANCH  29  30
ATOM     30  C   UNL     1       0.673  -0.582   1.123  0.00  0.00    +0.179 C 
BRANCH  30  32
ATOM     31  C   UNL     1      -0.017   1.425   0.010  0.00  0.00    +0.194 C 
ATOM     32  O   UNL     1       0.002  -0.004   0.002  0.00  0.00    -0.381 OA
ENDBRANCH  30  32
ENDBRANCH  29  30
ENDBRANCH   1  29
TORSDOF 7
