REMARK  Name = ZINC37641956
REMARK  4 active torsions:
REMARK  status: ('A' for Active; 'I' for Inactive)
REMARK    1  A    between atoms: C_1  and  C_2
REMARK    2  A    between atoms: C_5  and  C_9
REMARK    3  A    between atoms: C_11  and  C_14
REMARK    4  A    between atoms: C_16  and  N_21
REMARK                            x       y       z     vdW  Elec       q    Type
REMARK                         _______ _______ _______ _____ _____    ______ ____
ROOT
ATOM      1  C   UNL     1       0.059  -4.258  -0.024  0.00  0.00    +0.202 A 
ATOM      2  N   UNL     1       0.070  -5.046   1.062  0.00  0.00    -0.187 NA
ATOM      3  C   UNL     1       0.086  -6.308   0.699  0.00  0.00    +0.260 A 
ATOM      4  O   UNL     1       0.086  -6.359  -0.644  0.00  0.00    -0.332 OA
ATOM      5  N   UNL     1       0.064  -5.013  -1.095  0.00  0.00    -0.056 NA
ENDROOT
BRANCH   1  10
ATOM      6  C   UNL     1      -0.018   1.503   0.010  0.00  0.00    +0.047 C 
ATOM      7  C   UNL     1       0.002  -0.004   0.002  0.00  0.00    -0.015 A 
ATOM      8  C   UNL     1       0.006  -0.687  -1.201  0.00  0.00    +0.007 A 
ATOM      9  C   UNL     1       0.024  -2.067  -1.214  0.00  0.00    +0.012 A 
ATOM     10  C   UNL     1       0.040  -2.774  -0.014  0.00  0.00    +0.025 A 
ATOM     11  C   UNL     1       0.036  -2.083   1.196  0.00  0.00    +0.050 A 
ATOM     12  C   UNL     1       0.023  -0.701   1.199  0.00  0.00    +0.127 A 
ATOM     13  F   UNL     1       0.025  -0.029   2.371  0.00  0.00    -0.205 F 
ENDBRANCH   1  10
BRANCH   3  14
ATOM     14  C   UNL     1       0.102  -7.471   1.611  0.00  0.00    +0.059 A 
ATOM     15  C   UNL     1       0.124  -8.766   1.093  0.00  0.00    +0.037 A 
ATOM     16  C   UNL     1       0.138  -9.852   1.954  0.00  0.00    +0.025 A 
ATOM     17  C   UNL     1       0.131  -9.650   3.329  0.00  0.00    +0.024 A 
ATOM     18  C   UNL     1       0.109  -8.368   3.843  0.00  0.00    +0.022 A 
ATOM     19  C   UNL     1       0.100  -7.278   2.994  0.00  0.00    +0.053 A 
ATOM     20 CL   UNL     1       0.080  -5.669   3.646  0.00  0.00    -0.083 Cl
BRANCH  16  21
ATOM     21  N   UNL     1       0.160 -11.152   1.439  0.00  0.00    -0.358 N 
ATOM     22  H   UNL     1       0.165 -11.293   0.479  0.00  0.00    +0.142 HD
ATOM     23  H   UNL     1       0.171 -11.912   2.041  0.00  0.00    +0.142 HD
ENDBRANCH  16  21
ENDBRANCH   3  14
TORSDOF 3
