REMARK  Name = ZINC39933352
REMARK  9 active torsions:
REMARK  status: ('A' for Active; 'I' for Inactive)
REMARK    1  A    between atoms: C_1  and  C_2
REMARK    2  A    between atoms: C_6  and  N_8
REMARK    3  A    between atoms: C_9  and  S_23
REMARK    4  A    between atoms: C_13  and  C_14
REMARK    5  A    between atoms: S_23  and  C_24
REMARK    6  A    between atoms: C_24  and  C_26
REMARK    7  A    between atoms: C_24  and  C_27
REMARK    8  A    between atoms: N_29  and  C_30
REMARK    9  A    between atoms: C_33  and  C_36
REMARK                            x       y       z     vdW  Elec       q    Type
REMARK                         _______ _______ _______ _____ _____    ______ ____
ROOT
ATOM      1  N   UNL     1       0.012  -2.574   2.265  0.00  0.00    -0.254 N 
ATOM      2  C   UNL     1      -0.017  -4.046   2.280  0.00  0.00    +0.242 C 
ATOM      3  N   UNL     1       0.119  -4.397   3.703  0.00  0.00    -0.237 N 
ATOM      4  N   UNL     1       0.215  -3.188   4.403  0.00  0.00    -0.169 NA
ATOM      5  C   UNL     1       0.161  -2.164   3.593  0.00  0.00    +0.151 C 
ATOM      6  H   UNL     1       0.139  -5.290   4.081  0.00  0.00    +0.171 HD
ENDROOT
BRANCH   5   7
ATOM      7  C   UNL     1       0.238  -0.825   4.004  0.00  0.00    +0.022 C 
ATOM      8  C   UNL     1       0.480  -0.351   5.293  0.00  0.00    +0.006 A 
ATOM      9  C   UNL     1       0.711  -1.006   6.522  0.00  0.00    +0.010 A 
ATOM     10  C   UNL     1       0.922  -0.274   7.646  0.00  0.00    +0.001 A 
ATOM     11  C   UNL     1       0.918   1.122   7.622  0.00  0.00    +0.002 A 
ATOM     12  C   UNL     1       0.703   1.816   6.477  0.00  0.00    +0.026 A 
ATOM     13  C   UNL     1       0.475   1.121   5.262  0.00  0.00    +0.043 A 
ATOM     14  N   UNL     1       0.246   1.555   4.038  0.00  0.00    -0.380 N 
ATOM     15  C   UNL     1       0.084   0.407   3.140  0.00  0.00    +0.152 C 
ATOM     16  H   UNL     1       0.196   2.486   3.773  0.00  0.00    +0.160 HD
ENDBRANCH   5   7
BRANCH   1  22
ATOM     17  C   UNL     1       2.160  -0.407  -1.589  0.00  0.00    +0.044 C 
ATOM     18  C   UNL     1       0.942  -0.680  -0.745  0.00  0.00    -0.049 A 
ATOM     19  C   UNL     1      -0.274  -0.112  -1.082  0.00  0.00    +0.003 A 
ATOM     20  C   UNL     1      -1.394  -0.360  -0.310  0.00  0.00    +0.002 A 
ATOM     21  C   UNL     1      -1.303  -1.176   0.800  0.00  0.00    +0.023 A 
ATOM     22  C   UNL     1      -0.084  -1.748   1.142  0.00  0.00    +0.038 A 
ATOM     23  C   UNL     1       1.039  -1.501   0.361  0.00  0.00    +0.027 A 
ENDBRANCH   1  22
BRANCH   2  24
ATOM     24  S   UNL     1      -1.593  -4.656   1.620  0.00  0.00    -0.105 S 
BRANCH  24  25
ATOM     25  C   UNL     1      -2.838  -3.948   2.734  0.00  0.00    +0.133 C 
ATOM     26  C   UNL     1      -2.659  -4.534   4.136  0.00  0.00    +0.029 C 
BRANCH  25  27
ATOM     27  C   UNL     1      -4.216  -4.281   2.223  0.00  0.00    +0.230 C 
ATOM     28  O   UNL     1      -4.384  -5.256   1.522  0.00  0.00    -0.274 OA
ATOM     29  N   UNL     1      -5.262  -3.494   2.545  0.00  0.00    -0.285 N 
ATOM     30  H   UNL     1      -5.119  -2.681   3.054  0.00  0.00    +0.155 HD
BRANCH  29  31
ATOM     31  C   UNL     1      -6.550  -3.848   2.145  0.00  0.00    +0.033 A 
ATOM     32  C   UNL     1      -6.901  -5.191   2.044  0.00  0.00    +0.024 A 
ATOM     33  C   UNL     1      -8.172  -5.544   1.650  0.00  0.00    +0.015 A 
ATOM     34  C   UNL     1      -9.110  -4.552   1.351  0.00  0.00    +0.037 A 
ATOM     35  C   UNL     1      -8.754  -3.205   1.453  0.00  0.00    +0.015 A 
ATOM     36  C   UNL     1      -7.483  -2.858   1.853  0.00  0.00    +0.024 A 
BRANCH  34  37
ATOM     37  C   UNL     1     -10.473  -4.927   0.927  0.00  0.00    +0.242 C 
ATOM     38  O   UNL     1     -10.781  -6.100   0.838  0.00  0.00    -0.270 OA
ATOM     39  N   UNL     1     -11.377  -3.970   0.639  0.00  0.00    -0.325 N 
ATOM     40  H   UNL     1     -11.131  -3.034   0.710  0.00  0.00    +0.145 HD
ATOM     41  H   UNL     1     -12.273  -4.216   0.361  0.00  0.00    +0.145 HD
ENDBRANCH  34  37
ENDBRANCH  29  31
ENDBRANCH  25  27
ENDBRANCH  24  25
ENDBRANCH   2  24
TORSDOF 7
