REMARK  Name = ZINC45347940
REMARK  5 active torsions:
REMARK  status: ('A' for Active; 'I' for Inactive)
REMARK    1  A    between atoms: C_4  and  C_7
REMARK    2  A    between atoms: C_7  and  N_8
REMARK    3  A    between atoms: C_15  and  C_16
REMARK    4  A    between atoms: N_18  and  N_19
REMARK    5  A    between atoms: N_19  and  C_20
REMARK                            x       y       z     vdW  Elec       q    Type
REMARK                         _______ _______ _______ _____ _____    ______ ____
ROOT
ATOM      1  N   UNL     1       4.274  -1.165   1.782  0.00  0.00    +0.384 N 
ATOM      2  C   UNL     1       4.509   0.112   2.458  0.00  0.00    -0.074 C 
ATOM      3  C   UNL     1       5.347   1.054   1.578  0.00  0.00    +0.014 C 
ATOM      4  C   UNL     1       6.582   0.252   1.175  0.00  0.00    -0.045 C 
ATOM      5  C   UNL     1       6.369  -1.132   0.556  0.00  0.00    +0.063 C 
ATOM      6  S   UNL     1       8.076  -1.785   0.479  0.00  0.00    -0.100 S 
ATOM      7  C   UNL     1       8.938  -0.309   1.001  0.00  0.00    +0.101 C 
ATOM      8  C   UNL     1       7.837   0.624   1.335  0.00  0.00    +0.069 C 
ATOM      9  N   UNL     1      10.224  -0.103   1.071  0.00  0.00    -0.292 NA
ATOM     10  C   UNL     1       5.521  -1.913   1.561  0.00  0.00    -0.059 C 
ATOM     11  H   UNL     1      10.562   0.775   1.304  0.00  0.00    +0.187 HD
ATOM     12  H   UNL     1       3.651  -1.723   2.346  0.00  0.00    -0.081 HD
ENDROOT
BRANCH   8  13
ATOM     13  C   UNL     1       8.146   1.973   1.849  0.00  0.00    +0.263 C 
ATOM     14  O   UNL     1       8.464   2.123   3.013  0.00  0.00    -0.269 OA
ATOM     15  N   UNL     1       8.075   3.039   1.028  0.00  0.00    -0.232 N 
ATOM     16  H   UNL     1       7.751   2.931   0.119  0.00  0.00    +0.173 HD
BRANCH  15  17
ATOM     17  N   UNL     1       8.468   4.304   1.485  0.00  0.00    -0.264 N 
ATOM     18  H   UNL     1       8.791   4.412   2.393  0.00  0.00    +0.170 HD
BRANCH  17  19
ATOM     19  C   UNL     1       8.394   5.409   0.634  0.00  0.00    +0.044 A 
ATOM     20  C   UNL     1       7.926   5.257  -0.665  0.00  0.00    +0.024 A 
ATOM     21  C   UNL     1       7.854   6.351  -1.504  0.00  0.00    +0.002 A 
ATOM     22  C   UNL     1       8.248   7.598  -1.053  0.00  0.00    +0.000 A 
ATOM     23  C   UNL     1       8.715   7.752   0.240  0.00  0.00    +0.002 A 
ATOM     24  C   UNL     1       8.784   6.663   1.086  0.00  0.00    +0.024 A 
ENDBRANCH  17  19
ENDBRANCH  15  17
ENDBRANCH   8  13
BRANCH   1  25
ATOM     25  C   UNL     1       3.636  -0.906   0.484  0.00  0.00    -0.043 C 
BRANCH  25  29
ATOM     26  C   UNL     1      -0.157   0.959   1.103  0.00  0.00    +0.000 A 
ATOM     27  C   UNL     1       0.979   1.734   0.962  0.00  0.00    +0.000 A 
ATOM     28  C   UNL     1       2.207   1.130   0.762  0.00  0.00    +0.002 A 
ATOM     29  C   UNL     1       2.298  -0.248   0.703  0.00  0.00    -0.064 A 
ATOM     30  C   UNL     1       1.162  -1.023   0.845  0.00  0.00    +0.002 A 
ATOM     31  C   UNL     1      -0.065  -0.419   1.044  0.00  0.00    +0.000 A 
ENDBRANCH  25  29
ENDBRANCH   1  25
TORSDOF 5
