REMARK  Name = ZINC01212108
REMARK  5 active torsions:
REMARK  status: ('A' for Active; 'I' for Inactive)
REMARK    1  A    between atoms: C_3  and  C_10
REMARK    2  A    between atoms: C_5  and  N_7
REMARK    3  A    between atoms: N_11  and  N_12
REMARK    4  A    between atoms: C_13  and  C_15
REMARK    5  A    between atoms: N_20  and  C_22
REMARK                            x       y       z     vdW  Elec       q    Type
REMARK                         _______ _______ _______ _____ _____    ______ ____
ROOT
ATOM      1  N   UNL     1       4.843   4.181   0.005  0.00  0.00    -0.207 N 
ATOM      2  C   UNL     1       4.835   5.528   0.006  0.00  0.00    +0.237 C 
ATOM      3  O   UNL     1       3.781   6.128   0.028  0.00  0.00    -0.274 OA
ATOM      4  H   UNL     1       5.686   3.701  -0.012  0.00  0.00    +0.177 HD
ENDROOT
BRANCH   2   5
ATOM      5  C   UNL     1       6.135   6.290  -0.019  0.00  0.00    +0.103 C 
ATOM      6  C   UNL     1       6.901   6.034  -1.338  0.00  0.00    +0.110 C 
ATOM      7  C   UNL     1       6.467   7.164  -2.244  0.00  0.00    +0.221 C 
ATOM      8  O   UNL     1       6.612   7.184  -3.449  0.00  0.00    -0.275 OA
ATOM      9  N   UNL     1       5.896   8.143  -1.522  0.00  0.00    -0.271 N 
ATOM     10  C   UNL     1       5.883   7.812  -0.091  0.00  0.00    +0.127 C 
BRANCH   9  11
ATOM     11  C   UNL     1       5.379   9.327  -2.063  0.00  0.00    +0.036 A 
ATOM     12  C   UNL     1       5.538   9.600  -3.415  0.00  0.00    +0.026 A 
ATOM     13  C   UNL     1       5.028  10.768  -3.947  0.00  0.00    +0.040 A 
ATOM     14  C   UNL     1       4.359  11.666  -3.133  0.00  0.00    +0.124 A 
ATOM     15  C   UNL     1       4.199  11.396  -1.785  0.00  0.00    +0.040 A 
ATOM     16  C   UNL     1       4.702  10.226  -1.250  0.00  0.00    +0.026 A 
ATOM     17  F   UNL     1       3.861  12.809  -3.656  0.00  0.00    -0.205 F 
ENDBRANCH   9  11
ENDBRANCH   2   5
BRANCH   1  19
ATOM     18  C   UNL     1       3.642   2.175   0.028  0.00  0.00    +0.138 C 
ATOM     19  N   UNL     1       3.634   3.473   0.029  0.00  0.00    -0.188 NA
BRANCH  18  22
ATOM     20  C   UNL     1      -0.032   1.414   0.100  0.00  0.00    +0.003 A 
ATOM     21  C   UNL     1       1.154   2.118   0.077  0.00  0.00    +0.009 A 
ATOM     22  C   UNL     1       2.370   1.430   0.053  0.00  0.00    -0.003 A 
ATOM     23  C   UNL     1       2.374   0.033   0.051  0.00  0.00    +0.042 A 
ATOM     24  C   UNL     1       1.181  -0.657   0.074  0.00  0.00    +0.127 A 
ATOM     25  C   UNL     1      -0.020   0.031   0.099  0.00  0.00    +0.033 A 
BRANCH  24  26
ATOM     26  N   UNL     1       1.184  -2.138   0.073  0.00  0.00    +0.056 N 
ATOM     27  O   UNL     1       2.232  -2.740   0.051  0.00  0.00    -0.126 OA
ATOM     28  O   UNL     1       0.138  -2.744   0.093  0.00  0.00    -0.126 OA
ENDBRANCH  24  26
ENDBRANCH  18  22
ENDBRANCH   1  19
TORSDOF 5
