REMARK  Name = ZINC06190446
REMARK  17 active torsions:
REMARK  status: ('A' for Active; 'I' for Inactive)
REMARK    1  A    between atoms: C_1  and  C_2
REMARK    2  A    between atoms: C_2  and  C_3
REMARK    3  A    between atoms: C_2  and  C_4
REMARK    4  A    between atoms: C_4  and  C_5
REMARK    5  A    between atoms: C_5  and  C_7
REMARK    6  A    between atoms: C_5  and  N_14
REMARK    7  A    between atoms: N_9  and  C_10
REMARK    8  A    between atoms: C_10  and  C_11
REMARK    9  A    between atoms: C_10  and  C_12
REMARK   10  A    between atoms: C_10  and  C_13
REMARK   11  A    between atoms: N_14  and  C_15
REMARK   12  A    between atoms: C_18  and  C_21
REMARK   13  A    between atoms: C_21  and  C_22
REMARK   14  A    between atoms: C_21  and  C_23
REMARK   15  A    between atoms: C_24  and  C_26
REMARK   16  A    between atoms: C_27  and  N_34
REMARK   17  A    between atoms: C_28  and  C_31
REMARK                            x       y       z     vdW  Elec       q    Type
REMARK                         _______ _______ _______ _____ _____    ______ ____
ROOT
ATOM      1  N   UNL     1      -0.994   3.244  -0.423  0.00  0.00    -0.255 N 
ATOM      2  C   UNL     1      -1.703   3.732  -1.460  0.00  0.00    +0.261 C 
ATOM      3  O   UNL     1      -1.433   4.825  -1.921  0.00  0.00    -0.269 OA
ENDROOT
BRANCH   1   4
ATOM      4  C   UNL     1      -0.020   4.037   0.192  0.00  0.00    +0.037 A 
ATOM      5  C   UNL     1      -0.383   5.212   0.836  0.00  0.00    +0.024 A 
ATOM      6  C   UNL     1       0.581   5.990   1.446  0.00  0.00    +0.006 A 
ATOM      7  C   UNL     1       1.909   5.606   1.407  0.00  0.00    -0.045 A 
ATOM      8  C   UNL     1       2.275   4.439   0.762  0.00  0.00    +0.006 A 
ATOM      9  C   UNL     1       1.315   3.653   0.154  0.00  0.00    +0.024 A 
BRANCH   7  10
ATOM     10  C   UNL     1       2.959   6.460   2.070  0.00  0.00    +0.013 C 
ATOM     11  C   UNL     1       2.958   7.852   1.436  0.00  0.00    +0.012 C 
ATOM     12  C   UNL     1       2.651   6.579   3.563  0.00  0.00    +0.012 C 
ENDBRANCH   7  10
ENDBRANCH   1   4
BRANCH   2  13
ATOM     13  C   UNL     1      -2.797   2.945  -2.033  0.00  0.00    +0.116 A 
ATOM     14  C   UNL     1      -3.578   3.205  -3.161  0.00  0.00    +0.076 A 
ATOM     15  C   UNL     1      -4.529   2.212  -3.393  0.00  0.00    +0.155 A 
ATOM     16  N   UNL     1      -4.603   1.188  -2.571  0.00  0.00    -0.203 NA
ATOM     17  S   UNL     1      -3.493   1.404  -1.474  0.00  0.00    +0.019 S 
BRANCH  15  18
ATOM     18  C   UNL     1      -5.445   2.311  -4.544  0.00  0.00    +0.262 C 
ATOM     19  O   UNL     1      -5.371   3.261  -5.300  0.00  0.00    -0.269 OA
ATOM     20  N   UNL     1      -6.365   1.349  -4.758  0.00  0.00    -0.324 N 
ATOM     21  H   UNL     1      -6.424   0.592  -4.155  0.00  0.00    +0.145 HD
ATOM     22  H   UNL     1      -6.968   1.415  -5.515  0.00  0.00    +0.145 HD
ENDBRANCH  15  18
BRANCH  14  23
ATOM     23  N   UNL     1      -3.423   4.327  -3.964  0.00  0.00    -0.355 N 
ATOM     24  H   UNL     1      -2.741   4.984  -3.753  0.00  0.00    +0.142 HD
ATOM     25  H   UNL     1      -3.997   4.454  -4.736  0.00  0.00    +0.142 HD
ENDBRANCH  14  23
ENDBRANCH   2  13
BRANCH   1  26
ATOM     26  C   UNL     1      -1.245   1.885   0.061  0.00  0.00    +0.168 C 
BRANCH  26  27
ATOM     27  C   UNL     1      -0.761   0.890  -0.962  0.00  0.00    +0.234 C 
ATOM     28  O   UNL     1       0.045   1.229  -1.803  0.00  0.00    -0.274 OA
ATOM     29  N   UNL     1      -1.227  -0.374  -0.946  0.00  0.00    -0.309 N 
ATOM     30  H   UNL     1      -1.871  -0.645  -0.273  0.00  0.00    +0.149 HD
BRANCH  29  31
ATOM     31  C   UNL     1      -0.761  -1.340  -1.945  0.00  0.00    +0.026 C 
ATOM     32  C   UNL     1       0.756  -1.504  -1.827  0.00  0.00    +0.031 C 
ATOM     33  C   UNL     1      -1.440  -2.690  -1.705  0.00  0.00    +0.031 C 
ATOM     34  C   UNL     1      -1.112  -0.834  -3.345  0.00  0.00    +0.031 C 
ENDBRANCH  29  31
ENDBRANCH  26  27
BRANCH  26  35
ATOM     35  C   UNL     1      -0.497   1.666   1.378  0.00  0.00    +0.035 C 
BRANCH  35  37
ATOM     36  C   UNL     1      -2.537   2.079   2.760  0.00  0.00    +0.007 C 
ATOM     37  C   UNL     1      -1.111   2.549   2.466  0.00  0.00    -0.015 C 
ATOM     38  C   UNL     1      -0.269   2.451   3.739  0.00  0.00    +0.007 C 
ENDBRANCH  35  37
ENDBRANCH  26  35
ENDBRANCH   1  26
TORSDOF 10
