REMARK  Name = ZINC59037230
REMARK  9 active torsions:
REMARK  status: ('A' for Active; 'I' for Inactive)
REMARK    1  A    between atoms: C_1  and  C_2
REMARK    2  A    between atoms: C_2  and  C_3
REMARK    3  A    between atoms: C_2  and  C_4
REMARK    4  A    between atoms: C_2  and  C_23
REMARK    5  A    between atoms: C_4  and  N_5
REMARK    6  A    between atoms: N_8  and  C_9
REMARK    7  A    between atoms: C_9  and  C_10
REMARK    8  A    between atoms: C_10  and  C_12
REMARK    9  A    between atoms: C_10  and  N_17
REMARK                            x       y       z     vdW  Elec       q    Type
REMARK                         _______ _______ _______ _____ _____    ______ ____
ROOT
ATOM      1  N   UNL     1      -2.115   0.579   1.242  0.00  0.00    -0.299 N 
ATOM      2  C   UNL     1      -3.341   0.053   1.441  0.00  0.00    +0.300 C 
ATOM      3  O   UNL     1      -3.825  -0.691   0.610  0.00  0.00    -0.253 OA
ATOM      4  N   UNL     1      -4.029   0.352   2.560  0.00  0.00    -0.301 N 
ATOM      5  H   UNL     1      -1.729   1.172   1.905  0.00  0.00    +0.150 HD
ATOM      6  H   UNL     1      -3.643   0.946   3.223  0.00  0.00    +0.150 HD
ENDROOT
BRANCH   1   7
ATOM      7  C   UNL     1      -1.367   0.254   0.026  0.00  0.00    +0.116 C 
BRANCH   7   9
ATOM      8  C   UNL     1      -0.249   2.486   0.117  0.00  0.00    +0.017 C 
ATOM      9  C   UNL     1      -0.018   0.975   0.049  0.00  0.00    +0.006 C 
ATOM     10  C   UNL     1       0.780   0.525   1.274  0.00  0.00    +0.017 C 
BRANCH   9  11
ATOM     11  C   UNL     1       0.751   0.641  -1.203  0.00  0.00    -0.040 A 
ATOM     12  C   UNL     1       0.199  -0.201  -2.151  0.00  0.00    +0.004 A 
ATOM     13  C   UNL     1       0.905  -0.507  -3.299  0.00  0.00    +0.000 A 
ATOM     14  C   UNL     1       2.163   0.028  -3.500  0.00  0.00    +0.000 A 
ATOM     15  C   UNL     1       2.716   0.870  -2.553  0.00  0.00    +0.000 A 
ATOM     16  C   UNL     1       2.008   1.180  -1.407  0.00  0.00    +0.004 A 
ENDBRANCH   9  11
ENDBRANCH   7   9
ENDBRANCH   1   7
BRANCH   4  17
ATOM     17  C   UNL     1      -5.361  -0.219   2.776  0.00  0.00    +0.098 C 
BRANCH  17  18
ATOM     18  C   UNL     1      -5.863   0.169   4.168  0.00  0.00    +0.016 C 
BRANCH  18  19
ATOM     19  N   UNL     1      -4.871  -0.229   5.176  0.00  0.00    +0.387 N 
ATOM     20  C   UNL     1      -4.676  -1.683   5.121  0.00  0.00    -0.078 C 
ATOM     21  C   UNL     1      -3.585  -2.093   6.112  0.00  0.00    -0.019 C 
ATOM     22  C   UNL     1      -4.009  -1.686   7.526  0.00  0.00    -0.004 C 
ATOM     23  C   UNL     1      -4.281  -0.179   7.553  0.00  0.00    -0.019 C 
ATOM     24  C   UNL     1      -5.346   0.160   6.509  0.00  0.00    -0.078 C 
ATOM     25  H   UNL     1      -3.994   0.233   4.984  0.00  0.00    -0.081 HD
ENDBRANCH  18  19
BRANCH  18  26
ATOM     26  C   UNL     1      -6.070   1.661   4.229  0.00  0.00    +0.093 A 
ATOM     27  C   UNL     1      -7.250   2.296   4.116  0.00  0.00    +0.043 A 
ATOM     28  C   UNL     1      -6.983   3.680   4.231  0.00  0.00    +0.041 A 
ATOM     29  C   UNL     1      -5.656   3.807   4.407  0.00  0.00    +0.195 A 
ATOM     30  O   UNL     1      -5.109   2.580   4.411  0.00  0.00    -0.469 OA
ENDBRANCH  18  26
ENDBRANCH  17  18
ENDBRANCH   4  17
TORSDOF 7
