REMARK  Name = ZINC11859161
REMARK  6 active torsions:
REMARK  status: ('A' for Active; 'I' for Inactive)
REMARK    1  A    between atoms: C_3  and  C_7
REMARK    2  A    between atoms: C_7  and  C_9
REMARK    3  A    between atoms: C_11  and  C_23
REMARK    4  A    between atoms: C_17  and  C_18
REMARK    5  A    between atoms: C_17  and  O_22
REMARK    6  A    between atoms: C_26  and  O_29
REMARK                            x       y       z     vdW  Elec       q    Type
REMARK                         _______ _______ _______ _____ _____    ______ ____
ROOT
ATOM      1  C   UNL     1      -1.330   1.944   0.019  0.00  0.00    +0.144 C 
ATOM      2  C   UNL     1      -2.391   1.090   0.721  0.00  0.00    +0.120 C 
ATOM      3  N   UNL     1      -3.688   1.763   0.625  0.00  0.00    -0.292 N 
ATOM      4  C   UNL     1      -3.982   2.567  -0.408  0.00  0.00    +0.302 C 
ATOM      5  O   UNL     1      -5.078   3.093  -0.445  0.00  0.00    -0.253 OA
ATOM      6  N   UNL     1      -3.115   2.814  -1.401  0.00  0.00    -0.264 N 
ATOM      7  C   UNL     1      -1.786   2.203  -1.421  0.00  0.00    +0.243 C 
ATOM      8  H   UNL     1      -4.348   1.624   1.322  0.00  0.00    +0.151 HD
ATOM      9  H   UNL     1      -3.375   3.411  -2.121  0.00  0.00    +0.153 HD
ENDROOT
BRANCH   2  10
ATOM     10  C   UNL     1      -2.020   0.917   2.171  0.00  0.00    -0.026 A 
ATOM     11  C   UNL     1      -2.279   1.930   3.075  0.00  0.00    +0.009 A 
ATOM     12  C   UNL     1      -1.945   1.772   4.407  0.00  0.00    +0.046 A 
ATOM     13  C   UNL     1      -1.339   0.599   4.833  0.00  0.00    +0.117 A 
ATOM     14  C   UNL     1      -1.075  -0.414   3.923  0.00  0.00    +0.046 A 
ATOM     15  C   UNL     1      -1.416  -0.253   2.594  0.00  0.00    +0.009 A 
BRANCH  13  16
ATOM     16  O   UNL     1      -1.005   0.443   6.141  0.00  0.00    -0.507 OA
ATOM     17  H   UNL     1      -0.114   0.749   6.359  0.00  0.00    +0.292 HD
ENDBRANCH  13  16
ENDBRANCH   2  10
BRANCH   7  18
ATOM     18  C   UNL     1      -0.798   3.149  -2.108  0.00  0.00    +0.436 C 
ATOM     19  F   UNL     1       0.474   2.567  -2.119  0.00  0.00    -0.166 F 
ATOM     20  F   UNL     1      -1.215   3.385  -3.422  0.00  0.00    -0.166 F 
ATOM     21  F   UNL     1      -0.750   4.360  -1.409  0.00  0.00    -0.166 F 
ENDBRANCH   7  18
BRANCH   1  22
ATOM     22  C   UNL     1      -0.014   1.208   0.009  0.00  0.00    +0.174 C 
ATOM     23  O   UNL     1       0.002  -0.004   0.002  0.00  0.00    -0.291 OA
BRANCH  22  26
ATOM     24  C   UNL     1       3.640   2.045  -0.022  0.00  0.00    +0.020 A 
ATOM     25  C   UNL     1       2.481   1.289  -0.009  0.00  0.00    +0.014 A 
ATOM     26  C   UNL     1       1.250   1.961   0.001  0.00  0.00    +0.036 A 
ATOM     27  C   UNL     1       1.245   3.360   0.008  0.00  0.00    +0.122 A 
ATOM     28  N   UNL     1       2.377   4.032   0.001  0.00  0.00    -0.263 NA
ATOM     29  C   UNL     1       3.549   3.425  -0.014  0.00  0.00    +0.111 A 
ENDBRANCH  22  26
ENDBRANCH   1  22
BRANCH   7  30
ATOM     30  O   UNL     1      -1.839   0.966  -2.135  0.00  0.00    -0.364 OA
ATOM     31  H   UNL     1      -2.121   1.055  -3.055  0.00  0.00    +0.212 HD
ENDBRANCH   7  30
TORSDOF 6
