REMARK  Name = ZINC16977555
REMARK  6 active torsions:
REMARK  status: ('A' for Active; 'I' for Inactive)
REMARK    1  A    between atoms: C_1  and  C_2
REMARK    2  A    between atoms: C_2  and  O_3
REMARK    3  A    between atoms: O_3  and  C_4
REMARK    4  A    between atoms: C_4  and  C_6
REMARK    5  A    between atoms: C_9  and  N_12
REMARK    6  A    between atoms: C_15  and  C_22
REMARK                            x       y       z     vdW  Elec       q    Type
REMARK                         _______ _______ _______ _____ _____    ______ ____
ROOT
ATOM      1  N   UNL     1       3.368  -3.896  -5.888  0.00  0.00    -0.229 N 
ATOM      2  C   UNL     1       3.549  -5.226  -6.000  0.00  0.00    +0.267 A 
ATOM      3  O   UNL     1       3.156  -5.976  -5.123  0.00  0.00    -0.267 OA
ATOM      4  C   UNL     1       4.196  -5.744  -7.136  0.00  0.00    +0.073 A 
ATOM      5  C   UNL     1       4.626  -4.884  -8.103  0.00  0.00    +0.260 A 
ATOM      6  N   UNL     1       4.421  -3.537  -7.948  0.00  0.00    -0.274 N 
ATOM      7  H   UNL     1       4.725  -2.921  -8.634  0.00  0.00    +0.173 HD
ATOM      8  C   UNL     1       3.795  -3.064  -6.855  0.00  0.00    +0.337 A 
ATOM      9  O   UNL     1       3.618  -1.867  -6.737  0.00  0.00    -0.246 OA
ATOM     10  O   UNL     1       5.250  -5.356  -9.204  0.00  0.00    -0.267 OA
ENDROOT
BRANCH   4  11
ATOM     11  C   UNL     1       4.410  -7.228  -7.283  0.00  0.00    +0.018 C 
ATOM     12  C   UNL     1       3.074  -7.925  -7.394  0.00  0.00    +0.011 A 
ATOM     13  C   UNL     1       2.792  -9.080  -6.748  0.00  0.00    -0.022 A 
ATOM     14  C   UNL     1       1.433  -9.438  -7.088  0.00  0.00    +0.003 A 
ATOM     15  C   UNL     1       0.613 -10.511  -6.724  0.00  0.00    +0.010 A 
ATOM     16  C   UNL     1      -0.655 -10.530  -7.250  0.00  0.00    +0.001 A 
ATOM     17  C   UNL     1      -1.113  -9.539  -8.103  0.00  0.00    +0.002 A 
ATOM     18  C   UNL     1      -0.323  -8.467  -8.480  0.00  0.00    +0.026 A 
ATOM     19  C   UNL     1       0.969  -8.421  -7.962  0.00  0.00    +0.047 A 
ATOM     20  N   UNL     1       1.988  -7.526  -8.123  0.00  0.00    -0.359 N 
ATOM     21  H   UNL     1       1.947  -6.727  -8.673  0.00  0.00    +0.166 HD
ATOM     22  C   UNL     1       3.780  -9.793  -5.860  0.00  0.00    +0.018 C 
ATOM     23  C   UNL     1       5.173  -9.213  -6.147  0.00  0.00    -0.076 C 
ATOM     24  N   UNL     1       5.116  -7.745  -6.101  0.00  0.00    +0.388 N 
ATOM     25  H   UNL     1       6.053  -7.372  -6.082  0.00  0.00    -0.084 HD
ATOM     26  H   UNL     1       4.627  -7.457  -5.267  0.00  0.00    -0.084 HD
ENDBRANCH   4  11
BRANCH   1  30
ATOM     27  C   UNL     1       1.454  -2.347  -2.524  0.00  0.00    +0.059 A 
ATOM     28  C   UNL     1       0.709  -2.708  -3.650  0.00  0.00    +0.017 A 
ATOM     29  C   UNL     1       1.345  -3.219  -4.760  0.00  0.00    +0.027 A 
ATOM     30  C   UNL     1       2.727  -3.376  -4.760  0.00  0.00    +0.054 A 
ATOM     31  C   UNL     1       3.471  -3.019  -3.642  0.00  0.00    +0.027 A 
ATOM     32  C   UNL     1       2.843  -2.501  -2.531  0.00  0.00    +0.017 A 
BRANCH  27  33
ATOM     33  C   UNL     1       0.777  -1.800  -1.334  0.00  0.00    +0.339 C 
ATOM     34  O   UNL     1       1.426  -1.482  -0.358  0.00  0.00    -0.245 OA
BRANCH  33  35
ATOM     35  O   UNL     1      -0.563  -1.652  -1.329  0.00  0.00    -0.461 OA
BRANCH  35  37
ATOM     36  C   UNL     1      -2.668  -1.023  -0.324  0.00  0.00    +0.048 C 
ATOM     37  C   UNL     1      -1.152  -1.115  -0.143  0.00  0.00    +0.229 C 
ENDBRANCH  35  37
ENDBRANCH  33  35
ENDBRANCH  27  33
ENDBRANCH   1  30
TORSDOF 5
