REMARK  Name = ZINC66701102
REMARK  11 active torsions:
REMARK  status: ('A' for Active; 'I' for Inactive)
REMARK    1  A    between atoms: C_1  and  C_2
REMARK    2  A    between atoms: C_2  and  N_3
REMARK    3  A    between atoms: C_7  and  N_10
REMARK    4  A    between atoms: C_16  and  C_19
REMARK    5  A    between atoms: C_16  and  N_20
REMARK    6  A    between atoms: N_20  and  C_21
REMARK    7  A    between atoms: C_22  and  O_24
REMARK    8  A    between atoms: O_24  and  C_25
REMARK    9  A    between atoms: C_25  and  C_26
REMARK   10  A    between atoms: C_25  and  C_27
REMARK   11  A    between atoms: C_25  and  C_28
REMARK                            x       y       z     vdW  Elec       q    Type
REMARK                         _______ _______ _______ _____ _____    ______ ____
ROOT
ATOM      1  N   UNL     1      -4.192  -3.830   1.828  0.00  0.00    -0.298 N 
ATOM      2  C   UNL     1      -3.167  -4.612   1.435  0.00  0.00    +0.302 C 
ATOM      3  O   UNL     1      -2.133  -4.106   1.042  0.00  0.00    -0.253 OA
ATOM      4  N   UNL     1      -3.288  -5.953   1.477  0.00  0.00    -0.286 N 
ATOM      5  C   UNL     1      -2.142  -6.818   1.165  0.00  0.00    +0.111 C 
ATOM      6  C   UNL     1      -1.932  -7.797   2.324  0.00  0.00    +0.045 C 
ATOM      7  C   UNL     1      -3.236  -8.553   2.591  0.00  0.00    +0.040 C 
ATOM      8  C   UNL     1      -4.331  -7.560   2.989  0.00  0.00    +0.045 C 
ATOM      9  C   UNL     1      -4.566  -6.579   1.843  0.00  0.00    +0.111 C 
ATOM     10  C   UNL     1      -3.021  -9.556   3.726  0.00  0.00    +0.032 C 
ATOM     11  H   UNL     1      -5.043  -4.230   2.069  0.00  0.00    +0.150 HD
ENDROOT
BRANCH   1  16
ATOM     12  N   UNL     1      -5.218  -0.238   1.811  0.00  0.00    +0.381 N 
ATOM     13  C   UNL     1      -4.694   0.145   3.128  0.00  0.00    -0.079 C 
ATOM     14  C   UNL     1      -3.304  -0.465   3.325  0.00  0.00    -0.017 C 
ATOM     15  C   UNL     1      -3.406  -1.991   3.238  0.00  0.00    +0.018 C 
ATOM     16  C   UNL     1      -4.023  -2.376   1.891  0.00  0.00    +0.058 C 
ATOM     17  C   UNL     1      -5.386  -1.695   1.747  0.00  0.00    -0.056 C 
ATOM     18  H   UNL     1      -4.572   0.057   1.095  0.00  0.00    -0.082 HD
BRANCH  12  20
ATOM     19  C   UNL     1      -6.324   1.929   1.538  0.00  0.00    -0.017 C 
ATOM     20  C   UNL     1      -6.517   0.413   1.595  0.00  0.00    -0.082 C 
ENDBRANCH  12  20
ENDBRANCH   1  16
BRANCH   7  21
ATOM     21  N   UNL     1      -3.643  -9.268   1.379  0.00  0.00    -0.265 N 
ATOM     22  C   UNL     1      -5.008  -9.126   0.868  0.00  0.00    +0.136 C 
ATOM     23  C   UNL     1      -2.760 -10.056   0.734  0.00  0.00    +0.404 C 
ATOM     24  O   UNL     1      -1.627 -10.173   1.157  0.00  0.00    -0.226 OA
BRANCH  23  25
ATOM     25  O   UNL     1      -3.134 -10.713  -0.381  0.00  0.00    -0.445 OA
BRANCH  25  26
ATOM     26  C   UNL     1      -2.147 -11.530  -1.013  0.00  0.00    +0.107 C 
ATOM     27  C   UNL     1      -1.677 -12.610  -0.037  0.00  0.00    +0.055 C 
ATOM     28  C   UNL     1      -2.752 -12.192  -2.253  0.00  0.00    +0.055 C 
ATOM     29  C   UNL     1      -0.956 -10.664  -1.427  0.00  0.00    +0.055 C 
ENDBRANCH  25  26
ENDBRANCH  23  25
ENDBRANCH   7  21
TORSDOF 5
