REMARK  Name = ZINC17115406
REMARK  9 active torsions:
REMARK  status: ('A' for Active; 'I' for Inactive)
REMARK    1  A    between atoms: C_6  and  S_7
REMARK    2  A    between atoms: S_7  and  N_10
REMARK    3  A    between atoms: N_10  and  C_11
REMARK    4  A    between atoms: C_11  and  C_12
REMARK    5  A    between atoms: C_12  and  C_13
REMARK    6  A    between atoms: C_13  and  C_14
REMARK    7  A    between atoms: C_14  and  C_15
REMARK    8  A    between atoms: C_15  and  C_16
REMARK    9  A    between atoms: N_18  and  N_19
REMARK                            x       y       z     vdW  Elec       q    Type
REMARK                         _______ _______ _______ _____ _____    ______ ____
ROOT
ATOM      1  C   UNL     1       6.335   0.327  -5.941  0.00  0.00    +0.009 C 
ENDROOT
BRANCH   1   2
ATOM      2  C   UNL     1       5.639   0.804  -4.665  0.00  0.00    +0.002 C 
BRANCH   2   3
ATOM      3  C   UNL     1       5.329  -0.399  -3.772  0.00  0.00    +0.017 C 
BRANCH   3   4
ATOM      4  C   UNL     1       4.634   0.079  -2.496  0.00  0.00    +0.106 C 
BRANCH   4   5
ATOM      5  N   UNL     1       4.337  -1.074  -1.641  0.00  0.00    -0.190 NA
ATOM      6  H   UNL     1       4.378  -1.971  -2.006  0.00  0.00    +0.148 HD
BRANCH   5   7
ATOM      7  S   UNL     1       3.931  -0.843  -0.052  0.00  0.00    +0.059 S 
ATOM      8  O   UNL     1       4.904   0.038   0.492  0.00  0.00    -0.153 OA
ATOM      9  O   UNL     1       3.679  -2.131   0.494  0.00  0.00    -0.153 OA
BRANCH   7  15
ATOM     10  C   UNL     1       1.208  -0.680  -0.016  0.00  0.00    +0.032 A 
ATOM     11  C   UNL     1       0.002  -0.004   0.002  0.00  0.00    +0.051 A 
ATOM     12  C   UNL     1      -0.017   1.382   0.010  0.00  0.00    +0.162 A 
ATOM     13  C   UNL     1       1.180   2.090   0.002  0.00  0.00    +0.164 A 
ATOM     14  C   UNL     1       2.386   1.406  -0.017  0.00  0.00    +0.078 A 
ATOM     15  C   UNL     1       2.397   0.023  -0.027  0.00  0.00    +0.109 A 
ATOM     16  O   UNL     1       1.184   3.451   0.018  0.00  0.00    -0.485 OA
ATOM     17  C   UNL     1      -0.040   4.103  -0.340  0.00  0.00    +0.270 C 
ATOM     18  C   UNL     1      -1.188   3.413   0.408  0.00  0.00    +0.270 C 
ATOM     19  O   UNL     1      -1.211   2.034   0.019  0.00  0.00    -0.485 OA
ENDBRANCH   7  15
ENDBRANCH   5   7
ENDBRANCH   4   5
ENDBRANCH   3   4
ENDBRANCH   2   3
ENDBRANCH   1   2
BRANCH   1  20
ATOM     20  C   UNL     1       6.645   1.530  -6.834  0.00  0.00    +0.097 C 
BRANCH  20  21
ATOM     21  C   UNL     1       7.329   1.059  -8.091  0.00  0.00    +0.230 C 
ATOM     22  O   UNL     1       7.548  -0.122  -8.257  0.00  0.00    -0.274 OA
ATOM     23  N   UNL     1       7.699   1.951  -9.032  0.00  0.00    -0.224 N 
ATOM     24  H   UNL     1       7.524   2.896  -8.899  0.00  0.00    +0.174 HD
BRANCH  23  25
ATOM     25  N   UNL     1       8.335   1.514 -10.201  0.00  0.00    -0.137 N 
ATOM     26  C   UNL     1       7.737   1.440 -11.408  0.00  0.00    +0.263 C 
ATOM     27  O   UNL     1       6.591   1.729 -11.677  0.00  0.00    -0.271 OA
ATOM     28  C   UNL     1       8.797   0.922 -12.353  0.00  0.00    +0.114 C 
ATOM     29  C   UNL     1       9.076   1.944 -13.449  0.00  0.00    +0.035 C 
ATOM     30  C   UNL     1      10.171   1.414 -14.378  0.00  0.00    +0.003 C 
ATOM     31  C   UNL     1       9.716   0.090 -14.996  0.00  0.00    +0.000 C 
ATOM     32  C   UNL     1       9.464  -0.932 -13.885  0.00  0.00    +0.003 C 
ATOM     33  C   UNL     1       8.367  -0.411 -12.954  0.00  0.00    +0.035 C 
ATOM     34  N   UNL     1       9.979   0.746 -11.500  0.00  0.00    -0.284 N 
ATOM     35  C   UNL     1       9.614   1.122 -10.260  0.00  0.00    +0.326 C 
ATOM     36  O   UNL     1      10.361   1.106  -9.301  0.00  0.00    -0.251 OA
ATOM     37  H   UNL     1      10.852   0.425 -11.776  0.00  0.00    +0.151 HD
ENDBRANCH  23  25
ENDBRANCH  20  21
ENDBRANCH   1  20
TORSDOF 9
