REMARK  Name = ZINC39154645
REMARK  5 active torsions:
REMARK  status: ('A' for Active; 'I' for Inactive)
REMARK    1  A    between atoms: C_1  and  C_2
REMARK    2  A    between atoms: C_2  and  C_32
REMARK    3  A    between atoms: C_15  and  C_18
REMARK    4  A    between atoms: C_18  and  O_19
REMARK    5  A    between atoms: O_19  and  C_20
REMARK                            x       y       z     vdW  Elec       q    Type
REMARK                         _______ _______ _______ _____ _____    ______ ____
ROOT
ATOM      1  C   UNL     1      -0.019   1.526   0.010  0.00  0.00    +0.041 C 
ATOM      2  C   UNL     1       0.002  -0.004   0.002  0.00  0.00    +0.068 C 
ATOM      3  C   UNL     1       0.704  -0.495  -1.268  0.00  0.00    +0.071 C 
ATOM      4  C   UNL     1       0.917  -2.001  -1.137  0.00  0.00    -0.020 A 
ATOM      5  C   UNL     1       0.839  -2.582   0.082  0.00  0.00    +0.021 A 
ATOM      6  S   UNL     1       1.144  -4.300  -0.216  0.00  0.00    -0.075 S 
ATOM      7  C   UNL     1       1.373  -4.224  -1.974  0.00  0.00    +0.084 A 
ATOM      8  C   UNL     1       1.206  -2.875  -2.270  0.00  0.00    +0.048 A 
ATOM      9  C   UNL     1       1.346  -2.509  -3.708  0.00  0.00    +0.150 C 
ATOM     10  N   UNL     1       1.622  -3.498  -4.624  0.00  0.00    -0.168 N 
ATOM     11  C   UNL     1       1.767  -4.783  -4.236  0.00  0.00    +0.326 C 
ATOM     12  O   UNL     1       2.011  -5.631  -5.072  0.00  0.00    -0.251 OA
ATOM     13  N   UNL     1       1.648  -5.148  -2.947  0.00  0.00    -0.262 N 
ATOM     14  N   UNL     1       1.709  -2.955  -5.882  0.00  0.00    -0.204 NA
ATOM     15  C   UNL     1       1.466  -1.510  -5.715  0.00  0.00    +0.229 C 
ATOM     16  N   UNL     1       1.244  -1.336  -4.274  0.00  0.00    -0.243 NA
ATOM     17  C   UNL     1       0.555  -1.888   1.378  0.00  0.00    +0.203 C 
ATOM     18  O   UNL     1       0.694  -0.475   1.161  0.00  0.00    -0.368 OA
ATOM     19  C   UNL     1      -1.434  -0.531   0.020  0.00  0.00    +0.041 C 
ATOM     20  H   UNL     1       2.617  -3.124  -6.287  0.00  0.00    +0.147 HD
ATOM     21  H   UNL     1       1.758  -6.080  -2.703  0.00  0.00    +0.157 HD
ENDROOT
BRANCH  15  22
ATOM     22  C   UNL     1       2.686  -0.708  -6.170  0.00  0.00    +0.273 C 
BRANCH  22  23
ATOM     23  O   UNL     1       3.821  -1.082  -5.387  0.00  0.00    -0.488 OA
BRANCH  23  24
ATOM     24  C   UNL     1       4.995  -0.458  -5.666  0.00  0.00    +0.128 A 
ATOM     25  C   UNL     1       5.056   0.485  -6.653  0.00  0.00    +0.046 A 
ATOM     26  C   UNL     1       6.251   1.134  -6.950  0.00  0.00    +0.004 A 
ATOM     27  C   UNL     1       7.394   0.848  -6.268  0.00  0.00    +0.009 A 
ATOM     28  C   UNL     1       7.374  -0.116  -5.245  0.00  0.00    -0.014 A 
ATOM     29  C   UNL     1       6.158  -0.776  -4.936  0.00  0.00    +0.024 A 
ATOM     30  C   UNL     1       6.137  -1.736  -3.911  0.00  0.00    +0.012 A 
ATOM     31  C   UNL     1       7.280  -2.017  -3.227  0.00  0.00    +0.001 A 
ATOM     32  C   UNL     1       8.474  -1.365  -3.528  0.00  0.00    +0.001 A 
ATOM     33  C   UNL     1       8.535  -0.436  -4.521  0.00  0.00    +0.008 A 
ENDBRANCH  23  24
ENDBRANCH  22  23
ENDBRANCH  15  22
TORSDOF 3
