REMARK  Name = ZINC06949310
REMARK  4 active torsions:
REMARK  status: ('A' for Active; 'I' for Inactive)
REMARK    1  A    between atoms: C_1  and  C_2
REMARK    2  A    between atoms: C_9  and  S_14
REMARK    3  A    between atoms: S_14  and  N_17
REMARK    4  A    between atoms: N_17  and  C_18
REMARK                            x       y       z     vdW  Elec       q    Type
REMARK                         _______ _______ _______ _____ _____    ______ ____
ROOT
ATOM      1  C   UNL     1       1.709   2.278   1.435  0.00  0.00    +0.029 C 
ATOM      2  C   UNL     1       1.302   1.937   0.000  0.00  0.00    +0.134 C 
ATOM      3  C   UNL     1      -0.014   1.209   0.009  0.00  0.00    +0.230 C 
ATOM      4  O   UNL     1       0.002  -0.004   0.002  0.00  0.00    -0.274 OA
ATOM      5  N   UNL     1      -1.195   1.821   0.018  0.00  0.00    -0.284 N 
ATOM      6  C   UNL     1      -1.410   3.197   0.043  0.00  0.00    +0.049 A 
ATOM      7  C   UNL     1      -2.627   3.693   0.496  0.00  0.00    +0.053 A 
ATOM      8  C   UNL     1      -2.860   5.054   0.514  0.00  0.00    +0.107 A 
ATOM      9  C   UNL     1      -1.888   5.938   0.082  0.00  0.00    +0.030 A 
ATOM     10  C   UNL     1      -0.672   5.458  -0.370  0.00  0.00    +0.018 A 
ATOM     11  C   UNL     1      -0.433   4.095  -0.389  0.00  0.00    +0.030 A 
ATOM     12  S   UNL     1       1.116   3.470  -0.961  0.00  0.00    -0.111 S 
ATOM     13  H   UNL     1      -1.983   1.255   0.011  0.00  0.00    +0.155 HD
ENDROOT
BRANCH   8  14
ATOM     14  S   UNL     1      -4.407   5.669   1.092  0.00  0.00    +0.059 S 
ATOM     15  O   UNL     1      -4.583   6.948   0.498  0.00  0.00    -0.153 OA
ATOM     16  O   UNL     1      -5.349   4.618   0.928  0.00  0.00    -0.153 OA
BRANCH  14  17
ATOM     17  N   UNL     1      -4.257   5.920   2.722  0.00  0.00    -0.187 NA
ATOM     18  H   UNL     1      -4.783   5.394   3.344  0.00  0.00    +0.148 HD
BRANCH  17  19
ATOM     19  C   UNL     1      -3.329   6.936   3.224  0.00  0.00    +0.077 C 
ATOM     20  C   UNL     1      -2.000   6.276   3.645  0.00  0.00    +0.020 C 
ATOM     21  C   UNL     1      -1.565   7.067   4.904  0.00  0.00    +0.002 C 
ATOM     22  C   UNL     1      -2.910   7.323   5.628  0.00  0.00    +0.002 C 
ATOM     23  C   UNL     1      -3.908   7.602   4.484  0.00  0.00    +0.020 C 
ENDBRANCH  17  19
ENDBRANCH  14  17
ENDBRANCH   8  14
TORSDOF 3
