REMARK  Name = ZINC59108837
REMARK  8 active torsions:
REMARK  status: ('A' for Active; 'I' for Inactive)
REMARK    1  A    between atoms: C_1  and  C_2
REMARK    2  A    between atoms: C_2  and  N_3
REMARK    3  A    between atoms: C_4  and  C_6
REMARK    4  A    between atoms: N_11  and  C_23
REMARK    5  A    between atoms: N_13  and  C_14
REMARK    6  A    between atoms: C_17  and  O_20
REMARK    7  A    between atoms: O_20  and  C_21
REMARK    8  A    between atoms: C_23  and  C_24
REMARK                            x       y       z     vdW  Elec       q    Type
REMARK                         _______ _______ _______ _____ _____    ______ ____
ROOT
ATOM      1  C   UNL     1      -3.585  -1.789   0.261  0.00  0.00    +0.148 C 
ATOM      2  C   UNL     1      -3.234  -3.226   0.651  0.00  0.00    +0.120 C 
ATOM      3  C   UNL     1      -4.333  -4.184   0.345  0.00  0.00    +0.223 C 
ATOM      4  O   UNL     1      -4.383  -5.169   1.051  0.00  0.00    -0.275 OA
ATOM      5  N   UNL     1      -5.262  -4.104  -0.594  0.00  0.00    -0.246 N 
ATOM      6  C   UNL     1      -5.458  -2.997  -1.402  0.00  0.00    +0.164 C 
ATOM      7  N   UNL     1      -6.566  -2.840  -2.087  0.00  0.00    -0.226 NA
ATOM      8  S   UNL     1      -4.153  -1.800  -1.472  0.00  0.00    -0.077 S 
ENDROOT
BRANCH   7   9
ATOM      9  C   UNL     1      -7.726  -3.432  -1.661  0.00  0.00    +0.067 A 
ATOM     10  C   UNL     1      -8.133  -3.298  -0.332  0.00  0.00    +0.031 A 
ATOM     11  C   UNL     1      -9.301  -3.895   0.093  0.00  0.00    +0.048 A 
ATOM     12  C   UNL     1     -10.072  -4.629  -0.798  0.00  0.00    +0.120 A 
ATOM     13  C   UNL     1      -9.671  -4.765  -2.120  0.00  0.00    +0.048 A 
ATOM     14  C   UNL     1      -8.507  -4.166  -2.555  0.00  0.00    +0.031 A 
BRANCH  12  15
ATOM     15  O   UNL     1     -11.222  -5.218  -0.374  0.00  0.00    -0.495 OA
ATOM     16  C   UNL     1     -12.026  -5.859  -1.367  0.00  0.00    +0.277 C 
ENDBRANCH  12  15
ENDBRANCH   7   9
BRANCH   1  18
ATOM     17  N   UNL     1      -2.499   0.371   0.782  0.00  0.00    -0.315 N 
ATOM     18  C   UNL     1      -2.367  -0.912   0.392  0.00  0.00    +0.227 C 
ATOM     19  O   UNL     1      -1.267  -1.362   0.146  0.00  0.00    -0.275 OA
ATOM     20  H   UNL     1      -3.378   0.730   0.979  0.00  0.00    +0.149 HD
BRANCH  17  22
ATOM     21  C   UNL     1      -1.738   2.621   1.364  0.00  0.00    +0.024 C 
ATOM     22  C   UNL     1      -1.314   1.223   0.910  0.00  0.00    +0.101 C 
ENDBRANCH  17  22
ENDBRANCH   1  18
BRANCH   5  23
ATOM     23  C   UNL     1      -6.140  -5.260  -0.792  0.00  0.00    +0.150 C 
BRANCH  23  24
ATOM     24  C   UNL     1      -5.309  -6.465  -1.153  0.00  0.00    -0.026 A 
ATOM     25  C   UNL     1      -4.926  -6.670  -2.466  0.00  0.00    +0.009 A 
ATOM     26  C   UNL     1      -4.164  -7.772  -2.802  0.00  0.00    +0.050 A 
ATOM     27  C   UNL     1      -3.782  -8.676  -1.824  0.00  0.00    +0.166 A 
ATOM     28  C   UNL     1      -4.168  -8.470  -0.502  0.00  0.00    +0.167 A 
ATOM     29  C   UNL     1      -4.927  -7.359  -0.171  0.00  0.00    +0.054 A 
ATOM     30  O   UNL     1      -3.673  -9.488   0.261  0.00  0.00    -0.453 OA
ATOM     31  C   UNL     1      -3.328 -10.532  -0.668  0.00  0.00    +0.466 C 
ATOM     32  O   UNL     1      -3.045  -9.823  -1.889  0.00  0.00    -0.453 OA
ENDBRANCH  23  24
ENDBRANCH   5  23
TORSDOF 6
