REMARK  Name = ZINC55014483
REMARK  6 active torsions:
REMARK  status: ('A' for Active; 'I' for Inactive)
REMARK    1  A    between atoms: C_1  and  C_2
REMARK    2  A    between atoms: C_2  and  C_3
REMARK    3  A    between atoms: C_2  and  C_4
REMARK    4  A    between atoms: C_2  and  C_5
REMARK    5  A    between atoms: C_6  and  C_22
REMARK    6  A    between atoms: C_22  and  O_23
REMARK                            x       y       z     vdW  Elec       q    Type
REMARK                         _______ _______ _______ _____ _____    ______ ____
ROOT
ATOM      1  C   UNL     1       1.134  -1.967  -2.064  0.00  0.00    +0.061 A 
ATOM      2  C   UNL     1       0.685  -1.156  -1.076  0.00  0.00    +0.040 A 
ATOM      3  S   UNL     1       1.028   0.448  -1.780  0.00  0.00    -0.055 S 
ATOM      4  C   UNL     1       1.697  -0.073  -3.234  0.00  0.00    +0.162 A 
ATOM      5  N   UNL     1       1.643  -1.385  -3.135  0.00  0.00    -0.229 NA
ATOM      6  N   UNL     1       2.189   0.692  -4.279  0.00  0.00    -0.302 N 
ATOM      7  C   UNL     1       2.074   2.161  -4.275  0.00  0.00    +0.135 C 
ATOM      8  C   UNL     1       1.484   2.616  -5.614  0.00  0.00    +0.179 C 
ATOM      9  O   UNL     1       2.220   2.031  -6.693  0.00  0.00    -0.373 OA
ATOM     10  C   UNL     1       2.174   0.606  -6.707  0.00  0.00    +0.139 C 
ATOM     11  C   UNL     1       2.853   0.073  -5.434  0.00  0.00    +0.104 C 
ATOM     12  C   UNL     1       2.710  -1.447  -5.394  0.00  0.00    +0.025 C 
ATOM     13  C   UNL     1       3.417  -2.044  -6.615  0.00  0.00    +0.002 C 
ATOM     14  C   UNL     1       2.794  -1.494  -7.899  0.00  0.00    +0.003 C 
ATOM     15  C   UNL     1       2.907   0.036  -7.919  0.00  0.00    +0.033 C 
ENDROOT
BRANCH   1  17
ATOM     16  C   UNL     1       1.785  -4.110  -3.129  0.00  0.00    +0.017 C 
ATOM     17  C   UNL     1       1.063  -3.468  -1.943  0.00  0.00    +0.005 C 
ATOM     18  C   UNL     1      -0.402  -3.910  -1.937  0.00  0.00    +0.017 C 
ATOM     19  C   UNL     1       1.734  -3.907  -0.640  0.00  0.00    +0.017 C 
ENDBRANCH   1  17
BRANCH   2  20
ATOM     20  C   UNL     1       0.065  -1.510   0.251  0.00  0.00    +0.200 C 
BRANCH  20  21
ATOM     21  O   UNL     1       1.074  -1.506   1.264  0.00  0.00    -0.390 OA
ATOM     22  H   UNL     1       0.746  -1.726   2.146  0.00  0.00    +0.210 HD
ENDBRANCH  20  21
ENDBRANCH   2  20
TORSDOF 3
