REMARK  Name = ZINC65330189
REMARK  5 active torsions:
REMARK  status: ('A' for Active; 'I' for Inactive)
REMARK    1  A    between atoms: C_7  and  C_10
REMARK    2  A    between atoms: C_10  and  C_11
REMARK    3  A    between atoms: C_11  and  N_12
REMARK    4  A    between atoms: C_13  and  C_15
REMARK    5  A    between atoms: C_17  and  N_22
REMARK                            x       y       z     vdW  Elec       q    Type
REMARK                         _______ _______ _______ _____ _____    ______ ____
ROOT
ATOM      1  C   UNL     1      -1.753  -6.559  -2.622  0.00  0.00    +0.187 C 
ATOM      2  C   UNL     1      -0.968  -7.825  -2.206  0.00  0.00    +0.176 C 
ATOM      3  S   UNL     1      -1.349  -8.966  -3.602  0.00  0.00    -0.041 S 
ATOM      4  N   UNL     1      -2.759  -8.068  -4.263  0.00  0.00    -0.198 NA
ATOM      5  N   UNL     1      -2.355  -6.685  -3.952  0.00  0.00    -0.232 NA
ATOM      6  H   UNL     1      -3.607  -8.317  -3.776  0.00  0.00    +0.154 HD
ATOM      7  H   UNL     1      -1.740  -6.319  -4.663  0.00  0.00    +0.142 HD
ENDROOT
BRANCH   2   8
ATOM      8  N   UNL     1       0.469  -7.550  -2.128  0.00  0.00    -0.284 N 
ATOM      9  C   UNL     1       1.185  -7.998  -1.077  0.00  0.00    +0.303 C 
ATOM     10  O   UNL     1       0.623  -8.549  -0.150  0.00  0.00    -0.253 OA
ATOM     11  N   UNL     1       2.522  -7.835  -1.054  0.00  0.00    -0.281 N 
ATOM     12  C   UNL     1       3.337  -8.416   0.025  0.00  0.00    +0.137 C 
ATOM     13  C   UNL     1       4.493  -9.198  -0.609  0.00  0.00    +0.179 C 
ATOM     14  O   UNL     1       5.177  -8.356  -1.539  0.00  0.00    -0.377 OA
ATOM     15  C   UNL     1       4.372  -7.920  -2.637  0.00  0.00    +0.179 C 
ATOM     16  C   UNL     1       3.211  -7.077  -2.110  0.00  0.00    +0.137 C 
ATOM     17  H   UNL     1       0.906  -7.046  -2.832  0.00  0.00    +0.151 HD
ENDBRANCH   2   8
BRANCH   1  19
ATOM     18  N   UNL     1      -0.462  -4.799  -1.458  0.00  0.00    -0.314 N 
ATOM     19  C   UNL     1      -0.813  -5.381  -2.622  0.00  0.00    +0.234 C 
ATOM     20  O   UNL     1      -0.373  -4.956  -3.669  0.00  0.00    -0.274 OA
ATOM     21  H   UNL     1      -0.814  -5.139  -0.620  0.00  0.00    +0.149 HD
BRANCH  18  22
ATOM     22  C   UNL     1       0.452  -3.654  -1.458  0.00  0.00    +0.108 C 
BRANCH  22  23
ATOM     23  C   UNL     1       0.684  -3.187  -0.019  0.00  0.00    +0.052 C 
BRANCH  23  30
ATOM     24  C   UNL     1      -0.028   1.346   0.018  0.00  0.00    +0.001 A 
ATOM     25  C   UNL     1       1.154   2.100   0.012  0.00  0.00    +0.002 A 
ATOM     26  C   UNL     1       2.380   1.536  -0.003  0.00  0.00    +0.026 A 
ATOM     27  C   UNL     1       2.519   0.120  -0.013  0.00  0.00    +0.043 A 
ATOM     28  N   UNL     1       3.578  -0.653  -0.029  0.00  0.00    -0.380 N 
ATOM     29  C   UNL     1       3.136  -2.052  -0.034  0.00  0.00    +0.144 C 
ATOM     30  C   UNL     1       1.624  -2.009  -0.019  0.00  0.00    -0.040 C 
ATOM     31  C   UNL     1       1.286  -0.699  -0.007  0.00  0.00    -0.001 A 
ATOM     32  C   UNL     1      -0.008  -0.006   0.009  0.00  0.00    +0.010 A 
ATOM     33  H   UNL     1       4.499  -0.350  -0.035  0.00  0.00    +0.160 HD
ENDBRANCH  23  30
ENDBRANCH  22  23
ENDBRANCH  18  22
ENDBRANCH   1  19
TORSDOF 5
