REMARK  Name = ZINC04855959
REMARK  5 active torsions:
REMARK  status: ('A' for Active; 'I' for Inactive)
REMARK    1  A    between atoms: C_1  and  C_2
REMARK    2  A    between atoms: C_2  and  C_3
REMARK    3  A    between atoms: C_9  and  N_22
REMARK    4  A    between atoms: C_10  and  C_20
REMARK    5  A    between atoms: C_11  and  C_13
REMARK                            x       y       z     vdW  Elec       q    Type
REMARK                         _______ _______ _______ _____ _____    ______ ____
ROOT
ATOM      1  C   UNL     1      -1.412  -0.526   0.013  0.00  0.00    +0.198 A 
ATOM      2  N   UNL     1      -2.135  -0.777  -1.045  0.00  0.00    -0.215 NA
ATOM      3  C   UNL     1      -3.329  -1.227  -0.648  0.00  0.00    +0.115 A 
ATOM      4  C   UNL     1      -3.332  -1.237   0.711  0.00  0.00    +0.216 A 
ATOM      5  O   UNL     1      -2.135  -0.802   1.114  0.00  0.00    -0.426 OA
ATOM      6  N   UNL     1      -4.444  -1.643   1.448  0.00  0.00    -0.272 N 
ATOM      7  C   UNL     1      -5.638  -1.786   0.776  0.00  0.00    +0.102 C 
ATOM      8  C   UNL     1      -5.716  -1.794  -0.577  0.00  0.00    +0.078 C 
ATOM      9  C   UNL     1      -4.512  -1.660  -1.472  0.00  0.00    +0.116 C 
ATOM     10  H   UNL     1      -4.378  -1.819   2.399  0.00  0.00    +0.156 HD
ENDROOT
BRANCH   9  11
ATOM     11  C   UNL     1      -4.216  -2.988  -2.119  0.00  0.00    -0.033 A 
ATOM     12  C   UNL     1      -3.928  -4.090  -1.335  0.00  0.00    +0.006 A 
ATOM     13  C   UNL     1      -3.661  -5.309  -1.929  0.00  0.00    +0.020 A 
ATOM     14  C   UNL     1      -3.672  -5.425  -3.307  0.00  0.00    +0.041 A 
ATOM     15  C   UNL     1      -3.955  -4.320  -4.091  0.00  0.00    +0.020 A 
ATOM     16  C   UNL     1      -4.227  -3.103  -3.497  0.00  0.00    +0.006 A 
ATOM     17 CL   UNL     1      -3.330  -6.955  -4.053  0.00  0.00    -0.084 Cl
ENDBRANCH   9  11
BRANCH   7  18
ATOM     18  N   UNL     1      -6.795  -1.927   1.506  0.00  0.00    -0.346 N 
ATOM     19  H   UNL     1      -7.645  -2.030   1.052  0.00  0.00    +0.144 HD
ATOM     20  H   UNL     1      -6.760  -1.924   2.475  0.00  0.00    +0.144 HD
ENDBRANCH   7  18
BRANCH   1  22
ATOM     21  C   UNL     1      -0.019   1.526   0.010  0.00  0.00    +0.013 C 
ATOM     22  C   UNL     1       0.002  -0.004   0.002  0.00  0.00    +0.093 C 
ENDBRANCH   1  22
BRANCH   8  23
ATOM     23  C   UNL     1      -7.004  -1.937  -1.185  0.00  0.00    +0.099 C 
ATOM     24  N   UNL     1      -8.027  -2.050  -1.668  0.00  0.00    -0.191 NA
ENDBRANCH   8  23
TORSDOF 4
