REMARK  Name = ZINC65490832
REMARK  1 active torsions:
REMARK  status: ('A' for Active; 'I' for Inactive)
REMARK    1  A    between atoms: C_10  and  C_12
REMARK                            x       y       z     vdW  Elec       q    Type
REMARK                         _______ _______ _______ _____ _____    ______ ____
ROOT
ATOM      1  C   UNL     1       4.713   0.864  -2.773  0.00  0.00    +0.204 C 
ATOM      2  N   UNL     1       6.134   0.452  -2.838  0.00  0.00    -0.278 NA
ATOM      3  C   UNL     1       6.081  -0.752  -3.700  0.00  0.00    +0.187 C 
ATOM      4  C   UNL     1       4.800  -0.604  -4.495  0.00  0.00    +0.041 C 
ATOM      5  N   UNL     1       4.073   0.307  -3.969  0.00  0.00    -0.269 NA
ATOM      6  C   UNL     1       4.445  -1.416  -5.714  0.00  0.00    +0.054 C 
ATOM      7  C   UNL     1       4.442  -2.906  -5.359  0.00  0.00    +0.025 C 
ATOM      8  C   UNL     1       5.830  -3.319  -4.867  0.00  0.00    +0.104 C 
ATOM      9  N   UNL     1       5.897  -3.189  -3.412  0.00  0.00    -0.314 N 
ATOM     10  C   UNL     1       5.986  -1.981  -2.824  0.00  0.00    +0.236 C 
ATOM     11  O   UNL     1       5.971  -1.879  -1.615  0.00  0.00    -0.274 OA
ATOM     12  H   UNL     1       6.700   1.173  -3.260  0.00  0.00    +0.125 HD
ATOM     13  H   UNL     1       5.891  -3.987  -2.861  0.00  0.00    +0.149 HD
ENDROOT
BRANCH   1  23
ATOM     14  C   UNL     1      -0.018   1.504   0.010  0.00  0.00    +0.001 C 
ATOM     15  C   UNL     1       1.322   2.199   0.001  0.00  0.00    +0.004 C 
ATOM     16  C   UNL     1       1.993   2.070  -1.377  0.00  0.00    +0.035 C 
ATOM     17  C   UNL     1       2.605   0.687  -1.442  0.00  0.00    -0.017 C 
ATOM     18  C   UNL     1       1.932  -0.456  -1.452  0.00  0.00    +0.065 C 
ATOM     19  C   UNL     1       0.415  -0.549  -1.372  0.00  0.00    +0.057 C 
ATOM     20  C   UNL     1       0.002  -0.004   0.002  0.00  0.00    +0.006 C 
ATOM     21  N   UNL     1       2.791  -1.498  -1.538  0.00  0.00    -0.158 NA
ATOM     22  N   UNL     1       3.985  -1.177  -1.575  0.00  0.00    -0.176 NA
ATOM     23  C   UNL     1       4.057   0.297  -1.512  0.00  0.00    +0.195 C 
ENDBRANCH   1  23
TORSDOF 1
