REMARK  Name = ZINC47525436
REMARK  10 active torsions:
REMARK  status: ('A' for Active; 'I' for Inactive)
REMARK    1  A    between atoms: C_1  and  C_2
REMARK    2  A    between atoms: C_2  and  C_3
REMARK    3  A    between atoms: C_3  and  C_5
REMARK    4  A    between atoms: C_3  and  N_6
REMARK    5  A    between atoms: C_7  and  C_9
REMARK    6  A    between atoms: C_9  and  C_10
REMARK    7  A    between atoms: C_10  and  N_11
REMARK    8  A    between atoms: N_14  and  C_15
REMARK    9  A    between atoms: C_18  and  C_25
REMARK   10  A    between atoms: N_20  and  C_24
REMARK                            x       y       z     vdW  Elec       q    Type
REMARK                         _______ _______ _______ _____ _____    ______ ____
ROOT
ATOM      1  N   UNL     1      -0.077   0.890  -7.244  0.00  0.00    -0.299 N 
ATOM      2  C   UNL     1       0.540   1.038  -8.433  0.00  0.00    +0.304 C 
ATOM      3  O   UNL     1       1.738   0.852  -8.524  0.00  0.00    -0.253 OA
ATOM      4  N   UNL     1      -0.171   1.391  -9.522  0.00  0.00    -0.268 N 
ATOM      5  H   UNL     1      -1.033   1.038  -7.172  0.00  0.00    +0.150 HD
ATOM      6  H   UNL     1      -1.136   1.473  -9.466  0.00  0.00    +0.156 HD
ENDROOT
BRANCH   4   7
ATOM      7  C   UNL     1       0.484   1.641 -10.736  0.00  0.00    +0.054 A 
ATOM      8  C   UNL     1       1.603   0.905 -11.092  0.00  0.00    +0.038 A 
ATOM      9  C   UNL     1       2.218   1.194 -12.315  0.00  0.00    +0.043 A 
ATOM     10  C   UNL     1       3.378   0.661 -13.021  0.00  0.00    +0.069 A 
ATOM     11  N   UNL     1       3.495   1.315 -14.141  0.00  0.00    -0.174 NA
ATOM     12  N   UNL     1       2.481   2.272 -14.247  0.00  0.00    -0.249 N 
ATOM     13  C   UNL     1       1.686   2.211 -13.133  0.00  0.00    +0.158 A 
ATOM     14  N   UNL     1       0.611   2.884 -12.742  0.00  0.00    -0.234 NA
ATOM     15  C   UNL     1       0.012   2.628 -11.600  0.00  0.00    +0.136 A 
ATOM     16  C   UNL     1       2.297   3.193 -15.372  0.00  0.00    +0.174 C 
ATOM     17  C   UNL     1       4.278  -0.448 -12.541  0.00  0.00    +0.068 C 
ENDBRANCH   4   7
BRANCH   1  18
ATOM     18  C   UNL     1       0.696   0.505  -6.061  0.00  0.00    +0.115 C 
BRANCH  18  19
ATOM     19  C   UNL     1      -0.237   0.407  -4.852  0.00  0.00    +0.114 C 
BRANCH  19  21
ATOM     20  N   UNL     1      -0.059  -0.137  -2.445  0.00  0.00    -0.313 N 
ATOM     21  C   UNL     1       0.558   0.011  -3.634  0.00  0.00    +0.215 C 
ATOM     22  O   UNL     1       1.754  -0.173  -3.725  0.00  0.00    -0.276 OA
ATOM     23  H   UNL     1      -1.014   0.011  -2.373  0.00  0.00    +0.149 HD
BRANCH  20  24
ATOM     24  C   UNL     1       0.715  -0.521  -1.262  0.00  0.00    +0.070 C 
ATOM     25  C   UNL     1       0.852  -2.044  -1.215  0.00  0.00    +0.028 C 
BRANCH  24  27
ATOM     26  C   UNL     1      -0.032   1.495   0.011  0.00  0.00    +0.005 C 
ATOM     27  C   UNL     1      -0.005  -0.035  -0.002  0.00  0.00    +0.018 C 
ENDBRANCH  24  27
ENDBRANCH  20  24
ENDBRANCH  19  21
ENDBRANCH  18  19
ENDBRANCH   1  18
TORSDOF 6
