REMARK  Name = ZINC08013431
REMARK  7 active torsions:
REMARK  status: ('A' for Active; 'I' for Inactive)
REMARK    1  A    between atoms: C_7  and  C_13
REMARK    2  A    between atoms: C_13  and  C_14
REMARK    3  A    between atoms: C_14  and  O_16
REMARK    4  A    between atoms: O_16  and  C_17
REMARK    5  A    between atoms: C_17  and  C_18
REMARK    6  A    between atoms: N_20  and  C_21
REMARK    7  A    between atoms: C_22  and  C_29
REMARK                            x       y       z     vdW  Elec       q    Type
REMARK                         _______ _______ _______ _____ _____    ______ ____
ROOT
ATOM      1  O   UNL     1      -6.207   3.722   0.079  0.00  0.00    -0.455 OA
ENDROOT
BRANCH   1   2
ATOM      2  C   UNL     1      -4.934   4.148   0.070  0.00  0.00    +0.313 C 
ATOM      3  O   UNL     1      -4.693   5.332   0.074  0.00  0.00    -0.250 OA
BRANCH   2   4
ATOM      4  C   UNL     1      -3.805   3.150   0.054  0.00  0.00    +0.178 C 
BRANCH   4  11
ATOM      5  C   UNL     1      -0.013   1.076   0.008  0.00  0.00    +0.001 A 
ATOM      6  C   UNL     1       1.186   1.777   0.000  0.00  0.00    +0.001 A 
ATOM      7  C   UNL     1       1.195   3.155   0.008  0.00  0.00    +0.014 A 
ATOM      8  C   UNL     1      -0.015   3.847   0.023  0.00  0.00    +0.050 A 
ATOM      9  C   UNL     1      -1.233   3.130   0.031  0.00  0.00    +0.011 A 
ATOM     10  C   UNL     1      -1.211   1.734   0.017  0.00  0.00    +0.010 A 
ATOM     11  C   UNL     1      -2.487   3.882   0.046  0.00  0.00    +0.080 A 
ATOM     12  N   UNL     1      -2.466   5.181   0.052  0.00  0.00    -0.175 NA
ATOM     13  N   UNL     1      -1.280   5.916   0.045  0.00  0.00    -0.242 N 
ATOM     14  H   UNL     1      -1.326   6.915   0.051  0.00  0.00    +0.192 HD
ATOM     15  C   UNL     1      -0.072   5.314   0.031  0.00  0.00    +0.272 A 
ATOM     16  O   UNL     1       0.951   5.975   0.025  0.00  0.00    -0.266 OA
ENDBRANCH   4  11
ENDBRANCH   2   4
ENDBRANCH   1   2
BRANCH   1  17
ATOM     17  C   UNL     1      -7.242   4.739   0.094  0.00  0.00    +0.328 C 
BRANCH  17  18
ATOM     18  C   UNL     1      -8.596   4.077   0.103  0.00  0.00    +0.255 C 
ATOM     19  O   UNL     1      -8.680   2.867   0.097  0.00  0.00    -0.272 OA
ATOM     20  N   UNL     1      -9.714   4.830   0.117  0.00  0.00    -0.276 N 
ATOM     21  H   UNL     1      -9.647   5.798   0.122  0.00  0.00    +0.155 HD
BRANCH  20  22
ATOM     22  C   UNL     1     -10.961   4.220   0.125  0.00  0.00    +0.090 A 
ATOM     23  C   UNL     1     -12.209   4.816   0.146  0.00  0.00    +0.084 A 
ATOM     24  C   UNL     1     -13.379   3.940   0.146  0.00  0.00    -0.018 A 
ATOM     25  C   UNL     1     -13.105   2.622   0.136  0.00  0.00    -0.004 A 
ATOM     26  S   UNL     1     -11.332   2.530   0.120  0.00  0.00    -0.077 S 
ATOM     27  C   UNL     1     -14.357   1.786   0.141  0.00  0.00    +0.043 C 
ATOM     28  C   UNL     1     -15.478   2.761  -0.282  0.00  0.00    +0.010 C 
ATOM     29  C   UNL     1     -14.898   4.119   0.163  0.00  0.00    +0.037 C 
BRANCH  23  30
ATOM     30  C   UNL     1     -12.351   6.241   0.162  0.00  0.00    +0.102 C 
ATOM     31  N   UNL     1     -12.462   7.372   0.174  0.00  0.00    -0.191 NA
ENDBRANCH  23  30
ENDBRANCH  20  22
ENDBRANCH  17  18
ENDBRANCH   1  17
TORSDOF 7
