REMARK  Name = ZINC59387757
REMARK  8 active torsions:
REMARK  status: ('A' for Active; 'I' for Inactive)
REMARK    1  A    between atoms: C_1  and  C_2
REMARK    2  A    between atoms: C_8  and  N_10
REMARK    3  A    between atoms: C_14  and  C_16
REMARK    4  A    between atoms: C_16  and  N_17
REMARK    5  A    between atoms: N_17  and  C_18
REMARK    6  A    between atoms: N_17  and  C_19
REMARK    7  A    between atoms: C_19  and  C_21
REMARK    8  A    between atoms: C_19  and  C_22
REMARK                            x       y       z     vdW  Elec       q    Type
REMARK                         _______ _______ _______ _____ _____    ______ ____
ROOT
ATOM      1  N   UNL     1       0.056  -0.038   2.447  0.00  0.00    -0.296 N 
ATOM      2  C   UNL     1       0.738   0.093   3.602  0.00  0.00    +0.306 C 
ATOM      3  O   UNL     1       1.921  -0.180   3.644  0.00  0.00    -0.252 OA
ATOM      4  N   UNL     1       0.107   0.528   4.711  0.00  0.00    -0.239 N 
ATOM      5  C   UNL     1       0.789   0.659   5.866  0.00  0.00    +0.234 C 
ATOM      6  O   UNL     1       1.969   0.387   5.908  0.00  0.00    -0.274 OA
ATOM      7  H   UNL     1      -0.888   0.180   2.413  0.00  0.00    +0.151 HD
ATOM      8  H   UNL     1      -0.838   0.746   4.678  0.00  0.00    +0.159 HD
ENDROOT
BRANCH   1  15
ATOM      9  C   UNL     1      -0.019   1.526   0.010  0.00  0.00    +0.009 C 
ATOM     10  C   UNL     1       0.002  -0.004   0.002  0.00  0.00    +0.006 C 
ATOM     11  C   UNL     1       0.718  -0.497  -1.257  0.00  0.00    +0.005 C 
ATOM     12  C   UNL     1       0.739  -2.027  -1.265  0.00  0.00    +0.000 C 
ATOM     13  C   UNL     1       1.479  -2.534  -0.026  0.00  0.00    +0.002 C 
ATOM     14  C   UNL     1       0.763  -2.041   1.233  0.00  0.00    +0.022 C 
ATOM     15  C   UNL     1       0.742  -0.511   1.242  0.00  0.00    +0.077 C 
ENDBRANCH   1  15
BRANCH   5  16
ATOM     16  C   UNL     1       0.083   1.145   7.106  0.00  0.00    +0.181 C 
BRANCH  16  17
ATOM     17  N   UNL     1       1.037   1.202   8.222  0.00  0.00    -0.290 NA
ATOM     18  C   UNL     1       2.067   2.222   7.983  0.00  0.00    +0.106 C 
BRANCH  17  19
ATOM     19  C   UNL     1       0.344   1.441   9.495  0.00  0.00    +0.087 C 
ATOM     20  C   UNL     1      -0.649   0.307   9.756  0.00  0.00    +0.029 C 
BRANCH  19  21
ATOM     21  C   UNL     1       1.353   1.492  10.614  0.00  0.00    +0.007 A 
ATOM     22  C   UNL     1       2.606   0.936  10.440  0.00  0.00    +0.046 A 
ATOM     23  C   UNL     1       3.533   0.984  11.467  0.00  0.00    +0.124 A 
ATOM     24  C   UNL     1       3.204   1.588  12.669  0.00  0.00    +0.041 A 
ATOM     25  C   UNL     1       1.951   2.144  12.843  0.00  0.00    +0.041 A 
ATOM     26  C   UNL     1       1.026   2.101  11.813  0.00  0.00    +0.128 A 
ATOM     27  F   UNL     1      -0.197   2.649  11.981  0.00  0.00    -0.205 F 
ATOM     28  F   UNL     1       4.758   0.440  11.298  0.00  0.00    -0.205 F 
ENDBRANCH  19  21
ENDBRANCH  17  19
ENDBRANCH  16  17
ENDBRANCH   5  16
TORSDOF 5
