REMARK  Name = ZINC06743462
REMARK  9 active torsions:
REMARK  status: ('A' for Active; 'I' for Inactive)
REMARK    1  A    between atoms: C_1  and  C_2
REMARK    2  A    between atoms: C_2  and  C_3
REMARK    3  A    between atoms: C_6  and  N_9
REMARK    4  A    between atoms: C_10  and  C_12
REMARK    5  A    between atoms: N_17  and  C_19
REMARK    6  A    between atoms: C_19  and  C_21
REMARK    7  A    between atoms: C_19  and  C_22
REMARK    8  A    between atoms: C_22  and  O_23
REMARK    9  A    between atoms: O_23  and  C_24
REMARK                            x       y       z     vdW  Elec       q    Type
REMARK                         _______ _______ _______ _____ _____    ______ ____
ROOT
ATOM      1  N   UNL     1      -1.370   0.848   3.527  0.00  0.00    -0.285 N 
ATOM      2  C   UNL     1      -0.758   0.582   2.356  0.00  0.00    +0.222 C 
ATOM      3  O   UNL     1      -0.198  -0.481   2.193  0.00  0.00    -0.275 OA
ATOM      4  H   UNL     1      -1.760   1.723   3.683  0.00  0.00    +0.155 HD
ENDROOT
BRANCH   1   8
ATOM      5  C   UNL     1      -1.588  -2.085   6.478  0.00  0.00    -0.048 A 
ATOM      6  C   UNL     1      -0.470  -2.002   5.668  0.00  0.00    +0.005 A 
ATOM      7  C   UNL     1      -0.395  -1.031   4.689  0.00  0.00    +0.023 A 
ATOM      8  C   UNL     1      -1.444  -0.137   4.518  0.00  0.00    +0.033 A 
ATOM      9  C   UNL     1      -2.563  -0.220   5.335  0.00  0.00    +0.023 A 
ATOM     10  C   UNL     1      -2.635  -1.196   6.309  0.00  0.00    +0.005 A 
BRANCH   5  12
ATOM     11  C   UNL     1      -1.079  -2.603   8.849  0.00  0.00    +0.009 C 
ATOM     12  C   UNL     1      -1.667  -3.146   7.545  0.00  0.00    +0.032 C 
ENDBRANCH   5  12
ENDBRANCH   1   8
BRANCH   2  13
ATOM     13  C   UNL     1      -0.769   1.606   1.251  0.00  0.00    +0.101 C 
ATOM     14  C   UNL     1      -2.198   1.799   0.686  0.00  0.00    +0.110 C 
ATOM     15  C   UNL     1      -1.987   2.002  -0.798  0.00  0.00    +0.217 C 
ATOM     16  O   UNL     1      -2.811   2.460  -1.561  0.00  0.00    -0.276 OA
ATOM     17  N   UNL     1      -0.753   1.600  -1.148  0.00  0.00    -0.296 N 
ATOM     18  C   UNL     1      -0.010   1.087   0.009  0.00  0.00    +0.121 C 
BRANCH  17  19
ATOM     19  C   UNL     1      -0.218   1.665  -2.511  0.00  0.00    +0.099 C 
ATOM     20  C   UNL     1      -0.215   3.119  -2.989  0.00  0.00    +0.030 C 
BRANCH  19  21
ATOM     21  C   UNL     1      -1.092   0.824  -3.443  0.00  0.00    +0.181 C 
BRANCH  21  22
ATOM     22  O   UNL     1      -2.397   1.400  -3.521  0.00  0.00    -0.381 OA
ATOM     23  C   UNL     1      -3.298   0.687  -4.371  0.00  0.00    +0.194 C 
ENDBRANCH  21  22
ENDBRANCH  19  21
ENDBRANCH  17  19
ENDBRANCH   2  13
TORSDOF 6
