REMARK  Name = ZINC52001236
REMARK  4 active torsions:
REMARK  status: ('A' for Active; 'I' for Inactive)
REMARK    1  A    between atoms: C_1  and  C_2
REMARK    2  A    between atoms: C_3  and  C_7
REMARK    3  A    between atoms: N_9  and  C_10
REMARK    4  A    between atoms: C_16  and  O_18
REMARK                            x       y       z     vdW  Elec       q    Type
REMARK                         _______ _______ _______ _____ _____    ______ ____
ROOT
ATOM      1  C   UNL     1      -0.006  -0.306  -2.574  0.00  0.00    +0.254 C 
ATOM      2  O   UNL     1      -0.024   0.881  -2.836  0.00  0.00    -0.270 OA
ATOM      3  N   UNL     1       0.001  -1.216  -3.568  0.00  0.00    -0.306 N 
ATOM      4  H   UNL     1       0.015  -2.163  -3.360  0.00  0.00    +0.149 HD
ENDROOT
BRANCH   1   7
ATOM      5  C   UNL     1      -0.018   1.503   0.010  0.00  0.00    +0.069 C 
ATOM      6  C   UNL     1       0.002  -0.004   0.002  0.00  0.00    +0.081 A 
ATOM      7  C   UNL     1       0.006  -0.750  -1.171  0.00  0.00    +0.117 A 
ATOM      8  S   UNL     1       0.032  -2.401  -0.490  0.00  0.00    +0.041 S 
ATOM      9  N   UNL     1       0.035  -2.005   1.082  0.00  0.00    -0.110 NA
ATOM     10  N   UNL     1       0.023  -0.719   1.099  0.00  0.00    -0.146 NA
ENDBRANCH   1   7
BRANCH   3  11
ATOM     11  C   UNL     1      -0.011  -0.774  -4.965  0.00  0.00    +0.102 C 
ATOM     12  C   UNL     1      -1.454  -0.520  -5.406  0.00  0.00    +0.025 C 
ATOM     13  C   UNL     1      -2.264  -1.811  -5.273  0.00  0.00    +0.002 C 
ATOM     14  C   UNL     1      -1.643  -2.895  -6.157  0.00  0.00    +0.003 C 
ATOM     15  C   UNL     1      -0.201  -3.150  -5.715  0.00  0.00    +0.033 C 
ATOM     16  C   UNL     1       0.609  -1.858  -5.849  0.00  0.00    +0.135 C 
BRANCH  16  17
ATOM     17  O   UNL     1       1.956  -2.095  -5.437  0.00  0.00    -0.390 OA
ATOM     18  H   UNL     1       2.412  -2.773  -5.954  0.00  0.00    +0.210 HD
ENDBRANCH  16  17
ENDBRANCH   3  11
TORSDOF 3
