REMARK  Name = ZINC62924100
REMARK  6 active torsions:
REMARK  status: ('A' for Active; 'I' for Inactive)
REMARK    1  A    between atoms: C_1  and  C_2
REMARK    2  A    between atoms: C_2  and  C_3
REMARK    3  A    between atoms: C_3  and  C_19
REMARK    4  A    between atoms: N_10  and  C_11
REMARK    5  A    between atoms: N_10  and  C_13
REMARK    6  A    between atoms: C_11  and  C_12
REMARK                            x       y       z     vdW  Elec       q    Type
REMARK                         _______ _______ _______ _____ _____    ______ ____
ROOT
ATOM      1  C   UNL     1       2.705  -0.253   3.276  0.00  0.00    +0.089 C 
ATOM      2  C   UNL     1       1.236  -0.733   3.325  0.00  0.00    +0.039 C 
ATOM      3  C   UNL     1       1.031  -1.355   1.920  0.00  0.00    +0.110 C 
ATOM      4  N   UNL     1       2.331  -2.008   1.644  0.00  0.00    -0.284 N 
ATOM      5  C   UNL     1       3.363  -1.091   2.164  0.00  0.00    +0.127 C 
ATOM      6  C   UNL     1       2.531  -3.197   1.043  0.00  0.00    +0.305 C 
ATOM      7  O   UNL     1       1.583  -3.911   0.777  0.00  0.00    -0.252 OA
ATOM      8  N   UNL     1       3.781  -3.595   0.735  0.00  0.00    -0.283 N 
ENDROOT
BRANCH   8   9
ATOM      9  C   UNL     1       3.992  -4.843  -0.004  0.00  0.00    +0.078 C 
ATOM     10  C   UNL     1       3.287  -4.759  -1.359  0.00  0.00    +0.022 C 
ATOM     11  C   UNL     1       3.507  -6.062  -2.130  0.00  0.00    +0.002 C 
ATOM     12  C   UNL     1       2.933  -7.232  -1.328  0.00  0.00    +0.000 C 
ATOM     13  C   UNL     1       3.638  -7.316   0.027  0.00  0.00    +0.002 C 
ATOM     14  C   UNL     1       3.418  -6.013   0.798  0.00  0.00    +0.022 C 
ENDBRANCH   8   9
BRANCH   1  15
ATOM     15  C   UNL     1       2.768   1.213   2.935  0.00  0.00    +0.364 C 
ATOM     16  O   UNL     1       3.329   1.991   3.688  0.00  0.00    -0.246 OA
ATOM     17  O   UNL     1       2.259   1.621   1.905  0.00  0.00    -0.246 OA
ENDBRANCH   1  15
BRANCH   1  19
ATOM     18  C   UNL     1       2.727   0.325   5.707  0.00  0.00    +0.005 C 
ATOM     19  C   UNL     1       3.395  -0.516   4.617  0.00  0.00    +0.016 C 
ENDBRANCH   1  19
BRANCH   8  20
ATOM     20  C   UNL     1       4.930  -2.780   1.139  0.00  0.00    +0.106 C 
ATOM     21  C   UNL     1       5.343  -3.152   2.564  0.00  0.00    +0.024 C 
ENDBRANCH   8  20
TORSDOF 4
