REMARK  Name = ZINC63655777
REMARK  5 active torsions:
REMARK  status: ('A' for Active; 'I' for Inactive)
REMARK    1  A    between atoms: C_7  and  C_10
REMARK    2  A    between atoms: C_10  and  C_11
REMARK    3  A    between atoms: C_11  and  N_12
REMARK    4  A    between atoms: C_13  and  C_15
REMARK    5  A    between atoms: N_18  and  C_21
REMARK                            x       y       z     vdW  Elec       q    Type
REMARK                         _______ _______ _______ _____ _____    ______ ____
ROOT
ATOM      1  N   UNL     1      -0.458  -4.798  -1.460  0.00  0.00    -0.315 N 
ATOM      2  C   UNL     1      -0.811  -5.380  -2.623  0.00  0.00    +0.216 C 
ATOM      3  O   UNL     1      -0.371  -4.957  -3.671  0.00  0.00    -0.276 OA
ATOM      4  H   UNL     1      -0.810  -5.136  -0.622  0.00  0.00    +0.149 HD
ENDROOT
BRANCH   2   5
ATOM      5  C   UNL     1      -1.752  -6.557  -2.622  0.00  0.00    +0.077 C 
ATOM      6  C   UNL     1      -1.137  -7.703  -1.813  0.00  0.00    +0.028 C 
ATOM      7  C   UNL     1      -2.068  -8.916  -1.866  0.00  0.00    +0.088 C 
ATOM      8  N   UNL     1      -2.261  -9.326  -3.263  0.00  0.00    -0.276 NA
ATOM      9  C   UNL     1      -2.894  -8.259  -4.048  0.00  0.00    +0.088 C 
ATOM     10  C   UNL     1      -1.987  -7.027  -4.060  0.00  0.00    +0.028 C 
BRANCH   8  11
ATOM     11  C   UNL     1      -3.038 -10.571  -3.344  0.00  0.00    +0.208 C 
ATOM     12  N   UNL     1      -3.199 -11.004  -4.739  0.00  0.00    -0.318 N 
ATOM     13  C   UNL     1      -4.494 -11.073  -5.244  0.00  0.00    +0.061 A 
ATOM     14  C   UNL     1      -4.851 -11.464  -6.548  0.00  0.00    +0.027 A 
ATOM     15  C   UNL     1      -6.184 -11.486  -6.911  0.00  0.00    +0.022 A 
ATOM     16  C   UNL     1      -7.157 -11.127  -6.001  0.00  0.00    +0.112 A 
ATOM     17  N   UNL     1      -6.813 -10.761  -4.778  0.00  0.00    -0.247 NA
ATOM     18  C   UNL     1      -5.555 -10.729  -4.397  0.00  0.00    +0.121 A 
ATOM     19  S   UNL     1      -4.786 -10.291  -2.852  0.00  0.00    -0.066 S 
ATOM     20  H   UNL     1      -2.432 -11.232  -5.286  0.00  0.00    +0.148 HD
ENDBRANCH   8  11
ENDBRANCH   2   5
BRANCH   1  21
ATOM     21  C   UNL     1       0.457  -3.653  -1.462  0.00  0.00    +0.108 C 
BRANCH  21  22
ATOM     22  C   UNL     1       0.691  -3.186  -0.024  0.00  0.00    +0.052 C 
BRANCH  22  29
ATOM     23  C   UNL     1      -0.016   1.348   0.009  0.00  0.00    +0.001 A 
ATOM     24  C   UNL     1       1.166   2.101   0.002  0.00  0.00    +0.002 A 
ATOM     25  C   UNL     1       2.391   1.535  -0.013  0.00  0.00    +0.026 A 
ATOM     26  C   UNL     1       2.529   0.120  -0.022  0.00  0.00    +0.043 A 
ATOM     27  N   UNL     1       3.587  -0.654  -0.037  0.00  0.00    -0.380 N 
ATOM     28  C   UNL     1       3.143  -2.053  -0.041  0.00  0.00    +0.144 C 
ATOM     29  C   UNL     1       1.631  -2.008  -0.025  0.00  0.00    -0.040 C 
ATOM     30  C   UNL     1       1.295  -0.698  -0.014  0.00  0.00    -0.001 A 
ATOM     31  C   UNL     1       0.002  -0.004   0.002  0.00  0.00    +0.010 A 
ATOM     32  H   UNL     1       4.509  -0.353  -0.045  0.00  0.00    +0.160 HD
ENDBRANCH  22  29
ENDBRANCH  21  22
ENDBRANCH   1  21
TORSDOF 5
