REMARK  Name = ZINC39325780
REMARK  9 active torsions:
REMARK  status: ('A' for Active; 'I' for Inactive)
REMARK    1  A    between atoms: C_1  and  C_2
REMARK    2  A    between atoms: C_2  and  C_3
REMARK    3  A    between atoms: C_2  and  O_4
REMARK    4  A    between atoms: O_4  and  C_5
REMARK    5  A    between atoms: C_8  and  C_13
REMARK    6  A    between atoms: C_10  and  O_11
REMARK    7  A    between atoms: O_11  and  C_12
REMARK    8  A    between atoms: C_28  and  N_32
REMARK    9  A    between atoms: C_29  and  C_30
REMARK                            x       y       z     vdW  Elec       q    Type
REMARK                         _______ _______ _______ _____ _____    ______ ____
ROOT
ATOM      1  C   UNL     1      -2.336  -5.229  -2.885  0.00  0.00    +0.084 C 
ATOM      2  C   UNL     1      -1.575  -6.391  -2.239  0.00  0.00    +0.154 C 
ATOM      3  C   UNL     1      -0.125  -6.203  -2.653  0.00  0.00    +0.129 C 
ATOM      4  C   UNL     1       0.824  -6.050  -1.653  0.00  0.00    +0.035 A 
ATOM      5  C   UNL     1       2.191  -5.890  -1.959  0.00  0.00    +0.013 A 
ATOM      6  C   UNL     1       3.093  -5.748  -0.950  0.00  0.00    +0.001 A 
ATOM      7  C   UNL     1       2.695  -5.757   0.383  0.00  0.00    +0.002 A 
ATOM      8  C   UNL     1       1.389  -5.904   0.741  0.00  0.00    +0.024 A 
ATOM      9  C   UNL     1       0.402  -6.054  -0.247  0.00  0.00    +0.044 A 
ATOM     10  N   UNL     1      -0.882  -6.191   0.105  0.00  0.00    -0.284 N 
ATOM     11  C   UNL     1      -1.884  -6.362  -0.759  0.00  0.00    +0.229 C 
ATOM     12  O   UNL     1      -3.032  -6.484  -0.373  0.00  0.00    -0.275 OA
ATOM     13  O   UNL     1       0.168  -6.180  -3.955  0.00  0.00    -0.444 OA
ATOM     14  C   UNL     1      -0.690  -5.508  -4.758  0.00  0.00    +0.198 C 
ATOM     15  C   UNL     1      -1.877  -5.050  -4.306  0.00  0.00    +0.095 C 
ATOM     16  H   UNL     1      -1.101  -6.172   1.050  0.00  0.00    +0.155 HD
ENDROOT
BRANCH   1  20
ATOM     17  C   UNL     1      -1.580  -1.640  -0.687  0.00  0.00    +0.162 A 
ATOM     18  C   UNL     1      -0.532  -2.329  -1.276  0.00  0.00    +0.050 A 
ATOM     19  C   UNL     1      -0.780  -3.489  -1.986  0.00  0.00    +0.008 A 
ATOM     20  C   UNL     1      -2.072  -3.964  -2.110  0.00  0.00    -0.034 A 
ATOM     21  C   UNL     1      -3.122  -3.282  -1.525  0.00  0.00    +0.053 A 
ATOM     22  C   UNL     1      -2.880  -2.122  -0.807  0.00  0.00    +0.162 A 
BRANCH  22  23
ATOM     23  O   UNL     1      -3.912  -1.452  -0.226  0.00  0.00    -0.491 OA
ATOM     24  C   UNL     1      -5.219  -2.005  -0.391  0.00  0.00    +0.277 C 
ENDBRANCH  22  23
BRANCH  17  25
ATOM     25  O   UNL     1      -1.339  -0.499   0.012  0.00  0.00    -0.486 OA
BRANCH  25  27
ATOM     26  C   UNL     1      -0.011   1.505   0.263  0.00  0.00    +0.051 C 
ATOM     27  C   UNL     1       0.001  -0.002  -0.000  0.00  0.00    +0.167 C 
ATOM     28  C   UNL     1       0.815  -0.703   1.089  0.00  0.00    +0.051 C 
ENDBRANCH  25  27
ENDBRANCH  17  25
ENDBRANCH   1  20
BRANCH  14  29
ATOM     29  N   UNL     1      -0.343  -5.284  -6.067  0.00  0.00    -0.328 N 
ATOM     30  H   UNL     1       0.508  -5.606  -6.405  0.00  0.00    +0.145 HD
ATOM     31  H   UNL     1      -0.947  -4.803  -6.654  0.00  0.00    +0.145 HD
ENDBRANCH  14  29
BRANCH  15  32
ATOM     32  C   UNL     1      -2.737  -4.364  -5.222  0.00  0.00    +0.100 C 
ATOM     33  N   UNL     1      -3.420  -3.819  -5.949  0.00  0.00    -0.191 NA
ENDBRANCH  15  32
TORSDOF 6
