REMARK  Name = ZINC40915871
REMARK  7 active torsions:
REMARK  status: ('A' for Active; 'I' for Inactive)
REMARK    1  A    between atoms: C_1  and  C_2
REMARK    2  A    between atoms: C_3  and  C_22
REMARK    3  A    between atoms: C_4  and  C_12
REMARK    4  A    between atoms: C_15  and  O_18
REMARK    5  A    between atoms: O_18  and  C_19
REMARK    6  A    between atoms: C_19  and  C_20
REMARK    7  A    between atoms: C_19  and  C_21
REMARK                            x       y       z     vdW  Elec       q    Type
REMARK                         _______ _______ _______ _____ _____    ______ ____
ROOT
ATOM      1  C   UNL     1      -0.994   2.367   0.566  0.00  0.00    +0.061 C 
ATOM      2  C   UNL     1      -0.762   0.888   0.395  0.00  0.00    +0.018 C 
ATOM      3  C   UNL     1      -1.822   0.067   0.349  0.00  0.00    +0.060 C 
ATOM      4  C   UNL     1      -1.699  -1.426   0.194  0.00  0.00    +0.177 C 
ATOM      5  N   UNL     1      -0.329  -1.764  -0.182  0.00  0.00    -0.221 N 
ATOM      6  C   UNL     1       0.703  -0.887  -0.126  0.00  0.00    +0.218 A 
ATOM      7  N   UNL     1       1.781  -1.508  -0.520  0.00  0.00    -0.201 NA
ATOM      8  C   UNL     1       1.479  -2.770  -0.838  0.00  0.00    +0.247 A 
ATOM      9  N   UNL     1       0.198  -2.968  -0.647  0.00  0.00    -0.156 NA
ATOM     10  N   UNL     1       0.527   0.426   0.285  0.00  0.00    -0.287 N 
ATOM     11  H   UNL     1       1.285   0.995   0.491  0.00  0.00    +0.155 HD
ENDROOT
BRANCH   4  12
ATOM     12  C   UNL     1      -2.043  -2.097   1.498  0.00  0.00    -0.018 A 
ATOM     13  C   UNL     1      -1.308  -1.813   2.635  0.00  0.00    +0.009 A 
ATOM     14  C   UNL     1      -1.621  -2.427   3.832  0.00  0.00    +0.046 A 
ATOM     15  C   UNL     1      -2.673  -3.329   3.894  0.00  0.00    +0.121 A 
ATOM     16  C   UNL     1      -3.409  -3.612   2.752  0.00  0.00    +0.046 A 
ATOM     17  C   UNL     1      -3.095  -2.991   1.558  0.00  0.00    +0.009 A 
BRANCH  15  18
ATOM     18  O   UNL     1      -2.982  -3.935   5.070  0.00  0.00    -0.489 OA
BRANCH  18  19
ATOM     19  C   UNL     1      -2.111  -3.688   6.176  0.00  0.00    +0.167 C 
ATOM     20  C   UNL     1      -2.525  -2.389   6.870  0.00  0.00    +0.051 C 
ATOM     21  C   UNL     1      -2.205  -4.849   7.168  0.00  0.00    +0.051 C 
ENDBRANCH  18  19
ENDBRANCH  15  18
ENDBRANCH   4  12
BRANCH   3  22
ATOM     22  C   UNL     1      -3.116   0.630   0.453  0.00  0.00    +0.241 C 
ATOM     23  O   UNL     1      -3.248   1.834   0.580  0.00  0.00    -0.271 OA
ATOM     24  N   UNL     1      -4.202  -0.166   0.410  0.00  0.00    -0.325 N 
ATOM     25  H   UNL     1      -4.097  -1.125   0.309  0.00  0.00    +0.145 HD
ATOM     26  H   UNL     1      -5.089   0.220   0.481  0.00  0.00    +0.145 HD
ENDBRANCH   3  22
TORSDOF 4
