REMARK  Name = ZINC34173016
REMARK  7 active torsions:
REMARK  status: ('A' for Active; 'I' for Inactive)
REMARK    1  A    between atoms: C_1  and  C_2
REMARK    2  A    between atoms: C_2  and  C_4
REMARK    3  A    between atoms: C_4  and  O_31
REMARK    4  A    between atoms: C_9  and  C_30
REMARK    5  A    between atoms: C_17  and  O_29
REMARK    6  A    between atoms: C_21  and  C_28
REMARK    7  A    between atoms: C_24  and  O_27
REMARK                            x       y       z     vdW  Elec       q    Type
REMARK                         _______ _______ _______ _____ _____    ______ ____
ROOT
ATOM      1  C   UNL     1      -1.312  -0.795  -0.031  0.00  0.00    +0.129 C 
ATOM      2  C   UNL     1      -1.802  -1.130  -1.463  0.00  0.00    +0.043 C 
ATOM      3  C   UNL     1      -2.061  -2.665  -1.488  0.00  0.00    +0.008 C 
ATOM      4  C   UNL     1      -2.235  -2.976   0.007  0.00  0.00    +0.002 C 
ATOM      5  C   UNL     1      -1.061  -2.176   0.614  0.00  0.00    +0.007 C 
ATOM      6  C   UNL     1      -1.125  -2.202   2.119  0.00  0.00    +0.010 C 
ATOM      7  C   UNL     1      -1.411  -3.615   2.649  0.00  0.00    +0.005 C 
ATOM      8  C   UNL     1      -1.287  -4.681   1.577  0.00  0.00    -0.001 C 
ATOM      9  C   UNL     1      -2.242  -4.415   0.414  0.00  0.00    -0.001 C 
ATOM     10  C   UNL     1      -1.924  -5.381  -0.724  0.00  0.00    +0.035 C 
ATOM     11  C   UNL     1      -2.136  -6.816  -0.218  0.00  0.00    +0.119 C 
ATOM     12  C   UNL     1      -2.579  -6.793   1.241  0.00  0.00    +0.026 C 
ATOM     13  C   UNL     1      -1.556  -6.087   2.129  0.00  0.00    -0.024 C 
ATOM     14  C   UNL     1      -2.094  -6.009   3.555  0.00  0.00    +0.010 C 
ATOM     15  C   UNL     1      -2.385  -7.411   4.091  0.00  0.00    +0.032 C 
ATOM     16  C   UNL     1      -3.371  -8.141   3.183  0.00  0.00    +0.115 C 
ATOM     17  C   UNL     1      -2.831  -8.211   1.753  0.00  0.00    +0.038 C 
ATOM     18  C   UNL     1      -0.227  -6.850   2.126  0.00  0.00    +0.012 C 
ATOM     19  C   UNL     1       0.304  -2.640   0.107  0.00  0.00    +0.015 C 
ENDROOT
BRANCH   1  21
ATOM     20  C   UNL     1       0.391   0.814   1.111  0.00  0.00    +0.089 C 
ATOM     21  C   UNL     1      -0.030  -0.012  -0.077  0.00  0.00    +0.162 C 
ATOM     22  O   UNL     1       0.662  -0.045  -1.066  0.00  0.00    -0.295 OA
ENDBRANCH   1  21
BRANCH  16  23
ATOM     23  O   UNL     1      -3.575  -9.469   3.675  0.00  0.00    -0.392 OA
ATOM     24  H   UNL     1      -3.932  -9.505   4.573  0.00  0.00    +0.210 HD
ENDBRANCH  16  23
BRANCH  11  25
ATOM     25  O   UNL     1      -3.155  -7.436  -1.011  0.00  0.00    -0.391 OA
ATOM     26  H   UNL     1      -2.944  -7.487  -1.954  0.00  0.00    +0.210 HD
ENDBRANCH  11  25
BRANCH   1  27
ATOM     27  O   UNL     1      -2.319  -0.090   0.688  0.00  0.00    -0.381 OA
ATOM     28  H   UNL     1      -2.534   0.776   0.316  0.00  0.00    +0.211 HD
ENDBRANCH   1  27
TORSDOF 4
