REMARK  Name = ZINC63833778
REMARK  5 active torsions:
REMARK  status: ('A' for Active; 'I' for Inactive)
REMARK    1  A    between atoms: C_4  and  N_20
REMARK    2  A    between atoms: C_5  and  C_7
REMARK    3  A    between atoms: C_8  and  C_9
REMARK    4  A    between atoms: C_16  and  O_19
REMARK    5  A    between atoms: C_21  and  C_23
REMARK                            x       y       z     vdW  Elec       q    Type
REMARK                         _______ _______ _______ _____ _____    ______ ____
ROOT
ATOM      1  C   UNL     1      -0.010   1.387  -0.020  0.00  0.00    +0.001 A 
ATOM      2  C   UNL     1       1.178   2.098  -0.025  0.00  0.00    +0.002 A 
ATOM      3  C   UNL     1       2.390   1.435  -0.031  0.00  0.00    +0.024 A 
ATOM      4  C   UNL     1       2.425   0.049  -0.031  0.00  0.00    +0.041 A 
ATOM      5  C   UNL     1       1.223  -0.676  -0.026  0.00  0.00    -0.004 A 
ATOM      6  C   UNL     1       0.004   0.008  -0.020  0.00  0.00    +0.010 A 
ENDROOT
BRANCH   4   7
ATOM      7  N   UNL     1       3.648  -0.622  -0.037  0.00  0.00    -0.286 N 
ATOM      8  C   UNL     1       4.751  -0.018   0.448  0.00  0.00    +0.207 C 
ATOM      9  O   UNL     1       4.662   1.068   0.981  0.00  0.00    -0.277 OA
ATOM     10  H   UNL     1       3.705  -1.524  -0.391  0.00  0.00    +0.155 HD
BRANCH   8  11
ATOM     11  C   UNL     1       6.094  -0.691   0.328  0.00  0.00    +0.040 C 
ATOM     12  C   UNL     1       6.463  -0.869  -1.126  0.00  0.00    -0.040 C 
ATOM     13  C   UNL     1       7.717  -0.537  -1.302  0.00  0.00    -0.051 C 
ATOM     14  C   UNL     1       8.313  -0.104   0.018  0.00  0.00    -0.054 C 
ATOM     15  N   UNL     1       7.154   0.172   0.902  0.00  0.00    +0.391 N 
ATOM     16  H   UNL     1       6.889   1.144   0.850  0.00  0.00    -0.084 HD
ATOM     17  H   UNL     1       7.357  -0.095   1.853  0.00  0.00    -0.084 HD
ENDBRANCH   8  11
ENDBRANCH   4   7
BRANCH   5  18
ATOM     18  C   UNL     1       1.246  -2.148  -0.026  0.00  0.00    +0.012 C 
ATOM     19  C   UNL     1       0.091  -2.838  -0.021  0.00  0.00    +0.028 C 
BRANCH  19  20
ATOM     20  C   UNL     1       0.114  -4.309  -0.022  0.00  0.00    +0.065 A 
ATOM     21  C   UNL     1      -1.103  -5.018  -0.022  0.00  0.00    +0.028 A 
ATOM     22  C   UNL     1      -1.093  -6.379  -0.023  0.00  0.00    +0.012 A 
ATOM     23  C   UNL     1       0.153  -7.040  -0.024  0.00  0.00    +0.004 A 
ATOM     24  C   UNL     1       0.232  -8.441  -0.026  0.00  0.00    +0.010 A 
ATOM     25  C   UNL     1       1.451  -9.050  -0.027  0.00  0.00    +0.004 A 
ATOM     26  C   UNL     1       2.625  -8.302  -0.026  0.00  0.00    +0.047 A 
ATOM     27  C   UNL     1       2.588  -6.937  -0.024  0.00  0.00    +0.143 A 
ATOM     28  C   UNL     1       1.343  -6.272  -0.024  0.00  0.00    +0.113 A 
ATOM     29  N   UNL     1       1.278  -4.939  -0.028  0.00  0.00    -0.244 NA
BRANCH  27  30
ATOM     30  O   UNL     1       3.744  -6.223  -0.022  0.00  0.00    -0.505 OA
ATOM     31  H   UNL     1       4.079  -6.015  -0.905  0.00  0.00    +0.292 HD
ENDBRANCH  27  30
ENDBRANCH  19  20
ENDBRANCH   5  18
TORSDOF 5
