REMARK  Name = ZINC00321108
REMARK  4 active torsions:
REMARK  status: ('A' for Active; 'I' for Inactive)
REMARK    1  A    between atoms: C_1  and  C_2
REMARK    2  A    between atoms: C_5  and  N_11
REMARK    3  A    between atoms: N_11  and  N_12
REMARK    4  A    between atoms: N_12  and  C_13
REMARK                            x       y       z     vdW  Elec       q    Type
REMARK                         _______ _______ _______ _____ _____    ______ ____
ROOT
ATOM      1  N   UNL     1       2.337   4.180   0.002  0.00  0.00    -0.223 NA
ATOM      2  H   UNL     1       2.923   3.908   0.776  0.00  0.00    +0.146 HD
ENDROOT
BRANCH   1   6
ATOM      3  C   UNL     1       2.245   8.321   1.242  0.00  0.00    +0.028 C 
ATOM      4  C   UNL     1       0.957   7.497   1.201  0.00  0.00    +0.072 C 
ATOM      5  C   UNL     1       1.302   6.005   1.270  0.00  0.00    +0.061 C 
ATOM      6  C   UNL     1       2.091   5.628   0.011  0.00  0.00    +0.158 C 
ATOM      7  N   UNL     1       1.315   6.000  -1.173  0.00  0.00    -0.310 N 
ATOM      8  C   UNL     1       0.453   7.029  -1.147  0.00  0.00    +0.132 C 
ATOM      9  S   UNL     1      -0.411   7.413  -2.574  0.00  0.00    -0.019 S 
ATOM     10  N   UNL     1       0.242   7.767  -0.047  0.00  0.00    -0.324 N 
ATOM     11  H   UNL     1       1.425   5.493  -1.992  0.00  0.00    +0.149 HD
ATOM     12  H   UNL     1      -0.399   8.495  -0.079  0.00  0.00    +0.148 HD
ENDBRANCH   1   6
BRANCH   1  13
ATOM     13  N   UNL     1       1.162   3.483   0.009  0.00  0.00    -0.279 N 
ATOM     14  H   UNL     1       0.316   3.959   0.019  0.00  0.00    +0.166 HD
BRANCH  13  15
ATOM     15  C   UNL     1       1.177   2.086   0.002  0.00  0.00    +0.041 A 
ATOM     16  C   UNL     1      -0.017   1.377   0.010  0.00  0.00    +0.025 A 
ATOM     17  C   UNL     1       0.002  -0.004   0.002  0.00  0.00    +0.017 A 
ATOM     18  C   UNL     1       1.209  -0.681  -0.013  0.00  0.00    +0.018 A 
ATOM     19  C   UNL     1       2.400   0.023  -0.020  0.00  0.00    +0.017 A 
ATOM     20  C   UNL     1       2.387   1.404  -0.012  0.00  0.00    +0.025 A 
ATOM     21 BR   UNL     1       1.230  -2.572  -0.024  0.00  0.00    -0.050 Br
ENDBRANCH  13  15
ENDBRANCH   1  13
TORSDOF 3
