REMARK  Name = ZINC16109615
REMARK  10 active torsions:
REMARK  status: ('A' for Active; 'I' for Inactive)
REMARK    1  A    between atoms: C_1  and  C_2
REMARK    2  A    between atoms: C_2  and  C_4
REMARK    3  A    between atoms: C_2  and  N_14
REMARK    4  A    between atoms: C_7  and  S_10
REMARK    5  A    between atoms: S_10  and  C_13
REMARK    6  A    between atoms: C_15  and  C_17
REMARK    7  A    between atoms: C_17  and  N_18
REMARK    8  A    between atoms: C_19  and  C_21
REMARK    9  A    between atoms: C_22  and  C_23
REMARK   10  A    between atoms: C_26  and  N_29
REMARK                            x       y       z     vdW  Elec       q    Type
REMARK                         _______ _______ _______ _____ _____    ______ ____
ROOT
ATOM      1  N   UNL     1      -3.064   4.307   5.187  0.00  0.00    -0.307 N 
ATOM      2  C   UNL     1      -4.077   4.752   5.958  0.00  0.00    +0.231 C 
ATOM      3  O   UNL     1      -4.678   3.979   6.674  0.00  0.00    -0.274 OA
ATOM      4  H   UNL     1      -2.584   4.925   4.614  0.00  0.00    +0.149 HD
ENDROOT
BRANCH   1   6
ATOM      5  C   UNL     1      -1.722   2.642   6.373  0.00  0.00    +0.033 C 
ATOM      6  C   UNL     1      -2.690   2.891   5.215  0.00  0.00    +0.100 C 
BRANCH   6   7
ATOM      7  C   UNL     1      -2.022   2.523   3.915  0.00  0.00    -0.027 A 
ATOM      8  C   UNL     1      -2.295   1.306   3.318  0.00  0.00    +0.007 A 
ATOM      9  C   UNL     1      -1.683   0.968   2.126  0.00  0.00    +0.027 A 
ATOM     10  C   UNL     1      -0.798   1.847   1.530  0.00  0.00    +0.088 A 
ATOM     11  C   UNL     1      -0.521   3.062   2.129  0.00  0.00    +0.027 A 
ATOM     12  C   UNL     1      -1.137   3.402   3.319  0.00  0.00    +0.007 A 
BRANCH  10  13
ATOM     13  S   UNL     1      -0.017   1.417   0.010  0.00  0.00    -0.006 S 
ATOM     14  O   UNL     1       0.002  -0.004   0.002  0.00  0.00    -0.170 OA
ATOM     15  O   UNL     1       1.195   2.158   0.002  0.00  0.00    -0.170 OA
ATOM     16  C   UNL     1      -1.135   2.034  -1.279  0.00  0.00    +0.200 C 
ENDBRANCH  10  13
ENDBRANCH   6   7
ENDBRANCH   1   6
BRANCH   2  17
ATOM     17  C   UNL     1      -4.462   6.208   5.929  0.00  0.00    +0.200 C 
BRANCH  17  18
ATOM     18  N   UNL     1      -5.581   6.436   6.847  0.00  0.00    -0.303 N 
ATOM     19  C   UNL     1      -6.097   7.673   6.988  0.00  0.00    +0.237 C 
ATOM     20  O   UNL     1      -5.633   8.601   6.352  0.00  0.00    -0.271 OA
ATOM     21  H   UNL     1      -5.950   5.696   7.354  0.00  0.00    +0.149 HD
BRANCH  19  22
ATOM     22  C   UNL     1      -7.215   7.900   7.905  0.00  0.00    +0.068 C 
ATOM     23  C   UNL     1      -7.731   9.137   8.046  0.00  0.00    +0.013 C 
BRANCH  23  24
ATOM     24  C   UNL     1      -8.856   9.365   8.968  0.00  0.00    -0.025 A 
ATOM     25  C   UNL     1      -9.395   8.300   9.696  0.00  0.00    +0.010 A 
ATOM     26  C   UNL     1     -10.445   8.523  10.562  0.00  0.00    +0.033 A 
ATOM     27  C   UNL     1     -10.972   9.795  10.704  0.00  0.00    +0.126 A 
ATOM     28  C   UNL     1     -10.447  10.853   9.982  0.00  0.00    +0.033 A 
ATOM     29  C   UNL     1      -9.394  10.647   9.116  0.00  0.00    +0.010 A 
BRANCH  27  30
ATOM     30  N   UNL     1     -12.102  10.024  11.631  0.00  0.00    +0.056 N 
ATOM     31  O   UNL     1     -12.569  11.142  11.758  0.00  0.00    -0.126 OA
ATOM     32  O   UNL     1     -12.566   9.095  12.267  0.00  0.00    -0.126 OA
ENDBRANCH  27  30
ENDBRANCH  23  24
ENDBRANCH  19  22
ENDBRANCH  17  18
ENDBRANCH   2  17
TORSDOF 8
