REMARK  Name = ZINC08645083
REMARK  5 active torsions:
REMARK  status: ('A' for Active; 'I' for Inactive)
REMARK    1  A    between atoms: C_1  and  C_2
REMARK    2  A    between atoms: C_2  and  C_24
REMARK    3  A    between atoms: N_5  and  C_9
REMARK    4  A    between atoms: C_9  and  C_10
REMARK    5  A    between atoms: N_12  and  C_13
REMARK                            x       y       z     vdW  Elec       q    Type
REMARK                         _______ _______ _______ _____ _____    ______ ____
ROOT
ATOM      1  C   UNL     1      -5.628  12.356   0.457  0.00  0.00    +0.047 C 
ATOM      2  C   UNL     1      -5.456  10.938   1.006  0.00  0.00    +0.136 C 
ATOM      3  C   UNL     1      -4.537  10.129   0.112  0.00  0.00    +0.251 C 
ATOM      4  O   UNL     1      -3.374  10.360  -0.143  0.00  0.00    -0.272 OA
ATOM      5  N   UNL     1      -5.280   9.100  -0.339  0.00  0.00    -0.215 N 
ATOM      6  C   UNL     1      -6.530   9.149   0.135  0.00  0.00    +0.310 C 
ATOM      7  O   UNL     1      -7.388   8.331  -0.135  0.00  0.00    -0.252 OA
ATOM      8  N   UNL     1      -6.731  10.202   0.948  0.00  0.00    -0.281 N 
ATOM      9  H   UNL     1      -7.555  10.434   1.404  0.00  0.00    +0.152 HD
ENDROOT
BRANCH   2  10
ATOM     10  C   UNL     1      -4.926  10.977   2.416  0.00  0.00    -0.008 A 
ATOM     11  C   UNL     1      -5.644  10.426   3.432  0.00  0.00    +0.007 A 
ATOM     12  C   UNL     1      -5.170  10.452   4.742  0.00  0.00    +0.001 A 
ATOM     13  C   UNL     1      -3.975  11.030   5.043  0.00  0.00    +0.008 A 
ATOM     14  C   UNL     1      -3.205  11.610   4.021  0.00  0.00    -0.018 A 
ATOM     15  C   UNL     1      -3.685  11.578   2.687  0.00  0.00    -0.012 A 
ATOM     16  C   UNL     1      -2.918  12.163   1.665  0.00  0.00    +0.009 A 
ATOM     17  C   UNL     1      -1.723  12.741   1.967  0.00  0.00    +0.001 A 
ATOM     18  C   UNL     1      -1.249  12.767   3.277  0.00  0.00    +0.001 A 
ATOM     19  C   UNL     1      -1.967  12.216   4.293  0.00  0.00    +0.008 A 
ENDBRANCH   2  10
BRANCH   5  20
ATOM     20  C   UNL     1      -4.784   8.060  -1.244  0.00  0.00    +0.214 C 
BRANCH  20  21
ATOM     21  C   UNL     1      -4.213   6.923  -0.436  0.00  0.00    +0.235 C 
ATOM     22  O   UNL     1      -4.220   6.976   0.776  0.00  0.00    -0.274 OA
ATOM     23  N   UNL     1      -3.694   5.847  -1.060  0.00  0.00    -0.284 N 
ATOM     24  H   UNL     1      -3.617   5.837  -2.027  0.00  0.00    +0.155 HD
BRANCH  23  25
ATOM     25  C   UNL     1      -3.265   4.743  -0.312  0.00  0.00    +0.037 A 
ATOM     26  C   UNL     1      -2.178   3.993  -0.741  0.00  0.00    +0.027 A 
ATOM     27  C   UNL     1      -1.754   2.903  -0.005  0.00  0.00    +0.051 A 
ATOM     28  C   UNL     1      -2.412   2.555   1.164  0.00  0.00    +0.173 A 
ATOM     29  C   UNL     1      -3.503   3.305   1.597  0.00  0.00    +0.174 A 
ATOM     30  C   UNL     1      -3.927   4.397   0.858  0.00  0.00    +0.073 A 
ATOM     31  O   UNL     1      -3.970   2.764   2.760  0.00  0.00    -0.395 OA
ATOM     32  C   UNL     1      -3.413   1.438   2.818  0.00  0.00    +0.589 C 
ATOM     33  O   UNL     1      -2.196   1.540   2.055  0.00  0.00    -0.395 OA
ATOM     34  F   UNL     1      -3.135   1.079   4.141  0.00  0.00    -0.125 F 
ATOM     35  F   UNL     1      -4.284   0.513   2.232  0.00  0.00    -0.125 F 
ENDBRANCH  23  25
ENDBRANCH  20  21
ENDBRANCH   5  20
TORSDOF 4
