REMARK  Name = ZINC00820281
REMARK  8 active torsions:
REMARK  status: ('A' for Active; 'I' for Inactive)
REMARK    1  A    between atoms: C_1  and  C_2
REMARK    2  A    between atoms: C_2  and  C_3
REMARK    3  A    between atoms: C_2  and  C_4
REMARK    4  A    between atoms: C_2  and  C_5
REMARK    5  A    between atoms: C_5  and  O_25
REMARK    6  A    between atoms: C_7  and  C_21
REMARK    7  A    between atoms: C_10  and  C_12
REMARK    8  A    between atoms: C_15  and  N_18
REMARK                            x       y       z     vdW  Elec       q    Type
REMARK                         _______ _______ _______ _____ _____    ______ ____
ROOT
ATOM      1  C   UNL     1      -1.802   1.305   1.819  0.00  0.00    +0.166 C 
ATOM      2  C   UNL     1      -2.049  -0.211   1.955  0.00  0.00    +0.119 C 
ATOM      3  C   UNL     1      -3.166  -0.485   0.973  0.00  0.00    +0.144 C 
ATOM      4  N   UNL     1      -3.502   0.594   0.394  0.00  0.00    -0.175 NA
ATOM      5  N   UNL     1      -2.781   1.716   0.799  0.00  0.00    -0.157 N 
ATOM      6  C   UNL     1      -2.952   2.969   0.334  0.00  0.00    +0.268 C 
ATOM      7  O   UNL     1      -2.214   3.861   0.705  0.00  0.00    -0.268 OA
ENDROOT
BRANCH   6   8
ATOM      8  C   UNL     1      -4.036   3.259  -0.628  0.00  0.00    +0.039 A 
ATOM      9  C   UNL     1      -4.797   2.218  -1.162  0.00  0.00    +0.015 A 
ATOM     10  C   UNL     1      -5.810   2.496  -2.055  0.00  0.00    +0.033 A 
ATOM     11  C   UNL     1      -6.066   3.803  -2.431  0.00  0.00    +0.126 A 
ATOM     12  C   UNL     1      -5.313   4.839  -1.909  0.00  0.00    +0.033 A 
ATOM     13  C   UNL     1      -4.300   4.576  -1.011  0.00  0.00    +0.015 A 
BRANCH  11  14
ATOM     14  N   UNL     1      -7.151   4.093  -3.395  0.00  0.00    +0.056 N 
ATOM     15  O   UNL     1      -7.379   5.243  -3.728  0.00  0.00    -0.126 OA
ATOM     16  O   UNL     1      -7.816   3.183  -3.856  0.00  0.00    -0.126 OA
ENDBRANCH  11  14
ENDBRANCH   6   8
BRANCH   1  18
ATOM     17  C   UNL     1      -0.205   1.043  -0.084  0.00  0.00    +0.015 C 
ATOM     18  C   UNL     1      -0.375   1.578   1.339  0.00  0.00    +0.010 C 
ATOM     19  C   UNL     1       0.619   0.880   2.269  0.00  0.00    +0.015 C 
ATOM     20  C   UNL     1      -0.113   3.085   1.351  0.00  0.00    +0.015 C 
ENDBRANCH   1  18
BRANCH   3  21
ATOM     21  C   UNL     1      -3.785  -1.835   0.718  0.00  0.00    +0.432 C 
ATOM     22  F   UNL     1      -4.786  -1.713  -0.251  0.00  0.00    -0.165 F 
ATOM     23  F   UNL     1      -2.802  -2.721   0.265  0.00  0.00    -0.165 F 
ATOM     24  F   UNL     1      -4.342  -2.324   1.905  0.00  0.00    -0.165 F 
ENDBRANCH   3  21
BRANCH   1  25
ATOM     25  O   UNL     1      -2.051   1.970   3.059  0.00  0.00    -0.369 OA
ATOM     26  H   UNL     1      -2.942   1.830   3.408  0.00  0.00    +0.212 HD
ENDBRANCH   1  25
TORSDOF 5
