REMARK  Name = ZINC38547547
REMARK  11 active torsions:
REMARK  status: ('A' for Active; 'I' for Inactive)
REMARK    1  A    between atoms: C_1  and  C_2
REMARK    2  A    between atoms: C_6  and  N_8
REMARK    3  A    between atoms: N_8  and  C_9
REMARK    4  A    between atoms: C_9  and  C_11
REMARK    5  A    between atoms: C_9  and  C_19
REMARK    6  A    between atoms: C_14  and  O_17
REMARK    7  A    between atoms: O_17  and  C_18
REMARK    8  A    between atoms: C_20  and  C_33
REMARK    9  A    between atoms: C_21  and  C_32
REMARK   10  A    between atoms: C_23  and  N_24
REMARK   11  A    between atoms: C_25  and  C_27
REMARK                            x       y       z     vdW  Elec       q    Type
REMARK                         _______ _______ _______ _____ _____    ______ ____
ROOT
ATOM      1  C   UNL     1       0.180  -4.085   2.337  0.00  0.00    +0.135 C 
ENDROOT
BRANCH   1   2
ATOM      2  C   UNL     1       1.468  -4.663   1.812  0.00  0.00    +0.009 A 
ATOM      3  C   UNL     1       2.141  -5.642   2.520  0.00  0.00    -0.033 A 
ATOM      4  C   UNL     1       3.296  -6.141   2.019  0.00  0.00    -0.008 A 
ATOM      5  S   UNL     1       3.471  -5.223   0.499  0.00  0.00    -0.078 S 
ATOM      6  C   UNL     1       1.989  -4.236   0.627  0.00  0.00    +0.078 A 
ATOM      7  C   UNL     1       4.201  -7.199   2.597  0.00  0.00    +0.052 C 
ATOM      8  C   UNL     1       1.596  -6.146   3.832  0.00  0.00    +0.045 C 
BRANCH   6   9
ATOM      9  N   UNL     1       1.493  -3.275  -0.256  0.00  0.00    -0.273 N 
ATOM     10  C   UNL     1       2.099  -3.074  -1.443  0.00  0.00    +0.284 C 
ATOM     11  O   UNL     1       3.031  -3.781  -1.778  0.00  0.00    -0.266 OA
ATOM     12  H   UNL     1       0.713  -2.751  -0.015  0.00  0.00    +0.156 HD
BRANCH  10  13
ATOM     13  C   UNL     1       1.635  -2.003  -2.331  0.00  0.00    +0.189 A 
ATOM     14  C   UNL     1       2.094  -1.751  -3.592  0.00  0.00    +0.054 A 
ATOM     15  C   UNL     1       1.375  -0.644  -4.069  0.00  0.00    +0.042 A 
ATOM     16  C   UNL     1       0.520  -0.273  -3.091  0.00  0.00    +0.196 A 
ATOM     17  O   UNL     1       0.676  -1.097  -2.047  0.00  0.00    -0.458 OA
ENDBRANCH  10  13
ENDBRANCH   6   9
ENDBRANCH   1   2
BRANCH   1  18
ATOM     18  C   UNL     1      -0.984  -4.702   1.604  0.00  0.00    -0.023 A 
ATOM     19  C   UNL     1      -1.355  -4.215   0.364  0.00  0.00    +0.009 A 
ATOM     20  C   UNL     1      -2.421  -4.778  -0.309  0.00  0.00    +0.046 A 
ATOM     21  C   UNL     1      -3.119  -5.834   0.259  0.00  0.00    +0.120 A 
ATOM     22  C   UNL     1      -2.745  -6.321   1.503  0.00  0.00    +0.046 A 
ATOM     23  C   UNL     1      -1.674  -5.757   2.170  0.00  0.00    +0.009 A 
BRANCH  21  24
ATOM     24  O   UNL     1      -4.169  -6.389  -0.402  0.00  0.00    -0.495 OA
ATOM     25  C   UNL     1      -4.841  -7.473   0.244  0.00  0.00    +0.277 C 
ENDBRANCH  21  24
ENDBRANCH   1  18
BRANCH   1  26
ATOM     26  N   UNL     1       0.175  -2.635   2.128  0.00  0.00    -0.320 N 
ATOM     27  H   UNL     1      -0.321  -2.253   1.387  0.00  0.00    +0.148 HD
BRANCH  26  33
ATOM     28  C   UNL     1       1.683   1.781   3.198  0.00  0.00    +0.063 C 
ATOM     29  C   UNL     1       1.622   0.313   3.531  0.00  0.00    +0.014 A 
ATOM     30  C   UNL     1       2.258  -0.156   4.663  0.00  0.00    +0.021 A 
ATOM     31  C   UNL     1       2.199  -1.510   4.966  0.00  0.00    +0.005 A 
ATOM     32  C   UNL     1       1.498  -2.346   4.115  0.00  0.00    +0.041 A 
ATOM     33  C   UNL     1       0.881  -1.806   2.992  0.00  0.00    +0.097 A 
ATOM     34  N   UNL     1       0.957  -0.508   2.740  0.00  0.00    -0.347 N 
ATOM     35  H   UNL     1       0.515  -0.152   1.954  0.00  0.00    +0.167 HD
ENDBRANCH  26  33
ENDBRANCH   1  26
TORSDOF 7
