REMARK  Name = ZINC35617608
REMARK  11 active torsions:
REMARK  status: ('A' for Active; 'I' for Inactive)
REMARK    1  A    between atoms: C_1  and  C_2
REMARK    2  A    between atoms: C_2  and  C_3
REMARK    3  A    between atoms: C_3  and  C_5
REMARK    4  A    between atoms: C_3  and  N_6
REMARK    5  A    between atoms: C_7  and  C_9
REMARK    6  A    between atoms: C_9  and  N_10
REMARK    7  A    between atoms: C_13  and  C_28
REMARK    8  A    between atoms: N_22  and  C_24
REMARK    9  A    between atoms: C_24  and  C_25
REMARK   10  A    between atoms: C_24  and  C_26
REMARK   11  A    between atoms: C_24  and  C_27
REMARK                            x       y       z     vdW  Elec       q    Type
REMARK                         _______ _______ _______ _____ _____    ______ ____
ROOT
ATOM      1  N   UNL     1      -5.542   0.379   2.437  0.00  0.00    -0.312 N 
ATOM      2  C   UNL     1      -6.143   1.556   2.040  0.00  0.00    +0.142 A 
ATOM      3  C   UNL     1      -5.637   2.791   1.766  0.00  0.00    +0.076 A 
ATOM      4  C   UNL     1      -6.708   3.625   1.405  0.00  0.00    +0.095 A 
ATOM      5  N   UNL     1      -7.820   2.920   1.459  0.00  0.00    -0.162 NA
ATOM      6  N   UNL     1      -7.497   1.616   1.856  0.00  0.00    -0.179 N 
ATOM      7  C   UNL     1      -8.256   0.520   2.060  0.00  0.00    +0.280 A 
ATOM      8  O   UNL     1      -9.461   0.572   1.896  0.00  0.00    -0.265 OA
ATOM      9  C   UNL     1      -7.646  -0.688   2.466  0.00  0.00    +0.065 A 
ATOM     10  C   UNL     1      -6.299  -0.748   2.645  0.00  0.00    +0.116 A 
ATOM     11  C   UNL     1      -5.934  -2.122   3.059  0.00  0.00    +0.264 C 
ATOM     12  O   UNL     1      -4.805  -2.499   3.301  0.00  0.00    -0.268 OA
ATOM     13  N   UNL     1      -7.036  -2.890   3.128  0.00  0.00    -0.287 N 
ATOM     14  C   UNL     1      -8.193  -2.060   2.772  0.00  0.00    +0.151 C 
ENDROOT
BRANCH   4  15
ATOM     15  C   UNL     1      -6.606   5.056   1.027  0.00  0.00    +0.002 A 
ATOM     16  C   UNL     1      -5.363   5.686   1.004  0.00  0.00    +0.010 A 
ATOM     17  C   UNL     1      -5.272   7.017   0.651  0.00  0.00    +0.001 A 
ATOM     18  C   UNL     1      -6.413   7.726   0.321  0.00  0.00    +0.000 A 
ATOM     19  C   UNL     1      -7.650   7.107   0.343  0.00  0.00    +0.001 A 
ATOM     20  C   UNL     1      -7.751   5.774   0.688  0.00  0.00    +0.010 A 
ENDBRANCH   4  15
BRANCH  13  21
ATOM     21  C   UNL     1      -7.076  -4.306   3.502  0.00  0.00    +0.030 C 
ATOM     22  C   UNL     1      -5.658  -4.793   3.808  0.00  0.00    +0.031 C 
ATOM     23  C   UNL     1      -7.954  -4.482   4.742  0.00  0.00    +0.031 C 
ATOM     24  C   UNL     1      -7.656  -5.123   2.345  0.00  0.00    +0.031 C 
ENDBRANCH  13  21
BRANCH   1  25
ATOM     25  C   UNL     1      -4.090   0.329   2.630  0.00  0.00    +0.219 C 
BRANCH  25  27
ATOM     26  N   UNL     1      -2.082  -0.162   1.273  0.00  0.00    -0.311 N 
ATOM     27  C   UNL     1      -3.424  -0.053   1.334  0.00  0.00    +0.233 C 
ATOM     28  O   UNL     1      -4.095  -0.264   0.346  0.00  0.00    -0.274 OA
ATOM     29  H   UNL     1      -1.545   0.006   2.063  0.00  0.00    +0.149 HD
BRANCH  26  30
ATOM     30  C   UNL     1      -1.433  -0.534   0.013  0.00  0.00    +0.070 C 
ATOM     31  C   UNL     1      -1.416  -2.058  -0.121  0.00  0.00    +0.028 C 
BRANCH  30  33
ATOM     32  C   UNL     1      -0.019   1.526   0.010  0.00  0.00    +0.005 C 
ATOM     33  C   UNL     1       0.002  -0.004   0.002  0.00  0.00    +0.018 C 
ENDBRANCH  30  33
ENDBRANCH  26  30
ENDBRANCH  25  27
ENDBRANCH   1  25
TORSDOF 6
