REMARK  Name = ZINC06095031
REMARK  7 active torsions:
REMARK  status: ('A' for Active; 'I' for Inactive)
REMARK    1  A    between atoms: C_9  and  O_11
REMARK    2  A    between atoms: O_11  and  C_12
REMARK    3  A    between atoms: C_14  and  O_27
REMARK    4  A    between atoms: C_16  and  O_26
REMARK    5  A    between atoms: C_18  and  O_25
REMARK    6  A    between atoms: C_20  and  C_23
REMARK    7  A    between atoms: C_23  and  O_24
REMARK                            x       y       z     vdW  Elec       q    Type
REMARK                         _______ _______ _______ _____ _____    ______ ____
ROOT
ATOM      1  C   UNL     1       3.177   3.350  -1.248  0.00  0.00    +0.339 C 
ATOM      2  C   UNL     1       3.399   1.836  -1.300  0.00  0.00    +0.214 C 
ATOM      3  C   UNL     1       2.042   1.128  -1.262  0.00  0.00    +0.180 C 
ATOM      4  C   UNL     1       1.286   1.562  -0.002  0.00  0.00    +0.177 C 
ATOM      5  C   UNL     1       1.146   3.086  -0.000  0.00  0.00    +0.179 C 
ATOM      6  O   UNL     1       2.443   3.683  -0.068  0.00  0.00    -0.331 OA
ENDROOT
BRANCH   4   7
ATOM      7  O   UNL     1      -0.011   0.963   0.007  0.00  0.00    -0.386 OA
ATOM      8  H   UNL     1       0.002  -0.004   0.002  0.00  0.00    +0.210 HD
ENDBRANCH   4   7
BRANCH   3   9
ATOM      9  O   UNL     1       2.242  -0.287  -1.236  0.00  0.00    -0.386 OA
ATOM     10  H   UNL     1       2.715  -0.632  -2.005  0.00  0.00    +0.210 HD
ENDBRANCH   3   9
BRANCH   2  11
ATOM     11  O   UNL     1       4.083   1.494  -2.506  0.00  0.00    -0.383 OA
ATOM     12  H   UNL     1       4.952   1.908  -2.597  0.00  0.00    +0.210 HD
ENDBRANCH   2  11
BRANCH   1  13
ATOM     13  O   UNL     1       4.441   4.017  -1.226  0.00  0.00    -0.459 OA
BRANCH  13  22
ATOM     14  C   UNL     1       3.198   7.433  -1.423  0.00  0.00    +0.004 A 
ATOM     15  C   UNL     1       4.346   8.166  -1.409  0.00  0.00    +0.010 A 
ATOM     16  C   UNL     1       5.587   7.514  -1.332  0.00  0.00    +0.004 A 
ATOM     17  C   UNL     1       6.795   8.238  -1.315  0.00  0.00    +0.011 A 
ATOM     18  C   UNL     1       7.964   7.537  -1.239  0.00  0.00    +0.020 A 
ATOM     19  C   UNL     1       7.938   6.145  -1.181  0.00  0.00    +0.111 A 
ATOM     20  N   UNL     1       6.812   5.475  -1.196  0.00  0.00    -0.251 NA
ATOM     21  C   UNL     1       5.633   6.100  -1.269  0.00  0.00    +0.113 A 
ATOM     22  C   UNL     1       4.424   5.374  -1.286  0.00  0.00    +0.150 A 
ATOM     23  C   UNL     1       3.236   6.042  -1.368  0.00  0.00    +0.048 A 
ENDBRANCH  13  22
ENDBRANCH   1  13
BRANCH   5  24
ATOM     24  C   UNL     1       0.446   3.533   1.284  0.00  0.00    +0.190 C 
BRANCH  24  25
ATOM     25  O   UNL     1       0.210   4.941   1.234  0.00  0.00    -0.392 OA
ATOM     26  H   UNL     1      -0.232   5.295   2.018  0.00  0.00    +0.210 HD
ENDBRANCH  24  25
ENDBRANCH   5  24
TORSDOF 7
