REMARK  Name = ZINC00995288
REMARK  5 active torsions:
REMARK  status: ('A' for Active; 'I' for Inactive)
REMARK    1  A    between atoms: C_3  and  N_25
REMARK    2  A    between atoms: C_6  and  C_7
REMARK    3  A    between atoms: C_8  and  C_9
REMARK    4  A    between atoms: N_11  and  C_12
REMARK    5  A    between atoms: C_13  and  C_22
REMARK                            x       y       z     vdW  Elec       q    Type
REMARK                         _______ _______ _______ _____ _____    ______ ____
ROOT
ATOM      1  C   UNL     1      -1.293   2.059   0.019  0.00  0.00    +0.241 C 
ATOM      2  O   UNL     1      -2.339   1.436   0.021  0.00  0.00    -0.270 OA
ATOM      3  N   UNL     1      -1.312   3.406   0.027  0.00  0.00    -0.276 N 
ATOM      4  H   UNL     1      -0.478   3.903   0.025  0.00  0.00    +0.156 HD
ENDROOT
BRANCH   3   5
ATOM      5  C   UNL     1      -2.520   4.082   0.036  0.00  0.00    +0.085 A 
ATOM      6  C   UNL     1      -2.742   5.451   0.050  0.00  0.00    +0.068 A 
ATOM      7  C   UNL     1      -4.124   5.913   0.050  0.00  0.00    -0.023 A 
ATOM      8  C   UNL     1      -5.052   4.933   0.054  0.00  0.00    -0.004 A 
ATOM      9  S   UNL     1      -4.122   3.424   0.041  0.00  0.00    -0.077 S 
ATOM     10  C   UNL     1      -6.541   5.083   0.079  0.00  0.00    +0.043 C 
ATOM     11  C   UNL     1      -6.967   6.096  -0.992  0.00  0.00    +0.005 C 
ATOM     12  C   UNL     1      -6.963   7.487  -0.368  0.00  0.00    +0.001 C 
ATOM     13  C   UNL     1      -5.862   7.588   0.686  0.00  0.00    +0.005 C 
ATOM     14  C   UNL     1      -4.493   7.392   0.045  0.00  0.00    +0.037 C 
BRANCH   6  15
ATOM     15  C   UNL     1      -1.625   6.400   0.061  0.00  0.00    +0.244 C 
ATOM     16  O   UNL     1      -1.161   6.806  -0.988  0.00  0.00    -0.270 OA
ATOM     17  N   UNL     1      -1.113   6.824   1.234  0.00  0.00    -0.325 N 
ATOM     18  H   UNL     1      -1.483   6.501   2.070  0.00  0.00    +0.145 HD
ATOM     19  H   UNL     1      -0.373   7.452   1.241  0.00  0.00    +0.145 HD
ENDBRANCH   6  15
ENDBRANCH   3   5
BRANCH   1  21
ATOM     20  C   UNL     1       0.002  -0.004   0.002  0.00  0.00    +0.013 C 
ATOM     21  C   UNL     1      -0.016   1.344   0.009  0.00  0.00    +0.068 C 
BRANCH  20  27
ATOM     22  C   UNL     1       2.490  -0.011  -0.028  0.00  0.00    +0.010 A 
ATOM     23  C   UNL     1       3.689  -0.691  -0.037  0.00  0.00    +0.033 A 
ATOM     24  C   UNL     1       3.704  -2.075  -0.045  0.00  0.00    +0.126 A 
ATOM     25  C   UNL     1       2.517  -2.787  -0.037  0.00  0.00    +0.033 A 
ATOM     26  C   UNL     1       1.310  -2.121  -0.022  0.00  0.00    +0.010 A 
ATOM     27  C   UNL     1       1.287  -0.723  -0.014  0.00  0.00    -0.025 A 
BRANCH  24  28
ATOM     28  N   UNL     1       4.996  -2.797  -0.062  0.00  0.00    +0.056 N 
ATOM     29  O   UNL     1       5.012  -4.015  -0.069  0.00  0.00    -0.126 OA
ATOM     30  O   UNL     1       6.042  -2.174  -0.068  0.00  0.00    -0.126 OA
ENDBRANCH  24  28
ENDBRANCH  20  27
ENDBRANCH   1  21
TORSDOF 5
