REMARK  Name = ZINC08534412
REMARK  9 active torsions:
REMARK  status: ('A' for Active; 'I' for Inactive)
REMARK    1  A    between atoms: C_1  and  C_2
REMARK    2  A    between atoms: C_9  and  N_14
REMARK    3  A    between atoms: C_10  and  C_11
REMARK    4  A    between atoms: C_15  and  C_17
REMARK    5  A    between atoms: C_17  and  C_19
REMARK    6  A    between atoms: C_17  and  N_22
REMARK    7  A    between atoms: C_19  and  C_20
REMARK    8  A    between atoms: C_19  and  C_21
REMARK    9  A    between atoms: C_23  and  C_25
REMARK                            x       y       z     vdW  Elec       q    Type
REMARK                         _______ _______ _______ _____ _____    ______ ____
ROOT
ATOM      1  N   UNL     1      -1.500  -1.197   2.464  0.00  0.00    -0.278 N 
ATOM      2  C   UNL     1      -2.265  -1.323   3.567  0.00  0.00    +0.238 C 
ATOM      3  O   UNL     1      -3.450  -1.559   3.458  0.00  0.00    -0.273 OA
ATOM      4  H   UNL     1      -0.569  -0.936   2.547  0.00  0.00    +0.155 HD
ENDROOT
BRANCH   1  12
ATOM      5  C   UNL     1      -4.964  -2.568  -4.414  0.00  0.00    +0.008 C 
ATOM      6  C   UNL     1      -4.066  -1.946  -3.342  0.00  0.00    -0.009 C 
ATOM      7  C   UNL     1      -2.627  -2.437  -3.526  0.00  0.00    +0.008 C 
ATOM      8  C   UNL     1      -1.686  -1.637  -2.625  0.00  0.00    +0.037 C 
ATOM      9  C   UNL     1      -2.223  -1.668  -1.200  0.00  0.00    -0.023 A 
ATOM     10  C   UNL     1      -3.507  -2.005  -0.948  0.00  0.00    -0.004 A 
ATOM     11  S   UNL     1      -3.661  -1.914   0.813  0.00  0.00    -0.077 S 
ATOM     12  C   UNL     1      -2.043  -1.441   1.212  0.00  0.00    +0.084 A 
ATOM     13  C   UNL     1      -1.421  -1.365  -0.027  0.00  0.00    +0.068 A 
ATOM     14  C   UNL     1      -4.559  -2.368  -1.950  0.00  0.00    +0.046 C 
BRANCH  13  15
ATOM     15  C   UNL     1      -0.010  -0.988  -0.147  0.00  0.00    +0.244 C 
ATOM     16  O   UNL     1       0.854  -1.846  -0.121  0.00  0.00    -0.270 OA
ATOM     17  N   UNL     1       0.332   0.308  -0.288  0.00  0.00    -0.325 N 
ATOM     18  H   UNL     1       1.266   0.557  -0.368  0.00  0.00    +0.145 HD
ATOM     19  H   UNL     1      -0.356   0.991  -0.313  0.00  0.00    +0.145 HD
ENDBRANCH  13  15
ENDBRANCH   1  12
BRANCH   2  20
ATOM     20  C   UNL     1      -1.649  -1.169   4.933  0.00  0.00    +0.162 C 
BRANCH  20  21
ATOM     21  N   UNL     1      -2.478  -1.861   5.923  0.00  0.00    -0.297 N 
ATOM     22  C   UNL     1      -1.929  -2.302   7.072  0.00  0.00    +0.280 C 
ATOM     23  O   UNL     1      -0.745  -2.125   7.288  0.00  0.00    -0.267 OA
ATOM     24  H   UNL     1      -3.422  -2.002   5.751  0.00  0.00    +0.150 HD
BRANCH  22  25
ATOM     25  C   UNL     1      -2.759  -2.995   8.063  0.00  0.00    +0.189 A 
ATOM     26  C   UNL     1      -2.333  -3.490   9.262  0.00  0.00    +0.054 A 
ATOM     27  C   UNL     1      -3.452  -4.066   9.882  0.00  0.00    +0.042 A 
ATOM     28  C   UNL     1      -4.500  -3.900   9.045  0.00  0.00    +0.196 A 
ATOM     29  O   UNL     1      -4.080  -3.249   7.952  0.00  0.00    -0.458 OA
ENDBRANCH  22  25
ENDBRANCH  20  21
BRANCH  20  30
ATOM     30  C   UNL     1      -1.562   0.316   5.290  0.00  0.00    +0.012 C 
ATOM     31  C   UNL     1      -2.973   0.891   5.428  0.00  0.00    +0.009 C 
ATOM     32  C   UNL     1      -0.813   0.479   6.614  0.00  0.00    +0.009 C 
ENDBRANCH  20  30
ENDBRANCH   2  20
TORSDOF 6
