REMARK  Name = ZINC03434481
REMARK  5 active torsions:
REMARK  status: ('A' for Active; 'I' for Inactive)
REMARK    1  A    between atoms: C_5  and  S_7
REMARK    2  A    between atoms: S_7  and  C_8
REMARK    3  A    between atoms: C_8  and  C_9
REMARK    4  A    between atoms: N_11  and  C_12
REMARK    5  A    between atoms: C_16  and  N_18
REMARK                            x       y       z     vdW  Elec       q    Type
REMARK                         _______ _______ _______ _____ _____    ______ ____
ROOT
ATOM      1  C   UNL     1      -6.080   1.849   0.143  0.00  0.00    +0.227 C 
ATOM      2  O   UNL     1      -6.098   3.062   0.150  0.00  0.00    -0.275 OA
ATOM      3  N   UNL     1      -4.907   1.194   0.032  0.00  0.00    -0.285 N 
ATOM      4  H   UNL     1      -4.898   0.227  -0.050  0.00  0.00    +0.155 HD
ENDROOT
BRANCH   3   5
ATOM      5  C   UNL     1      -3.704   1.907   0.036  0.00  0.00    +0.036 A 
ATOM      6  C   UNL     1      -2.626   1.457  -0.716  0.00  0.00    +0.023 A 
ATOM      7  C   UNL     1      -1.440   2.164  -0.711  0.00  0.00    +0.004 A 
ATOM      8  C   UNL     1      -1.325   3.321   0.037  0.00  0.00    +0.033 A 
ATOM      9  C   UNL     1      -2.394   3.768   0.792  0.00  0.00    +0.128 A 
ATOM     10  C   UNL     1      -3.584   3.066   0.791  0.00  0.00    +0.056 A 
BRANCH   9  11
ATOM     11  N   UNL     1      -2.266   5.004   1.596  0.00  0.00    +0.056 N 
ATOM     12  O   UNL     1      -3.209   5.401   2.257  0.00  0.00    -0.126 OA
ATOM     13  O   UNL     1      -1.216   5.621   1.601  0.00  0.00    -0.126 OA
ENDBRANCH   9  11
ENDBRANCH   3   5
BRANCH   1  14
ATOM     14  C   UNL     1      -7.368   1.076   0.259  0.00  0.00    +0.170 C 
BRANCH  14  15
ATOM     15  S   UNL     1      -8.758   2.233   0.392  0.00  0.00    -0.114 S 
BRANCH  15  20
ATOM     16  C   UNL     1     -11.131  -1.008   0.597  0.00  0.00    +0.001 A 
ATOM     17  C   UNL     1     -12.392  -0.452   0.716  0.00  0.00    +0.001 A 
ATOM     18  C   UNL     1     -12.546   0.922   0.736  0.00  0.00    +0.021 A 
ATOM     19  C   UNL     1     -11.441   1.744   0.638  0.00  0.00    +0.054 A 
ATOM     20  C   UNL     1     -10.172   1.189   0.518  0.00  0.00    +0.027 A 
ATOM     21  C   UNL     1     -10.021  -0.192   0.493  0.00  0.00    +0.016 A 
ATOM     22 CL   UNL     1     -11.635   3.469   0.663  0.00  0.00    -0.082 Cl
ENDBRANCH  15  20
ENDBRANCH  14  15
ENDBRANCH   1  14
TORSDOF 5
