REMARK  Name = ZINC06298905
REMARK  13 active torsions:
REMARK  status: ('A' for Active; 'I' for Inactive)
REMARK    1  A    between atoms: C_1  and  C_2
REMARK    2  A    between atoms: C_8  and  N_10
REMARK    3  A    between atoms: C_11  and  C_13
REMARK    4  A    between atoms: C_14  and  N_35
REMARK    5  A    between atoms: C_16  and  C_20
REMARK    6  A    between atoms: N_22  and  C_23
REMARK    7  A    between atoms: C_24  and  C_31
REMARK    8  A    between atoms: C_31  and  O_33
REMARK    9  A    between atoms: O_33  and  C_34
REMARK   10  A    between atoms: N_35  and  C_36
REMARK   11  A    between atoms: C_36  and  C_37
REMARK   12  A    between atoms: C_37  and  C_38
REMARK   13  A    between atoms: C_37  and  C_39
REMARK                            x       y       z     vdW  Elec       q    Type
REMARK                         _______ _______ _______ _____ _____    ______ ____
ROOT
ATOM      1  C   UNL     1      -0.041   0.557   4.748  0.00  0.00    +0.086 C 
ATOM      2  C   UNL     1       0.580   0.774   5.978  0.00  0.00    +0.076 C 
ATOM      3  S   UNL     1      -0.724   1.316   7.064  0.00  0.00    -0.091 S 
ATOM      4  C   UNL     1      -2.134   1.263   5.889  0.00  0.00    +0.187 C 
ATOM      5  C   UNL     1      -1.456   0.795   4.616  0.00  0.00    +0.069 C 
ATOM      6  N   UNL     1      -2.098   0.619   3.500  0.00  0.00    -0.302 NA
ATOM      7  H   UNL     1      -1.640   0.245   2.731  0.00  0.00    +0.186 HD
ENDROOT
BRANCH   1   9
ATOM      8  N   UNL     1       1.079  -1.203   3.494  0.00  0.00    -0.308 N 
ATOM      9  C   UNL     1       0.739   0.097   3.601  0.00  0.00    +0.248 C 
ATOM     10  O   UNL     1       1.081   0.889   2.741  0.00  0.00    -0.270 OA
ATOM     11  H   UNL     1       0.870  -1.819   4.213  0.00  0.00    +0.149 HD
BRANCH   8  18
ATOM     12  C   UNL     1      -0.014  -3.409   1.970  0.00  0.00    +0.009 C 
ATOM     13  C   UNL     1       1.492  -3.179   2.114  0.00  0.00    +0.006 C 
ATOM     14  C   UNL     1       2.009  -3.941   3.336  0.00  0.00    +0.005 C 
ATOM     15  C   UNL     1       3.515  -3.711   3.481  0.00  0.00    +0.000 C 
ATOM     16  C   UNL     1       3.787  -2.216   3.659  0.00  0.00    +0.002 C 
ATOM     17  C   UNL     1       3.270  -1.454   2.437  0.00  0.00    +0.022 C 
ATOM     18  C   UNL     1       1.764  -1.684   2.292  0.00  0.00    +0.076 C 
ENDBRANCH   8  18
ENDBRANCH   1   9
BRANCH   4  19
ATOM     19  C   UNL     1      -3.179   0.277   6.344  0.00  0.00    +0.237 C 
ATOM     20  O   UNL     1      -3.057  -0.900   6.083  0.00  0.00    -0.274 OA
ATOM     21  N   UNL     1      -4.250   0.705   7.042  0.00  0.00    -0.278 N 
ATOM     22  H   UNL     1      -4.348   1.647   7.251  0.00  0.00    +0.155 HD
BRANCH  21  23
ATOM     23  C   UNL     1      -5.212  -0.202   7.461  0.00  0.00    +0.086 A 
ATOM     24  C   UNL     1      -6.369   0.054   8.175  0.00  0.00    +0.091 A 
ATOM     25  C   UNL     1      -7.224  -1.088   8.495  0.00  0.00    -0.021 A 
ATOM     26  C   UNL     1      -6.759  -2.266   8.042  0.00  0.00    -0.004 A 
ATOM     27  S   UNL     1      -5.244  -1.860   7.212  0.00  0.00    -0.077 S 
ATOM     28  C   UNL     1      -7.673  -3.405   8.402  0.00  0.00    +0.043 C 
ATOM     29  C   UNL     1      -8.575  -2.843   9.522  0.00  0.00    +0.010 C 
ATOM     30  C   UNL     1      -8.545  -1.331   9.222  0.00  0.00    +0.037 C 
BRANCH  24  31
ATOM     31  C   UNL     1      -6.722   1.412   8.593  0.00  0.00    +0.342 C 
ATOM     32  O   UNL     1      -7.394   2.117   7.865  0.00  0.00    -0.245 OA
BRANCH  31  33
ATOM     33  O   UNL     1      -6.301   1.882   9.786  0.00  0.00    -0.464 OA
ATOM     34  C   UNL     1      -6.683   3.215  10.129  0.00  0.00    +0.280 C 
ENDBRANCH  31  33
ENDBRANCH  24  31
ENDBRANCH  21  23
ENDBRANCH   4  19
BRANCH   2  35
ATOM     35  N   UNL     1       1.900   0.606   6.283  0.00  0.00    -0.338 N 
ATOM     36  H   UNL     1       2.521   0.303   5.602  0.00  0.00    +0.147 HD
BRANCH  35  37
ATOM     37  C   UNL     1       2.380   0.884   7.639  0.00  0.00    +0.105 C 
BRANCH  37  38
ATOM     38  C   UNL     1       3.884   0.619   7.713  0.00  0.00    -0.000 C 
ATOM     39  C   UNL     1       4.622   1.611   6.812  0.00  0.00    +0.009 C 
ATOM     40  C   UNL     1       4.362   0.789   9.157  0.00  0.00    +0.009 C 
ENDBRANCH  37  38
ENDBRANCH  35  37
ENDBRANCH   2  35
TORSDOF 9
