REMARK  Name = ZINC18525268
REMARK  13 active torsions:
REMARK  status: ('A' for Active; 'I' for Inactive)
REMARK    1  A    between atoms: C_1  and  C_2
REMARK    2  A    between atoms: C_2  and  C_3
REMARK    3  A    between atoms: C_3  and  C_4
REMARK    4  A    between atoms: C_4  and  C_5
REMARK    5  A    between atoms: C_5  and  C_6
REMARK    6  A    between atoms: C_6  and  C_8
REMARK    7  A    between atoms: C_6  and  N_9
REMARK    8  A    between atoms: C_10  and  C_12
REMARK    9  A    between atoms: C_12  and  S_13
REMARK   10  A    between atoms: S_13  and  C_14
REMARK   11  A    between atoms: C_17  and  C_20
REMARK   12  A    between atoms: N_18  and  N_19
REMARK   13  A    between atoms: C_24  and  C_25
REMARK                            x       y       z     vdW  Elec       q    Type
REMARK                         _______ _______ _______ _____ _____    ______ ____
ROOT
ATOM      1  C   UNL     1       3.418  -8.367   2.050  0.00  0.00    +0.209 A 
ATOM      2  N   UNL     1       4.359  -7.617   2.575  0.00  0.00    -0.121 NA
ATOM      3  N   UNL     1       4.935  -8.242   3.539  0.00  0.00    -0.127 NA
ATOM      4  C   UNL     1       4.397  -9.429   3.689  0.00  0.00    +0.185 A 
ATOM      5  N   UNL     1       3.405  -9.545   2.743  0.00  0.00    -0.224 N 
ENDROOT
BRANCH   4   6
ATOM      6  C   UNL     1       4.781 -10.449   4.689  0.00  0.00    +0.061 A 
ATOM      7  C   UNL     1       4.194 -11.784   4.865  0.00  0.00    +0.053 A 
ATOM      8  C   UNL     1       4.858 -12.348   5.887  0.00  0.00    +0.196 A 
ATOM      9  O   UNL     1       5.781 -11.486   6.340  0.00  0.00    -0.467 OA
ATOM     10  C   UNL     1       5.755 -10.347   5.633  0.00  0.00    +0.112 A 
ATOM     11  C   UNL     1       6.651  -9.155   5.850  0.00  0.00    +0.087 C 
ENDBRANCH   4   6
BRANCH   5  12
ATOM     12  N   UNL     1       2.580 -10.615   2.538  0.00  0.00    -0.295 N 
ATOM     13  H   UNL     1       2.985 -11.261   1.878  0.00  0.00    +0.163 HD
ATOM     14  H   UNL     1       2.363 -11.075   3.409  0.00  0.00    +0.163 HD
ENDBRANCH   5  12
BRANCH   1  15
ATOM     15  S   UNL     1       2.363  -7.932   0.707  0.00  0.00    -0.075 S 
BRANCH  15  16
ATOM     16  C   UNL     1       2.898  -6.260   0.252  0.00  0.00    +0.173 C 
BRANCH  16  18
ATOM     17  N   UNL     1       2.285  -4.534  -1.411  0.00  0.00    -0.312 N 
ATOM     18  C   UNL     1       2.065  -5.762  -0.901  0.00  0.00    +0.224 C 
ATOM     19  O   UNL     1       1.196  -6.467  -1.370  0.00  0.00    -0.275 OA
ATOM     20  H   UNL     1       2.980  -3.971  -1.036  0.00  0.00    +0.149 HD
BRANCH  17  21
ATOM     21  C   UNL     1       1.476  -4.051  -2.532  0.00  0.00    +0.070 C 
ATOM     22  C   UNL     1       2.080  -4.545  -3.848  0.00  0.00    +0.028 C 
BRANCH  21  23
ATOM     23  C   UNL     1       1.455  -2.521  -2.524  0.00  0.00    +0.022 C 
BRANCH  23  24
ATOM     24  C   UNL     1       0.739  -2.027  -1.265  0.00  0.00    +0.002 C 
BRANCH  24  25
ATOM     25  C   UNL     1       0.718  -0.497  -1.257  0.00  0.00    -0.000 C 
BRANCH  25  27
ATOM     26  C   UNL     1      -0.019   1.526   0.010  0.00  0.00    +0.004 C 
ATOM     27  C   UNL     1       0.002  -0.004   0.002  0.00  0.00    -0.003 C 
ENDBRANCH  25  27
ENDBRANCH  24  25
ENDBRANCH  23  24
ENDBRANCH  21  23
ENDBRANCH  17  21
ENDBRANCH  16  18
ENDBRANCH  15  16
ENDBRANCH   1  15
TORSDOF 10
