REMARK  Name = ZINC00067390
REMARK  7 active torsions:
REMARK  status: ('A' for Active; 'I' for Inactive)
REMARK    1  A    between atoms: C_1  and  C_2
REMARK    2  A    between atoms: C_2  and  N_3
REMARK    3  A    between atoms: C_4  and  C_22
REMARK    4  A    between atoms: C_5  and  C_18
REMARK    5  A    between atoms: C_6  and  C_11
REMARK    6  A    between atoms: C_18  and  O_20
REMARK    7  A    between atoms: O_20  and  C_21
REMARK                            x       y       z     vdW  Elec       q    Type
REMARK                         _______ _______ _______ _____ _____    ______ ____
ROOT
ATOM      1  N   UNL     1       0.774  -0.299   1.248  0.00  0.00    -0.259 N 
ATOM      2  C   UNL     1       2.040  -0.779   1.072  0.00  0.00    +0.024 C 
ATOM      3  C   UNL     1       2.688  -1.419   2.070  0.00  0.00    +0.078 C 
ATOM      4  C   UNL     1       1.962  -1.584   3.390  0.00  0.00    +0.144 C 
ATOM      5  N   UNL     1       0.600  -1.030   3.476  0.00  0.00    -0.288 N 
ATOM      6  C   UNL     1       0.089  -0.412   2.393  0.00  0.00    +0.307 C 
ATOM      7  O   UNL     1      -1.033   0.052   2.456  0.00  0.00    -0.252 OA
ATOM      8  C   UNL     1       2.725  -0.593  -0.257  0.00  0.00    +0.061 C 
ATOM      9  H   UNL     1       0.085  -1.104   4.295  0.00  0.00    +0.151 HD
ENDROOT
BRANCH   4  10
ATOM     10  C   UNL     1       1.883  -3.058   3.695  0.00  0.00    -0.020 A 
ATOM     11  C   UNL     1       0.923  -3.841   3.080  0.00  0.00    +0.006 A 
ATOM     12  C   UNL     1       0.849  -5.192   3.359  0.00  0.00    +0.003 A 
ATOM     13  C   UNL     1       1.735  -5.763   4.254  0.00  0.00    +0.038 A 
ATOM     14  C   UNL     1       2.697  -4.981   4.870  0.00  0.00    +0.124 A 
ATOM     15  C   UNL     1       2.774  -3.628   4.585  0.00  0.00    +0.044 A 
ATOM     16  F   UNL     1       3.563  -5.537   5.744  0.00  0.00    -0.205 F 
ENDBRANCH   4  10
BRANCH   1  18
ATOM     17  C   UNL     1      -0.520  -0.649  -0.798  0.00  0.00    +0.025 C 
ATOM     18  C   UNL     1       0.131   0.385   0.123  0.00  0.00    +0.111 C 
ENDBRANCH   1  18
BRANCH   3  19
ATOM     19  C   UNL     1       3.999  -1.918   1.889  0.00  0.00    +0.339 C 
ATOM     20  O   UNL     1       4.562  -1.774   0.820  0.00  0.00    -0.245 OA
BRANCH  19  21
ATOM     21  O   UNL     1       4.625  -2.554   2.901  0.00  0.00    -0.465 OA
ATOM     22  C   UNL     1       5.947  -3.032   2.648  0.00  0.00    +0.280 C 
ENDBRANCH  19  21
ENDBRANCH   3  19
TORSDOF 4
