REMARK  Name = ZINC41514726
REMARK  8 active torsions:
REMARK  status: ('A' for Active; 'I' for Inactive)
REMARK    1  A    between atoms: C_1  and  N_2
REMARK    2  A    between atoms: N_2  and  C_3
REMARK    3  A    between atoms: N_2  and  C_10
REMARK    4  A    between atoms: C_3  and  C_4
REMARK    5  A    between atoms: C_10  and  C_11
REMARK    6  A    between atoms: C_12  and  O_28
REMARK    7  A    between atoms: C_19  and  C_20
REMARK    8  A    between atoms: C_20  and  C_21
REMARK                            x       y       z     vdW  Elec       q    Type
REMARK                         _______ _______ _______ _____ _____    ______ ____
ROOT
ATOM      1  C   UNL     1      -0.106  -0.083  -2.424  0.00  0.00    +0.023 A 
ATOM      2  C   UNL     1      -1.081  -0.930  -2.922  0.00  0.00    +0.122 A 
ATOM      3  C   UNL     1      -1.820  -0.573  -4.047  0.00  0.00    +0.046 A 
ATOM      4  C   UNL     1      -1.593   0.618  -4.674  0.00  0.00    +0.017 A 
ATOM      5  C   UNL     1      -0.613   1.486  -4.186  0.00  0.00    +0.045 A 
ATOM      6  C   UNL     1       0.133   1.134  -3.048  0.00  0.00    +0.172 A 
ATOM      7  O   UNL     1       0.988   2.147  -2.804  0.00  0.00    -0.354 OA
ATOM      8  N   UNL     1       0.800   3.160  -3.772  0.00  0.00    -0.082 NA
ATOM      9  C   UNL     1      -0.127   2.803  -4.607  0.00  0.00    +0.096 A 
ENDROOT
BRANCH   2  10
ATOM     10  O   UNL     1      -1.318  -2.119  -2.308  0.00  0.00    -0.506 OA
ATOM     11  H   UNL     1      -1.988  -2.076  -1.612  0.00  0.00    +0.292 HD
ENDBRANCH   2  10
BRANCH   1  12
ATOM     12  C   UNL     1       0.690  -0.478  -1.207  0.00  0.00    -0.035 C 
BRANCH  12  14
ATOM     13  C   UNL     1      -0.018   1.465   0.010  0.00  0.00    -0.095 C 
ATOM     14  N   UNL     1       0.002  -0.004   0.002  0.00  0.00    +0.383 N 
ATOM     15  H   UNL     1      -0.945  -0.353   0.009  0.00  0.00    -0.081 HD
BRANCH  14  16
ATOM     16  C   UNL     1       0.713  -0.491   1.192  0.00  0.00    -0.043 C 
BRANCH  16  17
ATOM     17  C   UNL     1      -0.059  -0.109   2.429  0.00  0.00    -0.064 A 
ATOM     18  C   UNL     1       0.188   1.099   3.053  0.00  0.00    +0.002 A 
ATOM     19  C   UNL     1      -0.520   1.449   4.188  0.00  0.00    +0.000 A 
ATOM     20  C   UNL     1      -1.476   0.591   4.698  0.00  0.00    +0.000 A 
ATOM     21  C   UNL     1      -1.724  -0.617   4.073  0.00  0.00    +0.000 A 
ATOM     22  C   UNL     1      -1.019  -0.965   2.936  0.00  0.00    +0.002 A 
ENDBRANCH  16  17
ENDBRANCH  14  16
ENDBRANCH  12  14
ENDBRANCH   1  12
BRANCH   9  23
ATOM     23  C   UNL     1      -0.625   3.603  -5.783  0.00  0.00    +0.097 C 
BRANCH  23  24
ATOM     24  C   UNL     1      -1.759   4.492  -5.342  0.00  0.00    -0.006 A 
ATOM     25  C   UNL     1      -3.067   4.071  -5.489  0.00  0.00    +0.007 A 
ATOM     26  C   UNL     1      -4.106   4.887  -5.085  0.00  0.00    +0.000 A 
ATOM     27  C   UNL     1      -3.839   6.126  -4.532  0.00  0.00    +0.003 A 
ATOM     28  C   UNL     1      -2.533   6.549  -4.383  0.00  0.00    +0.038 A 
ATOM     29  C   UNL     1      -1.490   5.730  -4.783  0.00  0.00    +0.127 A 
ATOM     30  F   UNL     1      -0.212   6.142  -4.634  0.00  0.00    -0.205 F 
ENDBRANCH  23  24
ENDBRANCH   9  23
TORSDOF 7
