REMARK  Name = ZINC38870304
REMARK  10 active torsions:
REMARK  status: ('A' for Active; 'I' for Inactive)
REMARK    1  A    between atoms: C_1  and  C_2
REMARK    2  A    between atoms: C_2  and  N_3
REMARK    3  A    between atoms: C_4  and  C_25
REMARK    4  A    between atoms: C_5  and  N_9
REMARK    5  A    between atoms: C_6  and  C_8
REMARK    6  A    between atoms: C_10  and  C_12
REMARK    7  A    between atoms: C_12  and  S_13
REMARK    8  A    between atoms: S_13  and  C_14
REMARK    9  A    between atoms: C_17  and  C_24
REMARK   10  A    between atoms: C_19  and  C_23
REMARK                            x       y       z     vdW  Elec       q    Type
REMARK                         _______ _______ _______ _____ _____    ______ ____
ROOT
ATOM      1  N   UNL     1      -2.396  -3.750   1.587  0.00  0.00    -0.286 N 
ATOM      2  C   UNL     1      -2.951  -3.998   2.790  0.00  0.00    +0.227 C 
ATOM      3  O   UNL     1      -3.297  -3.076   3.499  0.00  0.00    -0.275 OA
ATOM      4  H   UNL     1      -2.185  -4.484   0.989  0.00  0.00    +0.155 HD
ENDROOT
BRANCH   1   7
ATOM      5  N   UNL     1      -2.313  -0.139   0.662  0.00  0.00    -0.221 NA
ATOM      6  C   UNL     1      -3.115  -1.292   1.116  0.00  0.00    +0.118 C 
ATOM      7  C   UNL     1      -2.122  -2.432   1.200  0.00  0.00    +0.047 C 
ATOM      8  C   UNL     1      -0.947  -1.944   0.837  0.00  0.00    +0.034 C 
ATOM      9  N   UNL     1      -1.034  -0.595   0.516  0.00  0.00    -0.280 N 
ATOM     10  C   UNL     1       0.325  -2.749   0.779  0.00  0.00    +0.063 C 
ATOM     11  C   UNL     1      -4.212  -1.613   0.099  0.00  0.00    +0.032 C 
ATOM     12  H   UNL     1      -0.286  -0.050   0.226  0.00  0.00    +0.166 HD
BRANCH   5  14
ATOM     13  C   UNL     1      -2.019   1.631  -1.005  0.00  0.00    +0.022 C 
ATOM     14  C   UNL     1      -2.829   0.396  -0.605  0.00  0.00    +0.103 C 
ENDBRANCH   5  14
ENDBRANCH   1   7
BRANCH   2  15
ATOM     15  C   UNL     1      -3.142  -5.419   3.253  0.00  0.00    +0.173 C 
BRANCH  15  16
ATOM     16  S   UNL     1      -3.907  -5.421   4.898  0.00  0.00    -0.079 S 
BRANCH  16  17
ATOM     17  C   UNL     1      -4.062  -7.131   5.294  0.00  0.00    +0.168 A 
ATOM     18  N   UNL     1      -3.680  -8.120   4.524  0.00  0.00    -0.222 NA
ATOM     19  C   UNL     1      -3.945  -9.303   5.136  0.00  0.00    +0.093 A 
ATOM     20  C   UNL     1      -3.747 -10.638   4.771  0.00  0.00    -0.023 A 
ATOM     21  C   UNL     1      -4.131 -11.645   5.628  0.00  0.00    +0.009 A 
ATOM     22  C   UNL     1      -4.714 -11.345   6.851  0.00  0.00    -0.048 A 
ATOM     23  C   UNL     1      -4.916 -10.033   7.225  0.00  0.00    +0.031 A 
ATOM     24  C   UNL     1      -4.535  -9.005   6.375  0.00  0.00    +0.067 A 
ATOM     25  N   UNL     1      -4.592  -7.623   6.453  0.00  0.00    -0.333 N 
ATOM     26  C   UNL     1      -5.128 -12.460   7.776  0.00  0.00    +0.044 C 
ATOM     27  C   UNL     1      -3.116 -10.973   3.445  0.00  0.00    +0.046 C 
ATOM     28  H   UNL     1      -4.945  -7.103   7.191  0.00  0.00    +0.168 HD
ENDBRANCH  16  17
ENDBRANCH  15  16
ENDBRANCH   2  15
TORSDOF 5
