REMARK  Name = ZINC39862896
REMARK  6 active torsions:
REMARK  status: ('A' for Active; 'I' for Inactive)
REMARK    1  A    between atoms: C_1  and  C_2
REMARK    2  A    between atoms: C_2  and  N_3
REMARK    3  A    between atoms: C_7  and  C_8
REMARK    4  A    between atoms: C_7  and  C_9
REMARK    5  A    between atoms: C_13  and  N_15
REMARK    6  A    between atoms: N_18  and  C_19
REMARK                            x       y       z     vdW  Elec       q    Type
REMARK                         _______ _______ _______ _____ _____    ______ ____
ROOT
ATOM      1  N   UNL     1       0.711  -0.489   1.189  0.00  0.00    -0.246 N 
ATOM      2  C   UNL     1       2.018  -0.684   1.137  0.00  0.00    +0.259 C 
ATOM      3  O   UNL     1       2.653  -0.470   0.122  0.00  0.00    -0.269 OA
ATOM      4  C   UNL     1       2.670  -1.175   2.368  0.00  0.00    +0.081 C 
ATOM      5  C   UNL     1       3.977  -1.456   2.596  0.00  0.00    -0.024 C 
ATOM      6  C   UNL     1       4.990  -1.275   1.495  0.00  0.00    +0.045 C 
ATOM      7  S   UNL     1       1.274  -1.295   3.478  0.00  0.00    -0.048 S 
ATOM      8  C   UNL     1       0.009  -0.733   2.350  0.00  0.00    +0.168 C 
ATOM      9  N   UNL     1      -1.277  -0.588   2.572  0.00  0.00    -0.224 NA
ENDROOT
BRANCH   5  10
ATOM     10  C   UNL     1       4.406  -1.938   3.917  0.00  0.00    -0.019 A 
ATOM     11  C   UNL     1       4.289  -1.110   5.039  0.00  0.00    +0.008 A 
ATOM     12  C   UNL     1       4.692  -1.566   6.277  0.00  0.00    +0.002 A 
ATOM     13  C   UNL     1       5.213  -2.840   6.414  0.00  0.00    +0.023 A 
ATOM     14  C   UNL     1       5.334  -3.672   5.306  0.00  0.00    +0.025 A 
ATOM     15  C   UNL     1       4.926  -3.228   4.059  0.00  0.00    +0.031 A 
BRANCH  14  16
ATOM     16  N   UNL     1       5.861  -4.957   5.453  0.00  0.00    -0.358 N 
ATOM     17  H   UNL     1       6.142  -5.270   6.327  0.00  0.00    +0.142 HD
ATOM     18  H   UNL     1       5.945  -5.538   4.680  0.00  0.00    +0.142 HD
ENDBRANCH  14  16
ENDBRANCH   5  10
BRANCH   9  19
ATOM     19  C   UNL     1      -1.796  -0.883   3.804  0.00  0.00    +0.085 A 
ATOM     20  C   UNL     1      -2.715  -0.020   4.415  0.00  0.00    +0.031 A 
ATOM     21  C   UNL     1      -3.210  -0.365   5.660  0.00  0.00    +0.022 A 
ATOM     22  C   UNL     1      -2.786  -1.540   6.256  0.00  0.00    +0.111 A 
ATOM     23  N   UNL     1      -1.919  -2.334   5.657  0.00  0.00    -0.261 NA
ATOM     24  C   UNL     1      -1.424  -2.053   4.470  0.00  0.00    +0.138 A 
ENDBRANCH   9  19
BRANCH   1  26
ATOM     25  C   UNL     1      -0.019   1.526   0.010  0.00  0.00    +0.025 C 
ATOM     26  C   UNL     1       0.002  -0.004   0.002  0.00  0.00    +0.112 C 
ENDBRANCH   1  26
TORSDOF 4
