REMARK  Name = ZINC16450518
REMARK  8 active torsions:
REMARK  status: ('A' for Active; 'I' for Inactive)
REMARK    1  A    between atoms: C_4  and  O_10
REMARK    2  A    between atoms: C_5  and  N_7
REMARK    3  A    between atoms: O_10  and  C_11
REMARK    4  A    between atoms: C_11  and  C_12
REMARK    5  A    between atoms: N_14  and  C_15
REMARK    6  A    between atoms: C_15  and  N_17
REMARK    7  A    between atoms: N_17  and  C_18
REMARK    8  A    between atoms: C_19  and  C_26
REMARK                            x       y       z     vdW  Elec       q    Type
REMARK                         _______ _______ _______ _____ _____    ______ ____
ROOT
ATOM      1  C   UNL     1      -3.990   5.867   0.053  0.00  0.00    +0.141 C 
ATOM      2  S   UNL     1      -5.335   4.807   0.053  0.00  0.00    -0.018 S 
ENDROOT
BRANCH   1   5
ATOM      3  C   UNL     1      -2.545   4.034   0.036  0.00  0.00    +0.256 C 
ATOM      4  O   UNL     1      -3.497   3.283   0.036  0.00  0.00    -0.272 OA
ATOM      5  N   UNL     1      -2.738   5.367   0.044  0.00  0.00    -0.265 N 
ATOM      6  H   UNL     1      -1.977   5.968   0.044  0.00  0.00    +0.157 HD
BRANCH   3   7
ATOM      7  C   UNL     1      -1.145   3.475   0.026  0.00  0.00    +0.325 C 
BRANCH   7   8
ATOM      8  O   UNL     1      -1.202   2.047   0.019  0.00  0.00    -0.480 OA
BRANCH   8  12
ATOM      9  C   UNL     1       2.396   0.030  -0.021  0.00  0.00    +0.002 A 
ATOM     10  C   UNL     1       2.380   1.413  -0.014  0.00  0.00    +0.004 A 
ATOM     11  C   UNL     1       1.177   2.091   0.002  0.00  0.00    +0.048 A 
ATOM     12  C   UNL     1      -0.017   1.383   0.010  0.00  0.00    +0.151 A 
ATOM     13  C   UNL     1       0.002  -0.004   0.002  0.00  0.00    +0.168 A 
ATOM     14  C   UNL     1       1.208  -0.677  -0.013  0.00  0.00    +0.036 A 
BRANCH  13  15
ATOM     15  N   UNL     1      -1.269  -0.762   0.010  0.00  0.00    +0.060 N 
ATOM     16  O   UNL     1      -1.252  -1.980   0.003  0.00  0.00    -0.126 OA
ATOM     17  O   UNL     1      -2.332  -0.168   0.022  0.00  0.00    -0.126 OA
ENDBRANCH  13  15
ENDBRANCH   8  12
ENDBRANCH   7   8
ENDBRANCH   3   7
ENDBRANCH   1   5
BRANCH   1  18
ATOM     18  N   UNL     1      -4.184   7.201   0.061  0.00  0.00    -0.291 N 
ATOM     19  H   UNL     1      -3.422   7.801   0.061  0.00  0.00    +0.154 HD
BRANCH  18  20
ATOM     20  C   UNL     1      -5.471   7.714   0.070  0.00  0.00    +0.084 A 
ATOM     21  C   UNL     1      -5.868   9.040   0.085  0.00  0.00    +0.068 A 
ATOM     22  C   UNL     1      -7.304   9.317   0.088  0.00  0.00    -0.023 A 
ATOM     23  C   UNL     1      -8.095   8.229   0.086  0.00  0.00    -0.004 A 
ATOM     24  S   UNL     1      -6.972   6.853   0.073  0.00  0.00    -0.077 S 
ATOM     25  C   UNL     1      -9.555   8.593   0.092  0.00  0.00    +0.043 C 
ATOM     26  C   UNL     1      -9.588  10.077  -0.337  0.00  0.00    +0.010 C 
ATOM     27  C   UNL     1      -8.192  10.562   0.102  0.00  0.00    +0.037 C 
BRANCH  21  28
ATOM     28  C   UNL     1      -4.885  10.128   0.093  0.00  0.00    +0.244 C 
ATOM     29  O   UNL     1      -4.481  10.590  -0.958  0.00  0.00    -0.270 OA
ATOM     30  N   UNL     1      -4.429  10.616   1.263  0.00  0.00    -0.325 N 
ATOM     31  H   UNL     1      -4.751  10.247   2.101  0.00  0.00    +0.145 HD
ATOM     32  H   UNL     1      -3.779  11.335   1.268  0.00  0.00    +0.145 HD
ENDBRANCH  21  28
ENDBRANCH  18  20
ENDBRANCH   1  18
TORSDOF 8
