REMARK  Name = ZINC12244472
REMARK  12 active torsions:
REMARK  status: ('A' for Active; 'I' for Inactive)
REMARK    1  A    between atoms: C_1  and  O_2
REMARK    2  A    between atoms: O_2  and  C_3
REMARK    3  A    between atoms: C_8  and  C_9
REMARK    4  A    between atoms: C_9  and  C_10
REMARK    5  A    between atoms: C_10  and  N_11
REMARK    6  A    between atoms: C_12  and  C_14
REMARK    7  A    between atoms: C_17  and  N_35
REMARK    8  A    between atoms: C_20  and  C_21
REMARK    9  A    between atoms: C_20  and  N_70
REMARK   10  A    between atoms: C_24  and  O_27
REMARK   11  A    between atoms: O_27  and  C_28
REMARK   12  A    between atoms: C_28  and  C_29
REMARK                            x       y       z     vdW  Elec       q    Type
REMARK                         _______ _______ _______ _____ _____    ______ ____
ROOT
ATOM      1  C   UNL     1       5.979  -0.892  -2.653  0.00  0.00    +0.022 C 
ATOM      2  C   UNL     1       7.107   0.062  -2.205  0.00  0.00    +0.019 C 
ATOM      3  C   UNL     1       8.286  -0.331  -3.133  0.00  0.00    +0.093 C 
ATOM      4  C   UNL     1       7.547  -0.667  -4.452  0.00  0.00    -0.050 C 
ATOM      5  N   UNL     1       6.306  -1.338  -4.017  0.00  0.00    +0.391 N 
ATOM      6  H   UNL     1       6.452  -2.354  -4.017  0.00  0.00    -0.080 HD
ENDROOT
BRANCH   3   7
ATOM      7  N   UNL     1       9.205   0.795  -3.318  0.00  0.00    -0.231 N 
ATOM      8  C   UNL     1       9.026   1.847  -4.139  0.00  0.00    +0.245 A 
ATOM      9  N   UNL     1      10.078   2.616  -4.000  0.00  0.00    -0.117 NA
ATOM     10  N   UNL     1      10.863   2.065  -3.140  0.00  0.00    -0.023 NA
ATOM     11  N   UNL     1      10.336   0.967  -2.721  0.00  0.00    -0.044 NA
ENDBRANCH   3   7
BRANCH   1  13
ATOM     12  N   UNL     1       3.710  -0.518  -1.742  0.00  0.00    -0.316 N 
ATOM     13  C   UNL     1       4.658  -0.168  -2.634  0.00  0.00    +0.200 C 
ATOM     14  O   UNL     1       4.447   0.729  -3.422  0.00  0.00    -0.278 OA
ATOM     15  H   UNL     1       3.879  -1.236  -1.111  0.00  0.00    +0.149 HD
BRANCH  12  16
ATOM     16  C   UNL     1       2.426   0.186  -1.724  0.00  0.00    +0.109 C 
BRANCH  16  17
ATOM     17  C   UNL     1       1.538  -0.402  -0.625  0.00  0.00    +0.057 C 
BRANCH  17  23
ATOM     18  C   UNL     1      -0.804  -0.074  -1.458  0.00  0.00    +0.123 A 
ATOM     19  C   UNL     1      -2.018   0.598  -1.442  0.00  0.00    +0.046 A 
ATOM     20  C   UNL     1      -2.211   1.653  -0.571  0.00  0.00    +0.004 A 
ATOM     21  C   UNL     1      -1.192   2.046   0.277  0.00  0.00    +0.000 A 
ATOM     22  C   UNL     1       0.020   1.381   0.259  0.00  0.00    +0.007 A 
ATOM     23  C   UNL     1       0.216   0.322  -0.606  0.00  0.00    -0.004 A 
BRANCH  18  25
ATOM     24  C   UNL     1      -1.708  -1.468  -3.159  0.00  0.00    +0.277 C 
ATOM     25  O   UNL     1      -0.614  -1.115  -2.311  0.00  0.00    -0.495 OA
ENDBRANCH  18  25
ENDBRANCH  17  23
ENDBRANCH  16  17
ENDBRANCH  12  16
ENDBRANCH   1  13
BRANCH   5  26
ATOM     26  C   UNL     1       5.193  -1.007  -4.945  0.00  0.00    -0.042 C 
BRANCH  26  27
ATOM     27  C   UNL     1       5.365  -1.785  -6.224  0.00  0.00    -0.064 A 
ATOM     28  C   UNL     1       6.083  -1.240  -7.272  0.00  0.00    +0.005 A 
ATOM     29  C   UNL     1       6.246  -1.954  -8.444  0.00  0.00    +0.046 A 
ATOM     30  C   UNL     1       5.680  -3.214  -8.572  0.00  0.00    +0.121 A 
ATOM     31  C   UNL     1       4.955  -3.756  -7.521  0.00  0.00    +0.046 A 
ATOM     32  C   UNL     1       4.799  -3.041  -6.349  0.00  0.00    +0.005 A 
BRANCH  30  33
ATOM     33  O   UNL     1       5.835  -3.915  -9.725  0.00  0.00    -0.487 OA
BRANCH  33  34
ATOM     34  C   UNL     1       6.593  -3.295 -10.765  0.00  0.00    +0.264 C 
BRANCH  34  35
ATOM     35  C   UNL     1       6.657  -4.215 -11.957  0.00  0.00    -0.010 A 
ATOM     36  C   UNL     1       7.690  -5.126 -12.072  0.00  0.00    +0.007 A 
ATOM     37  C   UNL     1       7.747  -5.973 -13.163  0.00  0.00    +0.000 A 
ATOM     38  C   UNL     1       6.776  -5.901 -14.145  0.00  0.00    +0.000 A 
ATOM     39  C   UNL     1       5.746  -4.986 -14.033  0.00  0.00    +0.000 A 
ATOM     40  C   UNL     1       5.687  -4.143 -12.939  0.00  0.00    +0.007 A 
ENDBRANCH  34  35
ENDBRANCH  33  34
ENDBRANCH  30  33
ENDBRANCH  26  27
ENDBRANCH   5  26
TORSDOF 11
