REMARK  Name = ZINC60340303
REMARK  9 active torsions:
REMARK  status: ('A' for Active; 'I' for Inactive)
REMARK    1  A    between atoms: C_1  and  C_2
REMARK    2  A    between atoms: C_2  and  C_3
REMARK    3  A    between atoms: C_2  and  C_4
REMARK    4  A    between atoms: C_4  and  N_5
REMARK    5  A    between atoms: C_15  and  S_16
REMARK    6  A    between atoms: S_16  and  C_17
REMARK    7  A    between atoms: C_17  and  C_18
REMARK    8  A    between atoms: C_18  and  C_19
REMARK    9  A    between atoms: C_19  and  C_20
REMARK                            x       y       z     vdW  Elec       q    Type
REMARK                         _______ _______ _______ _____ _____    ______ ____
ROOT
ATOM      1  N   UNL     1      -1.416  -1.993  -0.116  0.00  0.00    -0.287 N 
ATOM      2  C   UNL     1      -1.450  -2.559  -1.344  0.00  0.00    +0.262 A 
ATOM      3  O   UNL     1      -1.493  -1.878  -2.352  0.00  0.00    -0.267 OA
ATOM      4  C   UNL     1      -1.431  -4.026  -1.417  0.00  0.00    +0.066 A 
ATOM      5  C   UNL     1      -1.462  -4.703  -2.636  0.00  0.00    +0.030 A 
ATOM      6  C   UNL     1      -1.442  -6.081  -2.645  0.00  0.00    +0.019 A 
ATOM      7  C   UNL     1      -1.391  -6.795  -1.454  0.00  0.00    +0.017 A 
ATOM      8  C   UNL     1      -1.361  -6.152  -0.249  0.00  0.00    +0.029 A 
ATOM      9  C   UNL     1      -1.379  -4.755  -0.207  0.00  0.00    +0.079 A 
ATOM     10  N   UNL     1      -1.349  -4.081   0.967  0.00  0.00    -0.223 NA
ATOM     11  C   UNL     1      -1.362  -2.771   1.006  0.00  0.00    +0.172 A 
ATOM     12 BR   UNL     1      -1.484  -7.008  -4.293  0.00  0.00    -0.050 Br
ENDROOT
BRANCH   1  13
ATOM     13  C   UNL     1      -1.433  -0.534   0.013  0.00  0.00    +0.130 C 
BRANCH  13  15
ATOM     14  C   UNL     1      -0.019   1.526   0.010  0.00  0.00    +0.009 C 
ATOM     15  C   UNL     1       0.002  -0.004   0.002  0.00  0.00    +0.003 C 
ATOM     16  C   UNL     1       0.742  -0.511   1.242  0.00  0.00    +0.009 C 
ENDBRANCH  13  15
ENDBRANCH   1  13
BRANCH  11  17
ATOM     17  S   UNL     1      -1.312  -1.977   2.578  0.00  0.00    -0.088 S 
BRANCH  17  18
ATOM     18  C   UNL     1      -1.246  -3.350   3.761  0.00  0.00    +0.078 C 
BRANCH  18  19
ATOM     19  C   UNL     1      -1.199  -2.793   5.186  0.00  0.00    +0.020 C 
BRANCH  19  20
ATOM     20  C   UNL     1      -1.143  -3.952   6.184  0.00  0.00    +0.097 C 
BRANCH  20  21
ATOM     21  C   UNL     1      -1.097  -3.404   7.587  0.00  0.00    +0.220 C 
ATOM     22  O   UNL     1      -1.107  -2.205   7.770  0.00  0.00    -0.275 OA
ATOM     23  N   UNL     1      -1.044  -4.246   8.638  0.00  0.00    -0.240 N 
ATOM     24  C   UNL     1      -1.002  -3.756   9.893  0.00  0.00    +0.303 C 
ATOM     25  O   UNL     1      -1.013  -2.554  10.076  0.00  0.00    -0.253 OA
ATOM     26  N   UNL     1      -0.949  -4.598  10.944  0.00  0.00    -0.313 N 
ATOM     27  H   UNL     1      -1.036  -5.205   8.491  0.00  0.00    +0.159 HD
ATOM     28  H   UNL     1      -0.941  -5.557  10.797  0.00  0.00    +0.146 HD
ATOM     29  H   UNL     1      -0.919  -4.245  11.847  0.00  0.00    +0.146 HD
ENDBRANCH  20  21
ENDBRANCH  19  20
ENDBRANCH  18  19
ENDBRANCH  17  18
ENDBRANCH  11  17
TORSDOF 7
