REMARK  Name = ZINC51586913
REMARK  4 active torsions:
REMARK  status: ('A' for Active; 'I' for Inactive)
REMARK    1  A    between atoms: N_4  and  C_6
REMARK    2  A    between atoms: C_9  and  C_25
REMARK    3  A    between atoms: C_11  and  N_12
REMARK    4  A    between atoms: C_19  and  C_22
REMARK                            x       y       z     vdW  Elec       q    Type
REMARK                         _______ _______ _______ _____ _____    ______ ____
ROOT
ATOM      1  C   UNL     1       1.869  -1.828  -0.614  0.00  0.00    +0.087 A 
ATOM      2  C   UNL     1       0.930  -2.845  -0.512  0.00  0.00    +0.030 A 
ATOM      3  C   UNL     1       1.274  -4.046   0.079  0.00  0.00    +0.014 A 
ATOM      4  C   UNL     1       2.552  -4.239   0.570  0.00  0.00    +0.057 A 
ATOM      5  C   UNL     1       3.494  -3.232   0.473  0.00  0.00    +0.037 A 
ATOM      6  C   UNL     1       3.159  -2.025  -0.123  0.00  0.00    +0.061 A 
ENDROOT
BRANCH   6   7
ATOM      7  N   UNL     1       4.112  -1.004  -0.228  0.00  0.00    -0.267 N 
ATOM      8  C   UNL     1       5.408  -1.312  -0.436  0.00  0.00    +0.307 C 
ATOM      9  O   UNL     1       5.735  -2.467  -0.631  0.00  0.00    -0.252 OA
ATOM     10  N   UNL     1       6.341  -0.339  -0.428  0.00  0.00    -0.280 N 
ATOM     11  C   UNL     1       5.959   1.076  -0.296  0.00  0.00    +0.137 C 
ATOM     12  C   UNL     1       6.801   1.702   0.821  0.00  0.00    +0.180 C 
ATOM     13  O   UNL     1       8.184   1.438   0.573  0.00  0.00    -0.364 OA
ATOM     14  C   UNL     1       8.525   0.050   0.580  0.00  0.00    +0.221 C 
ATOM     15  C   UNL     1       7.772  -0.661  -0.544  0.00  0.00    +0.150 C 
ATOM     16  H   UNL     1       3.840  -0.077  -0.150  0.00  0.00    +0.156 HD
BRANCH  14  17
ATOM     17  C   UNL     1      10.009  -0.105   0.371  0.00  0.00    +0.241 C 
ATOM     18  O   UNL     1      10.694   0.869   0.140  0.00  0.00    -0.273 OA
ATOM     19  N   UNL     1      10.576  -1.325   0.442  0.00  0.00    -0.327 N 
ATOM     20  H   UNL     1      10.029  -2.104   0.627  0.00  0.00    +0.145 HD
ATOM     21  H   UNL     1      11.532  -1.425   0.308  0.00  0.00    +0.145 HD
ENDBRANCH  14  17
ENDBRANCH   6   7
BRANCH   1  25
ATOM     22  C   UNL     1       0.408   0.953  -2.260  0.00  0.00    +0.041 A 
ATOM     23  C   UNL     1       1.668   1.463  -1.927  0.00  0.00    +0.135 A 
ATOM     24  N   UNL     1       2.336   0.528  -1.300  0.00  0.00    -0.175 NA
ATOM     25  N   UNL     1       1.522  -0.609  -1.214  0.00  0.00    -0.238 N 
ATOM     26  C   UNL     1       0.343  -0.322  -1.810  0.00  0.00    +0.114 A 
ENDBRANCH   1  25
BRANCH   4  27
ATOM     27  C   UNL     1       2.920  -5.551   1.214  0.00  0.00    +0.417 C 
ATOM     28  F   UNL     1       1.812  -6.405   1.197  0.00  0.00    -0.166 F 
ATOM     29  F   UNL     1       3.973  -6.139   0.506  0.00  0.00    -0.166 F 
ATOM     30  F   UNL     1       3.315  -5.326   2.537  0.00  0.00    -0.166 F 
ENDBRANCH   4  27
TORSDOF 4
