REMARK  Name = ZINC50701755
REMARK  5 active torsions:
REMARK  status: ('A' for Active; 'I' for Inactive)
REMARK    1  A    between atoms: C_2  and  C_12
REMARK    2  A    between atoms: C_5  and  N_10
REMARK    3  A    between atoms: C_6  and  N_7
REMARK    4  A    between atoms: N_14  and  C_15
REMARK    5  A    between atoms: C_15  and  C_16
REMARK                            x       y       z     vdW  Elec       q    Type
REMARK                         _______ _______ _______ _____ _____    ______ ____
ROOT
ATOM      1  C   UNL     1       0.037   1.384   0.329  0.00  0.00    +0.047 A 
ATOM      2  C   UNL     1       1.214   2.085   0.053  0.00  0.00    +0.040 A 
ATOM      3  C   UNL     1       2.378   1.387  -0.283  0.00  0.00    +0.035 A 
ATOM      4  C   UNL     1       2.361   0.011  -0.341  0.00  0.00    +0.065 A 
ATOM      5  C   UNL     1       1.186  -0.684  -0.065  0.00  0.00    +0.074 A 
ATOM      6  C   UNL     1       0.026   0.009   0.270  0.00  0.00    +0.149 A 
ATOM      7 CL   UNL     1       3.805  -0.857  -0.759  0.00  0.00    -0.082 Cl
ENDROOT
BRANCH   2   8
ATOM      8  C   UNL     1       1.229   3.559   0.116  0.00  0.00    +0.244 C 
ATOM      9  O   UNL     1       0.216   4.165   0.408  0.00  0.00    -0.270 OA
ATOM     10  N   UNL     1       2.365   4.234  -0.151  0.00  0.00    -0.311 N 
ATOM     11  H   UNL     1       3.173   3.750  -0.384  0.00  0.00    +0.149 HD
BRANCH  10  12
ATOM     12  C   UNL     1       2.379   5.697  -0.089  0.00  0.00    +0.108 C 
BRANCH  12  13
ATOM     13  C   UNL     1       3.780   6.209  -0.432  0.00  0.00    +0.006 C 
ATOM     14  C   UNL     1       4.774   5.812   0.679  0.00  0.00    +0.005 C 
ATOM     15  C   UNL     1       5.728   7.028   0.787  0.00  0.00    +0.000 C 
ATOM     16  C   UNL     1       4.773   8.230   0.583  0.00  0.00    +0.000 C 
ATOM     17  C   UNL     1       3.779   7.746  -0.493  0.00  0.00    +0.005 C 
ENDBRANCH  12  13
ENDBRANCH  10  12
ENDBRANCH   2   8
BRANCH   6  18
ATOM     18  N   UNL     1      -1.220  -0.734   0.563  0.00  0.00    +0.058 N 
ATOM     19  O   UNL     1      -2.286  -0.291   0.204  0.00  0.00    -0.126 OA
ATOM     20  O   UNL     1      -1.172  -1.783   1.161  0.00  0.00    -0.126 OA
ENDBRANCH   6  18
BRANCH   5  21
ATOM     21  N   UNL     1       1.171  -2.074  -0.125  0.00  0.00    -0.355 N 
ATOM     22  H   UNL     1       2.000  -2.563  -0.244  0.00  0.00    +0.142 HD
ATOM     23  H   UNL     1       0.332  -2.554  -0.047  0.00  0.00    +0.142 HD
ENDBRANCH   5  21
TORSDOF 5
