REMARK  Name = ZINC20450589
REMARK  13 active torsions:
REMARK  status: ('A' for Active; 'I' for Inactive)
REMARK    1  A    between atoms: C_1  and  C_2
REMARK    2  A    between atoms: C_7  and  C_21
REMARK    3  A    between atoms: N_15  and  C_18
REMARK    4  A    between atoms: C_18  and  C_19
REMARK    5  A    between atoms: C_19  and  O_20
REMARK    6  A    between atoms: C_21  and  N_22
REMARK    7  A    between atoms: N_22  and  C_23
REMARK    8  A    between atoms: C_23  and  C_24
REMARK    9  A    between atoms: C_24  and  O_25
REMARK   10  A    between atoms: O_25  and  C_26
REMARK   11  A    between atoms: C_27  and  C_29
REMARK   12  A    between atoms: C_35  and  C_40
REMARK   13  A    between atoms: C_36  and  C_39
REMARK                            x       y       z     vdW  Elec       q    Type
REMARK                         _______ _______ _______ _____ _____    ______ ____
ROOT
ATOM      1  C   UNL     1      -7.422   0.520  -4.760  0.00  0.00    +0.044 C 
ATOM      2  C   UNL     1      -6.434   1.582  -4.350  0.00  0.00    -0.048 A 
ATOM      3  C   UNL     1      -6.585   2.881  -4.832  0.00  0.00    +0.004 A 
ATOM      4  C   UNL     1      -5.708   3.862  -4.479  0.00  0.00    +0.010 A 
ATOM      5  C   UNL     1      -4.641   3.563  -3.619  0.00  0.00    -0.001 A 
ATOM      6  C   UNL     1      -3.714   4.553  -3.231  0.00  0.00    +0.018 A 
ATOM      7  C   UNL     1      -2.701   4.196  -2.394  0.00  0.00    +0.008 A 
ATOM      8  C   UNL     1      -2.601   2.872  -1.942  0.00  0.00    +0.104 A 
ATOM      9  N   UNL     1      -3.467   1.951  -2.311  0.00  0.00    -0.343 N 
ATOM     10  C   UNL     1      -4.486   2.244  -3.128  0.00  0.00    +0.048 A 
ATOM     11  C   UNL     1      -5.410   1.258  -3.514  0.00  0.00    +0.029 A 
ATOM     12  N   UNL     1      -1.564   2.524  -1.090  0.00  0.00    -0.314 N 
ATOM     13  C   UNL     1      -1.194   1.112  -1.261  0.00  0.00    +0.122 C 
ATOM     14  C   UNL     1       0.003   0.788  -0.364  0.00  0.00    +0.103 C 
ATOM     15  N   UNL     1      -0.345   1.073   1.035  0.00  0.00    -0.297 NA
ATOM     16  C   UNL     1      -0.716   2.484   1.206  0.00  0.00    +0.103 C 
ATOM     17  C   UNL     1      -1.913   2.808   0.309  0.00  0.00    +0.122 C 
ATOM     18  H   UNL     1      -3.361   0.919  -1.948  0.00  0.00    +0.167 HD
ENDROOT
BRANCH  15  19
ATOM     19  C   UNL     1       0.754   0.703   1.937  0.00  0.00    +0.112 C 
BRANCH  19  20
ATOM     20  C   UNL     1       0.391   1.095   3.371  0.00  0.00    +0.171 C 
BRANCH  20  21
ATOM     21  O   UNL     1      -0.744   0.339   3.799  0.00  0.00    -0.394 OA
ATOM     22  H   UNL     1      -1.153   0.485   4.809  0.00  0.00    +0.209 HD
ENDBRANCH  20  21
ENDBRANCH  19  20
ENDBRANCH  15  19
BRANCH   7  23
ATOM     23  C   UNL     1      -1.688   5.222  -1.954  0.00  0.00    +0.146 C 
BRANCH  23  24
ATOM     24  N   UNL     1      -0.492   5.119  -2.794  0.00  0.00    -0.291 N 
ATOM     25  C   UNL     1       0.569   4.404  -2.371  0.00  0.00    +0.247 C 
ATOM     26  O   UNL     1       0.510   3.792  -1.321  0.00  0.00    -0.270 OA
BRANCH  25  27
ATOM     27  C   UNL     1       1.802   4.362  -3.181  0.00  0.00    +0.038 A 
ATOM     28  C   UNL     1       2.224   5.506  -3.874  0.00  0.00    +0.015 A 
ATOM     29  C   UNL     1       3.363   5.485  -4.623  0.00  0.00    +0.027 A 
ATOM     30  C   UNL     1       4.120   4.319  -4.717  0.00  0.00    +0.047 A 
ATOM     31  C   UNL     1       3.704   3.162  -4.029  0.00  0.00    +0.004 A 
ATOM     32  C   UNL     1       2.543   3.187  -3.261  0.00  0.00    +0.023 A 
ATOM     33  C   UNL     1       4.702   2.131  -4.332  0.00  0.00    -0.022 A 
ATOM     34  C   UNL     1       5.613   2.695  -5.140  0.00  0.00    +0.017 A 
ATOM     35  N   UNL     1       5.280   4.001  -5.380  0.00  0.00    -0.358 N 
ATOM     36  H   UNL     1       5.791   4.760  -5.990  0.00  0.00    +0.166 HD
ATOM     37  C   UNL     1       6.822   1.993  -5.702  0.00  0.00    +0.063 C 
ATOM     38  C   UNL     1       4.705   0.710  -3.829  0.00  0.00    +0.046 C 
ENDBRANCH  25  27
BRANCH  24  39
ATOM     39  C   UNL     1      -0.449   5.793  -4.094  0.00  0.00    +0.136 C 
BRANCH  39  40
ATOM     40  C   UNL     1      -0.605   7.302  -3.892  0.00  0.00    +0.178 C 
BRANCH  40  41
ATOM     41  O   UNL     1       0.520   7.804  -3.168  0.00  0.00    -0.381 OA
ATOM     42  C   UNL     1       0.473   9.211  -2.924  0.00  0.00    +0.194 C 
ENDBRANCH  40  41
ENDBRANCH  39  40
ENDBRANCH  24  39
ENDBRANCH  23  24
ENDBRANCH   7  23
TORSDOF 9
