REMARK  Name = ZINC43403880
REMARK  9 active torsions:
REMARK  status: ('A' for Active; 'I' for Inactive)
REMARK    1  A    between atoms: C_1  and  C_2
REMARK    2  A    between atoms: C_4  and  O_22
REMARK    3  A    between atoms: C_5  and  O_20
REMARK    4  A    between atoms: C_7  and  N_8
REMARK    5  A    between atoms: N_11  and  C_12
REMARK    6  A    between atoms: N_11  and  C_13
REMARK    7  A    between atoms: C_16  and  C_19
REMARK    8  A    between atoms: O_20  and  C_21
REMARK    9  A    between atoms: O_22  and  C_23
REMARK                            x       y       z     vdW  Elec       q    Type
REMARK                         _______ _______ _______ _____ _____    ______ ____
ROOT
ATOM      1  N   UNL     1       0.025  -0.009   2.417  0.00  0.00    -0.269 N 
ATOM      2  C   UNL     1      -0.056  -0.685   3.580  0.00  0.00    +0.306 C 
ATOM      3  O   UNL     1      -0.040  -1.901   3.578  0.00  0.00    -0.252 OA
ATOM      4  N   UNL     1      -0.155  -0.015   4.745  0.00  0.00    -0.285 N 
ATOM      5  C   UNL     1      -0.174   1.450   4.747  0.00  0.00    +0.134 C 
ATOM      6  H   UNL     1       0.078   0.960   2.423  0.00  0.00    +0.156 HD
ENDROOT
BRANCH   1  13
ATOM      7  C   UNL     1      -1.265   1.183   0.182  0.00  0.00    +0.046 C 
ATOM      8  C   UNL     1      -0.584  -0.158   0.085  0.00  0.00    -0.026 A 
ATOM      9  C   UNL     1      -0.572  -0.840  -1.117  0.00  0.00    +0.054 A 
ATOM     10  C   UNL     1       0.053  -2.073  -1.209  0.00  0.00    +0.162 A 
ATOM     11  C   UNL     1       0.669  -2.626  -0.090  0.00  0.00    +0.163 A 
ATOM     12  C   UNL     1       0.656  -1.942   1.114  0.00  0.00    +0.073 A 
ATOM     13  C   UNL     1       0.034  -0.704   1.201  0.00  0.00    +0.041 A 
BRANCH  11  14
ATOM     14  O   UNL     1       1.282  -3.837  -0.180  0.00  0.00    -0.491 OA
ATOM     15  C   UNL     1       1.893  -4.343   1.008  0.00  0.00    +0.277 C 
ENDBRANCH  11  14
BRANCH  10  16
ATOM     16  O   UNL     1       0.064  -2.743  -2.393  0.00  0.00    -0.491 OA
ATOM     17  C   UNL     1      -0.588  -2.117  -3.500  0.00  0.00    +0.277 C 
ENDBRANCH  10  16
ENDBRANCH   1  13
BRANCH   4  18
ATOM     18  C   UNL     1      -0.244  -0.750   6.009  0.00  0.00    +0.077 C 
ATOM     19  C   UNL     1      -1.556  -0.399   6.712  0.00  0.00    +0.023 C 
ATOM     20  C   UNL     1      -1.649  -1.167   8.032  0.00  0.00    +0.005 C 
ATOM     21  C   UNL     1      -0.470  -0.783   8.930  0.00  0.00    -0.014 C 
ATOM     22  C   UNL     1       0.842  -1.135   8.226  0.00  0.00    +0.005 C 
ATOM     23  C   UNL     1       0.935  -0.366   6.906  0.00  0.00    +0.023 C 
ATOM     24  C   UNL     1      -0.563  -1.551  10.249  0.00  0.00    +0.007 C 
ENDBRANCH   4  18
TORSDOF 4
