REMARK  Name = ZINC09982964
REMARK  5 active torsions:
REMARK  status: ('A' for Active; 'I' for Inactive)
REMARK    1  A    between atoms: C_3  and  C_25
REMARK    2  A    between atoms: C_7  and  C_8
REMARK    3  A    between atoms: C_7  and  N_70
REMARK    4  A    between atoms: C_8  and  C_9
REMARK    5  A    between atoms: N_14  and  C_15
REMARK                            x       y       z     vdW  Elec       q    Type
REMARK                         _______ _______ _______ _____ _____    ______ ____
ROOT
ATOM      1  C   UNL     1       2.619   8.159   0.933  0.00  0.00    +0.219 C 
ATOM      2  O   UNL     1       1.459   8.513   0.939  0.00  0.00    -0.275 OA
ATOM      3  N   UNL     1       3.598   9.054   1.173  0.00  0.00    -0.240 N 
ATOM      4  C   UNL     1       3.287  10.342   1.419  0.00  0.00    +0.306 C 
ATOM      5  O   UNL     1       2.125  10.697   1.425  0.00  0.00    -0.252 OA
ATOM      6  N   UNL     1       4.266  11.237   1.659  0.00  0.00    -0.294 N 
ATOM      7  H   UNL     1       4.525   8.771   1.169  0.00  0.00    +0.159 HD
ATOM      8  H   UNL     1       5.194  10.954   1.655  0.00  0.00    +0.151 HD
ENDROOT
BRANCH   6   9
ATOM      9  C   UNL     1       3.929  12.637   1.927  0.00  0.00    +0.037 C 
ATOM     10  C   UNL     1       3.040  12.720   3.170  0.00  0.00    +0.029 C 
ATOM     11  C   UNL     1       2.688  14.182   3.449  0.00  0.00    -0.008 C 
ATOM     12  C   UNL     1       3.972  14.979   3.686  0.00  0.00    +0.007 C 
ATOM     13  C   UNL     1       4.861  14.897   2.443  0.00  0.00    -0.008 C 
ATOM     14  C   UNL     1       5.213  13.435   2.164  0.00  0.00    +0.029 C 
ATOM     15  C   UNL     1       4.113  15.480   1.243  0.00  0.00    +0.007 C 
ATOM     16  C   UNL     1       2.829  14.683   1.005  0.00  0.00    -0.008 C 
ATOM     17  C   UNL     1       1.940  14.765   2.248  0.00  0.00    +0.007 C 
ATOM     18  C   UNL     1       3.181  13.220   0.726  0.00  0.00    +0.029 C 
ENDBRANCH   6   9
BRANCH   1  19
ATOM     19  C   UNL     1       2.966   6.719   0.658  0.00  0.00    +0.078 C 
BRANCH  19  20
ATOM     20  C   UNL     1       1.682   5.921   0.421  0.00  0.00    -0.070 C 
BRANCH  20  26
ATOM     21  C   UNL     1       3.213   2.936  -1.288  0.00  0.00    -0.018 C 
ATOM     22  C   UNL     1       1.992   2.013  -1.285  0.00  0.00    +0.009 C 
ATOM     23  C   UNL     1       1.220   2.205   0.023  0.00  0.00    +0.059 C 
ATOM     24  C   UNL     1       0.817   3.675   0.160  0.00  0.00    -0.066 C 
ATOM     25  C   UNL     1       2.752   4.385  -1.113  0.00  0.00    -0.079 C 
ATOM     26  N   UNL     1       2.038   4.508   0.175  0.00  0.00    +0.381 N 
ATOM     27  H   UNL     1       2.653   4.184   0.930  0.00  0.00    -0.082 HD
BRANCH  23  28
ATOM     28  C   UNL     1      -0.016   1.344   0.009  0.00  0.00    +0.217 C 
ATOM     29  O   UNL     1      -1.077   1.810  -0.350  0.00  0.00    -0.275 OA
ATOM     30  N   UNL     1       0.058   0.053   0.392  0.00  0.00    -0.297 N 
ATOM     31  C   UNL     1       1.351  -0.566   0.722  0.00  0.00    +0.136 C 
ATOM     32  C   UNL     1       1.216  -1.258   2.088  0.00  0.00    +0.179 C 
ATOM     33  O   UNL     1       0.083  -2.130   2.062  0.00  0.00    -0.377 OA
ATOM     34  C   UNL     1      -1.164  -1.462   1.857  0.00  0.00    +0.179 C 
ATOM     35  C   UNL     1      -1.152  -0.779   0.485  0.00  0.00    +0.136 C 
ENDBRANCH  23  28
ENDBRANCH  20  26
ENDBRANCH  19  20
ENDBRANCH   1  19
TORSDOF 5
