REMARK  Name = ZINC19983398
REMARK  8 active torsions:
REMARK  status: ('A' for Active; 'I' for Inactive)
REMARK    1  A    between atoms: C_1  and  C_2
REMARK    2  A    between atoms: C_4  and  C_27
REMARK    3  A    between atoms: C_5  and  N_9
REMARK    4  A    between atoms: C_6  and  C_8
REMARK    5  A    between atoms: C_10  and  C_12
REMARK    6  A    between atoms: C_12  and  N_13
REMARK    7  A    between atoms: C_20  and  C_26
REMARK    8  A    between atoms: C_21  and  C_23
REMARK                            x       y       z     vdW  Elec       q    Type
REMARK                         _______ _______ _______ _____ _____    ______ ____
ROOT
ATOM      1  N   UNL     1       3.182   1.966  -1.098  0.00  0.00    -0.290 N 
ATOM      2  C   UNL     1       3.428   1.611  -2.383  0.00  0.00    +0.203 A 
ATOM      3  N   UNL     1       4.217   2.309  -3.153  0.00  0.00    -0.230 NA
ATOM      4  C   UNL     1       4.830   3.402  -2.715  0.00  0.00    +0.116 A 
ATOM      5  C   UNL     1       4.658   3.872  -1.393  0.00  0.00    +0.076 A 
ATOM      6  C   UNL     1       3.752   3.058  -0.551  0.00  0.00    +0.263 A 
ATOM      7  O   UNL     1       3.529   3.366   0.606  0.00  0.00    -0.267 OA
ATOM      8  C   UNL     1       5.363   5.033  -1.064  0.00  0.00    -0.017 A 
ATOM      9  C   UNL     1       6.152   5.636  -1.999  0.00  0.00    +0.079 A 
ATOM     10  S   UNL     1       5.947   4.583  -3.426  0.00  0.00    -0.064 S 
ATOM     11  C   UNL     1       5.249   5.619   0.319  0.00  0.00    +0.046 C 
ENDROOT
BRANCH   9  12
ATOM     12  C   UNL     1       6.967   6.847  -1.866  0.00  0.00    +0.248 C 
ATOM     13  O   UNL     1       6.991   7.450  -0.809  0.00  0.00    -0.270 OA
ATOM     14  N   UNL     1       7.688   7.293  -2.913  0.00  0.00    -0.325 N 
ATOM     15  H   UNL     1       8.299   8.203  -2.813  0.00  0.00    +0.145 HD
ATOM     16  H   UNL     1       7.666   6.748  -3.868  0.00  0.00    +0.145 HD
ENDBRANCH   9  12
BRANCH   1  17
ATOM     17  C   UNL     1       2.283   1.144  -0.286  0.00  0.00    +0.222 C 
BRANCH  17  19
ATOM     18  N   UNL     1      -0.134   1.043   0.231  0.00  0.00    -0.284 N 
ATOM     19  C   UNL     1       0.871   1.650  -0.431  0.00  0.00    +0.237 C 
ATOM     20  O   UNL     1       0.639   2.605  -1.142  0.00  0.00    -0.274 OA
ATOM     21  H   UNL     1       0.067   0.144   0.832  0.00  0.00    +0.155 HD
BRANCH  18  26
ATOM     22  C   UNL     1      -5.403   3.122  -0.086  0.00  0.00    +0.044 C 
ATOM     23  C   UNL     1      -4.004   2.570  -0.001  0.00  0.00    -0.050 A 
ATOM     24  C   UNL     1      -3.770   1.236  -0.281  0.00  0.00    +0.008 A 
ATOM     25  C   UNL     1      -2.489   0.726  -0.205  0.00  0.00    -0.029 A 
ATOM     26  C   UNL     1      -1.434   1.556   0.153  0.00  0.00    +0.039 A 
ATOM     27  C   UNL     1      -1.672   2.894   0.438  0.00  0.00    -0.029 A 
ATOM     28  C   UNL     1      -2.955   3.398   0.355  0.00  0.00    +0.008 A 
ATOM     29  C   UNL     1      -0.531   3.796   0.833  0.00  0.00    +0.045 C 
ATOM     30  C   UNL     1      -2.236  -0.728  -0.510  0.00  0.00    +0.045 C 
ENDBRANCH  18  26
ENDBRANCH  17  19
ENDBRANCH   1  17
TORSDOF 4
