REMARK  Name = ZINC14189465
REMARK  5 active torsions:
REMARK  status: ('A' for Active; 'I' for Inactive)
REMARK    1  A    between atoms: C_4  and  C_9
REMARK    2  A    between atoms: C_5  and  C_7
REMARK    3  A    between atoms: C_12  and  C_15
REMARK    4  A    between atoms: C_15  and  S_16
REMARK    5  A    between atoms: S_16  and  C_17
REMARK                            x       y       z     vdW  Elec       q    Type
REMARK                         _______ _______ _______ _____ _____    ______ ____
ROOT
ATOM      1  C   UNL     1      -0.017   1.390   0.010  0.00  0.00    -0.017 A 
ATOM      2  C   UNL     1       1.184   2.098   0.002  0.00  0.00    +0.009 A 
ATOM      3  C   UNL     1       2.384   1.416  -0.013  0.00  0.00    +0.005 A 
ATOM      4  C   UNL     1       2.396   0.033  -0.020  0.00  0.00    -0.037 A 
ATOM      5  C   UNL     1       1.208  -0.675  -0.013  0.00  0.00    +0.005 A 
ATOM      6  C   UNL     1       0.002  -0.004   0.002  0.00  0.00    +0.009 A 
ENDROOT
BRANCH   1  10
ATOM      7  C   UNL     1      -3.731   3.477   0.037  0.00  0.00    +0.001 A 
ATOM      8  C   UNL     1      -3.504   2.470  -0.886  0.00  0.00    +0.001 A 
ATOM      9  C   UNL     1      -2.302   1.791  -0.899  0.00  0.00    +0.010 A 
ATOM     10  C   UNL     1      -1.308   2.116   0.020  0.00  0.00    -0.001 A 
ATOM     11  C   UNL     1      -1.540   3.135   0.962  0.00  0.00    +0.059 A 
ATOM     12  C   UNL     1      -2.760   3.814   0.956  0.00  0.00    +0.019 A 
BRANCH  11  13
ATOM     13  C   UNL     1      -0.529   3.478   1.917  0.00  0.00    +0.100 C 
ATOM     14  N   UNL     1       0.273   3.749   2.674  0.00  0.00    -0.191 NA
ENDBRANCH  11  13
ENDBRANCH   1  10
BRANCH   4  15
ATOM     15  C   UNL     1       3.710  -0.706  -0.037  0.00  0.00    +0.111 C 
BRANCH  15  16
ATOM     16  S   UNL     1       4.221  -0.992  -1.754  0.00  0.00    -0.092 S 
BRANCH  16  17
ATOM     17  C   UNL     1       5.751  -1.853  -1.605  0.00  0.00    +0.160 A 
ATOM     18  N   UNL     1       6.402  -2.220  -0.517  0.00  0.00    -0.133 NA
ATOM     19  N   UNL     1       7.597  -2.892  -0.629  0.00  0.00    -0.125 NA
ATOM     20  C   UNL     1       8.086  -3.167  -1.822  0.00  0.00    +0.180 A 
ATOM     21  S   UNL     1       6.833  -2.469  -2.886  0.00  0.00    -0.025 S 
ATOM     22  N   UNL     1       9.261  -3.829  -2.161  0.00  0.00    -0.336 N 
ATOM     23  H   UNL     1       9.849  -4.160  -1.465  0.00  0.00    +0.144 HD
ATOM     24  H   UNL     1       9.492  -3.959  -3.094  0.00  0.00    +0.144 HD
ENDBRANCH  16  17
ENDBRANCH  15  16
ENDBRANCH   4  15
TORSDOF 5
