REMARK  Name = ZINC37734181
REMARK  6 active torsions:
REMARK  status: ('A' for Active; 'I' for Inactive)
REMARK    1  A    between atoms: C_1  and  C_2
REMARK    2  A    between atoms: C_4  and  C_15
REMARK    3  A    between atoms: C_7  and  S_8
REMARK    4  A    between atoms: S_8  and  C_9
REMARK    5  A    between atoms: N_13  and  C_14
REMARK    6  A    between atoms: N_16  and  O_17
REMARK                            x       y       z     vdW  Elec       q    Type
REMARK                         _______ _______ _______ _____ _____    ______ ____
ROOT
ATOM      1  C   UNL     1      -0.002   1.939   0.271  0.00  0.00    +0.045 C 
ATOM      2  C   UNL     1      -0.048   0.455   0.012  0.00  0.00    -0.036 A 
ATOM      3  C   UNL     1      -0.092  -0.017  -1.281  0.00  0.00    +0.016 A 
ATOM      4  C   UNL     1      -0.135  -1.392  -1.520  0.00  0.00    +0.018 A 
ATOM      5  C   UNL     1      -0.132  -2.285  -0.447  0.00  0.00    +0.012 A 
ATOM      6  C   UNL     1      -0.087  -1.808   0.844  0.00  0.00    +0.016 A 
ATOM      7  C   UNL     1      -0.039  -0.437   1.080  0.00  0.00    +0.019 A 
ENDROOT
BRANCH   4   8
ATOM      8  C   UNL     1      -0.183  -1.901  -2.907  0.00  0.00    +0.162 C 
ATOM      9  N   UNL     1      -0.187  -1.068  -3.907  0.00  0.00    -0.072 NA
ATOM     10  N   UNL     1      -0.225  -3.265  -3.143  0.00  0.00    -0.340 N 
ATOM     11  H   UNL     1      -0.223  -3.887  -2.398  0.00  0.00    +0.144 HD
ATOM     12  H   UNL     1      -0.257  -3.599  -4.053  0.00  0.00    +0.144 HD
BRANCH   9  13
ATOM     13  O   UNL     1      -0.233  -1.556  -5.236  0.00  0.00    -0.408 OA
ATOM     14  H   UNL     1      -0.232  -0.862  -5.909  0.00  0.00    +0.328 HD
ENDBRANCH   9  13
ENDBRANCH   4   8
BRANCH   7  15
ATOM     15  S   UNL     1       0.026   0.170   2.733  0.00  0.00    -0.050 S 
BRANCH  15  16
ATOM     16  C   UNL     1       1.706   0.655   2.943  0.00  0.00    +0.196 A 
ATOM     17  N   UNL     1       2.681   0.487   2.080  0.00  0.00    -0.122 NA
ATOM     18  N   UNL     1       3.775   0.961   2.561  0.00  0.00    -0.137 NA
ATOM     19  C   UNL     1       3.566   1.454   3.749  0.00  0.00    +0.225 A 
ATOM     20  N   UNL     1       2.240   1.281   4.033  0.00  0.00    -0.311 N 
ATOM     21  C   UNL     1       1.538   1.683   5.254  0.00  0.00    +0.152 C 
ENDBRANCH  15  16
ENDBRANCH   7  15
TORSDOF 4
