REMARK  Name = ZINC20916915
REMARK  6 active torsions:
REMARK  status: ('A' for Active; 'I' for Inactive)
REMARK    1  A    between atoms: C_4  and  C_13
REMARK    2  A    between atoms: C_5  and  C_7
REMARK    3  A    between atoms: C_7  and  N_8
REMARK    4  A    between atoms: C_13  and  N_14
REMARK    5  A    between atoms: C_17  and  N_23
REMARK    6  A    between atoms: C_19  and  O_22
REMARK                            x       y       z     vdW  Elec       q    Type
REMARK                         _______ _______ _______ _____ _____    ______ ____
ROOT
ATOM      1  N   UNL     1      -6.219  -5.232  -1.355  0.00  0.00    +0.384 N 
ATOM      2  C   UNL     1      -5.800  -4.219  -0.379  0.00  0.00    -0.077 C 
ATOM      3  C   UNL     1      -4.378  -3.755  -0.701  0.00  0.00    +0.003 C 
ATOM      4  C   UNL     1      -4.345  -3.170  -2.116  0.00  0.00    +0.082 C 
ATOM      5  C   UNL     1      -4.833  -4.229  -3.110  0.00  0.00    +0.115 C 
ATOM      6  C   UNL     1      -6.241  -4.680  -2.716  0.00  0.00    -0.045 C 
ATOM      7  H   UNL     1      -5.477  -6.044  -1.335  0.00  0.00    -0.081 HD
ENDROOT
BRANCH   4   8
ATOM      8  N   UNL     1      -2.971  -2.776  -2.453  0.00  0.00    -0.294 NA
ATOM      9  C   UNL     1      -2.469  -1.762  -1.516  0.00  0.00    +0.103 C 
ATOM     10  C   UNL     1      -1.068  -1.321  -1.948  0.00  0.00    +0.122 C 
ATOM     11  N   UNL     1      -0.178  -2.490  -1.980  0.00  0.00    -0.314 N 
ATOM     12  C   UNL     1      -0.680  -3.504  -2.917  0.00  0.00    +0.122 C 
ATOM     13  C   UNL     1      -2.081  -3.945  -2.486  0.00  0.00    +0.103 C 
ATOM     14  C   UNL     1       1.122  -2.117  -2.299  0.00  0.00    +0.099 A 
ATOM     15  C   UNL     1       2.117  -3.086  -2.380  0.00  0.00    +0.042 A 
ATOM     16  C   UNL     1       3.407  -2.701  -2.699  0.00  0.00    +0.005 A 
ATOM     17  C   UNL     1       3.659  -1.355  -2.927  0.00  0.00    +0.018 A 
ATOM     18  C   UNL     1       2.624  -0.447  -2.830  0.00  0.00    +0.084 A 
ATOM     19  N   UNL     1       1.403  -0.843  -2.524  0.00  0.00    -0.350 N 
ATOM     20  H   UNL     1       0.609  -0.085  -2.457  0.00  0.00    +0.166 HD
ENDBRANCH   4   8
BRANCH   5  21
ATOM     21  O   UNL     1      -4.859  -3.671  -4.425  0.00  0.00    -0.392 OA
ATOM     22  H   UNL     1      -5.185  -4.287  -5.277  0.00  0.00    +0.210 HD
ENDBRANCH   5  21
BRANCH   1  23
ATOM     23  C   UNL     1      -7.524  -5.801  -0.997  0.00  0.00    -0.043 C 
BRANCH  23  27
ATOM     24  C   UNL     1      -7.040  -8.546   2.240  0.00  0.00    +0.000 A 
ATOM     25  C   UNL     1      -5.930  -7.984   1.639  0.00  0.00    +0.000 A 
ATOM     26  C   UNL     1      -6.086  -7.099   0.588  0.00  0.00    +0.002 A 
ATOM     27  C   UNL     1      -7.354  -6.769   0.145  0.00  0.00    -0.059 A 
ATOM     28  C   UNL     1      -8.464  -7.332   0.747  0.00  0.00    -0.025 A 
ATOM     29  C   UNL     1      -8.307  -8.220   1.795  0.00  0.00    +0.005 A 
BRANCH  28  30
ATOM     30  C   UNL     1      -9.845  -6.976   0.260  0.00  0.00    +0.178 C 
BRANCH  30  31
ATOM     31  N   UNL     1     -10.218  -7.865  -0.844  0.00  0.00    -0.267 N 
ATOM     32  C   UNL     1     -11.326  -8.632  -0.905  0.00  0.00    +0.108 A 
ATOM     33  C   UNL     1     -11.300  -9.300  -2.082  0.00  0.00    +0.041 A 
ATOM     34  C   UNL     1     -10.137  -8.927  -2.763  0.00  0.00    +0.134 A 
ATOM     35  N   UNL     1      -9.490  -8.063  -2.024  0.00  0.00    -0.179 NA
ENDBRANCH  30  31
ENDBRANCH  28  30
ENDBRANCH  23  27
ENDBRANCH   1  23
TORSDOF 6
