REMARK  Name = ZINC63372363
REMARK  6 active torsions:
REMARK  status: ('A' for Active; 'I' for Inactive)
REMARK    1  A    between atoms: C_1  and  C_2
REMARK    2  A    between atoms: C_2  and  C_3
REMARK    3  A    between atoms: C_6  and  N_9
REMARK    4  A    between atoms: C_12  and  C_19
REMARK    5  A    between atoms: C_26  and  O_31
REMARK    6  A    between atoms: O_31  and  C_32
REMARK                            x       y       z     vdW  Elec       q    Type
REMARK                         _______ _______ _______ _____ _____    ______ ____
ROOT
ATOM      1  N   UNL     1      -7.310  -2.403   1.251  0.00  0.00    -0.229 N 
ATOM      2  C   UNL     1      -7.957  -2.744   0.119  0.00  0.00    +0.270 A 
ATOM      3  O   UNL     1      -9.146  -3.010   0.149  0.00  0.00    -0.267 OA
ATOM      4  C   UNL     1      -7.252  -2.789  -1.096  0.00  0.00    +0.101 A 
ATOM      5  C   UNL     1      -5.923  -2.486  -1.103  0.00  0.00    +0.263 A 
ATOM      6  N   UNL     1      -5.303  -2.144   0.072  0.00  0.00    -0.274 N 
ATOM      7  H   UNL     1      -4.357  -1.927   0.073  0.00  0.00    +0.173 HD
ATOM      8  C   UNL     1      -5.999  -2.102   1.223  0.00  0.00    +0.337 A 
ATOM      9  O   UNL     1      -5.433  -1.792   2.254  0.00  0.00    -0.246 OA
ATOM     10  O   UNL     1      -5.222  -2.523  -2.256  0.00  0.00    -0.267 OA
ENDROOT
BRANCH   4  11
ATOM     11  C   UNL     1      -7.956  -3.169  -2.374  0.00  0.00    +0.121 C 
ATOM     12  C   UNL     1      -7.239  -4.354  -3.025  0.00  0.00    +0.128 C 
ATOM     13  C   UNL     1      -5.866  -3.843  -3.446  0.00  0.00    -0.035 C 
ATOM     14  C   UNL     1      -4.978  -4.664  -2.904  0.00  0.00    +0.003 A 
ATOM     15  C   UNL     1      -3.513  -4.743  -3.014  0.00  0.00    +0.055 A 
ATOM     16  C   UNL     1      -2.897  -5.723  -2.297  0.00  0.00    +0.121 A 
ATOM     17  C   UNL     1      -3.575  -6.638  -1.479  0.00  0.00    +0.047 A 
ATOM     18  C   UNL     1      -4.922  -6.661  -1.310  0.00  0.00    +0.029 A 
ATOM     19  C   UNL     1      -5.699  -5.650  -2.039  0.00  0.00    +0.043 A 
ATOM     20  N   UNL     1      -7.001  -5.451  -2.088  0.00  0.00    -0.376 N 
ATOM     21  C   UNL     1      -5.704  -2.571  -4.242  0.00  0.00    +0.048 C 
ATOM     22  C   UNL     1      -6.573  -1.511  -3.540  0.00  0.00    +0.086 C 
ATOM     23  N   UNL     1      -7.924  -2.036  -3.312  0.00  0.00    -0.307 NA
ATOM     24  H   UNL     1      -8.370  -2.276  -4.185  0.00  0.00    +0.123 HD
ATOM     25  H   UNL     1      -7.681  -5.933  -1.593  0.00  0.00    +0.160 HD
BRANCH  16  26
ATOM     26  O   UNL     1      -1.544  -5.820  -2.380  0.00  0.00    -0.495 OA
ATOM     27  C   UNL     1      -0.921  -6.856  -1.619  0.00  0.00    +0.277 C 
ENDBRANCH  16  26
ENDBRANCH   4  11
BRANCH   1  31
ATOM     28  C   UNL     1      -9.390  -2.263   4.860  0.00  0.00    -0.047 A 
ATOM     29  C   UNL     1      -9.311  -1.134   4.065  0.00  0.00    +0.005 A 
ATOM     30  C   UNL     1      -8.622  -1.177   2.868  0.00  0.00    +0.026 A 
ATOM     31  C   UNL     1      -8.009  -2.356   2.465  0.00  0.00    +0.054 A 
ATOM     32  C   UNL     1      -8.089  -3.487   3.265  0.00  0.00    +0.026 A 
ATOM     33  C   UNL     1      -8.775  -3.436   4.463  0.00  0.00    +0.005 A 
BRANCH  28  35
ATOM     34  C   UNL     1      -9.189  -1.792   7.287  0.00  0.00    +0.009 C 
ATOM     35  C   UNL     1     -10.142  -2.212   6.165  0.00  0.00    +0.032 C 
ENDBRANCH  28  35
ENDBRANCH   1  31
TORSDOF 4
