REMARK  Name = ZINC43535251
REMARK  6 active torsions:
REMARK  status: ('A' for Active; 'I' for Inactive)
REMARK    1  A    between atoms: C_1  and  N_2
REMARK    2  A    between atoms: C_3  and  C_16
REMARK    3  A    between atoms: C_6  and  S_7
REMARK    4  A    between atoms: S_7  and  C_8
REMARK    5  A    between atoms: C_16  and  C_17
REMARK    6  A    between atoms: C_17  and  C_18
REMARK                            x       y       z     vdW  Elec       q    Type
REMARK                         _______ _______ _______ _____ _____    ______ ____
ROOT
ATOM      1  C   UNL     1      -0.018   1.461   0.010  0.00  0.00    +0.152 C 
ATOM      2  N   UNL     1       0.002  -0.004   0.002  0.00  0.00    -0.309 N 
ATOM      3  C   UNL     1       0.008  -0.823  -1.092  0.00  0.00    +0.134 A 
ATOM      4  N   UNL     1       0.027  -2.051  -0.657  0.00  0.00    -0.134 NA
ATOM      5  N   UNL     1       0.033  -2.064   0.628  0.00  0.00    -0.122 NA
ATOM      6  C   UNL     1       0.024  -0.834   1.086  0.00  0.00    +0.197 A 
ENDROOT
BRANCH   6   7
ATOM      7  S   UNL     1       0.034  -0.346   2.779  0.00  0.00    -0.030 S 
BRANCH   7   8
ATOM      8  C   UNL     1       0.064  -1.871   3.662  0.00  0.00    +0.111 A 
ATOM      9  C   UNL     1       0.072  -1.880   5.058  0.00  0.00    +0.075 A 
ATOM     10  C   UNL     1       0.095  -3.100   5.708  0.00  0.00    +0.135 A 
ATOM     11  N   UNL     1       0.109  -4.217   4.992  0.00  0.00    -0.203 NA
ATOM     12  C   UNL     1       0.101  -4.176   3.668  0.00  0.00    +0.215 A 
ATOM     13  N   UNL     1       0.073  -3.029   3.008  0.00  0.00    -0.208 NA
ATOM     14  N   UNL     1       0.116  -5.364   2.957  0.00  0.00    -0.327 N 
ATOM     15 CL   UNL     1       0.107  -3.170   7.443  0.00  0.00    -0.062 Cl
ATOM     16  H   UNL     1       0.133  -6.211   3.428  0.00  0.00    +0.145 HD
ATOM     17  H   UNL     1       0.110  -5.348   1.987  0.00  0.00    +0.145 HD
ENDBRANCH   7   8
ENDBRANCH   6   7
BRANCH   3  18
ATOM     18  C   UNL     1      -0.004  -0.387  -2.534  0.00  0.00    +0.085 C 
BRANCH  18  19
ATOM     19  C   UNL     1       1.434  -0.219  -3.029  0.00  0.00    +0.103 C 
BRANCH  19  20
ATOM     20  C   UNL     1       1.421   0.217  -4.471  0.00  0.00    +0.211 C 
ATOM     21  O   UNL     1       0.366   0.379  -5.047  0.00  0.00    -0.276 OA
ATOM     22  N   UNL     1       2.582   0.429  -5.122  0.00  0.00    -0.329 N 
ATOM     23  H   UNL     1       3.426   0.300  -4.662  0.00  0.00    +0.145 HD
ATOM     24  H   UNL     1       2.574   0.710  -6.050  0.00  0.00    +0.145 HD
ENDBRANCH  19  20
ENDBRANCH  18  19
ENDBRANCH   3  18
TORSDOF 5
