REMARK  Name = ZINC43538544
REMARK  7 active torsions:
REMARK  status: ('A' for Active; 'I' for Inactive)
REMARK    1  A    between atoms: C_1  and  C_2
REMARK    2  A    between atoms: C_2  and  C_3
REMARK    3  A    between atoms: C_3  and  C_5
REMARK    4  A    between atoms: C_3  and  O_7
REMARK    5  A    between atoms: O_7  and  C_8
REMARK    6  A    between atoms: C_9  and  N_17
REMARK    7  A    between atoms: C_11  and  C_15
REMARK                            x       y       z     vdW  Elec       q    Type
REMARK                         _______ _______ _______ _____ _____    ______ ____
ROOT
ATOM      1  C   UNL     1      -3.345   0.017   1.435  0.00  0.00    +0.156 A 
ATOM      2  C   UNL     1      -3.978   1.228   1.155  0.00  0.00    +0.069 A 
ATOM      3  C   UNL     1      -5.357   1.317   1.213  0.00  0.00    +0.045 A 
ATOM      4  C   UNL     1      -6.113   0.191   1.553  0.00  0.00    +0.055 A 
ATOM      5  C   UNL     1      -5.472  -1.018   1.832  0.00  0.00    +0.037 A 
ATOM      6  C   UNL     1      -4.096  -1.102   1.768  0.00  0.00    +0.058 A 
ATOM      7  I   UNL     1      -3.139  -2.919   2.180  0.00  0.00    -0.040 I 
ENDROOT
BRANCH   2   8
ATOM      8  N   UNL     1      -3.218   2.353   0.815  0.00  0.00    -0.355 N 
ATOM      9  H   UNL     1      -2.258   2.273   0.700  0.00  0.00    +0.142 HD
ATOM     10  H   UNL     1      -3.651   3.213   0.694  0.00  0.00    +0.142 HD
ENDBRANCH   2   8
BRANCH   4  11
ATOM     11  C   UNL     1      -7.541   0.277   1.615  0.00  0.00    +0.099 C 
ATOM     12  N   UNL     1      -8.674   0.345   1.664  0.00  0.00    -0.191 NA
ENDBRANCH   4  11
BRANCH   1  13
ATOM     13  O   UNL     1      -1.990  -0.070   1.377  0.00  0.00    -0.471 OA
BRANCH  13  14
ATOM     14  C   UNL     1      -1.407  -0.257   0.087  0.00  0.00    +0.274 C 
BRANCH  14  16
ATOM     15  C   UNL     1       0.045   1.762   0.326  0.00  0.00    +0.008 C 
ATOM     16  C   UNL     1       0.037   0.249   0.101  0.00  0.00    +0.057 C 
ENDBRANCH  14  16
BRANCH  14  17
ATOM     17  C   UNL     1      -1.421  -1.689  -0.256  0.00  0.00    +0.107 C 
ATOM     18  N   UNL     1      -1.433  -2.794  -0.519  0.00  0.00    -0.193 NA
ENDBRANCH  14  17
ENDBRANCH  13  14
ENDBRANCH   1  13
TORSDOF 6
