REMARK  Name = ZINC19663775
REMARK  6 active torsions:
REMARK  status: ('A' for Active; 'I' for Inactive)
REMARK    1  A    between atoms: C_1  and  C_2
REMARK    2  A    between atoms: C_5  and  C_9
REMARK    3  A    between atoms: C_7  and  C_8
REMARK    4  A    between atoms: N_13  and  C_14
REMARK    5  A    between atoms: N_15  and  C_16
REMARK    6  A    between atoms: C_16  and  C_18
REMARK                            x       y       z     vdW  Elec       q    Type
REMARK                         _______ _______ _______ _____ _____    ______ ____
ROOT
ATOM      1  C   UNL     1      -0.135   1.742   2.462  0.00  0.00    +0.067 A 
ATOM      2  C   UNL     1      -1.105   2.283   3.246  0.00  0.00    +0.112 A 
ATOM      3  N   UNL     1      -2.238   2.332   2.535  0.00  0.00    -0.332 N 
ATOM      4  C   UNL     1      -2.024   1.849   1.333  0.00  0.00    +0.201 A 
ATOM      5  N   UNL     1      -0.723   1.462   1.243  0.00  0.00    -0.315 N 
ATOM      6  C   UNL     1      -0.068   0.868   0.075  0.00  0.00    +0.152 C 
ATOM      7  N   UNL     1      -2.968   1.748   0.323  0.00  0.00    -0.142 NA
ATOM      8  H   UNL     1      -3.155   2.735   2.988  0.00  0.00    +0.168 HD
ENDROOT
BRANCH   1  13
ATOM      9  C   UNL     1       5.348   0.804   3.933  0.00  0.00    +0.044 C 
ATOM     10  C   UNL     1       3.912   1.049   3.548  0.00  0.00    -0.047 A 
ATOM     11  C   UNL     1       3.151   1.954   4.267  0.00  0.00    +0.004 A 
ATOM     12  C   UNL     1       1.838   2.187   3.917  0.00  0.00    +0.010 A 
ATOM     13  C   UNL     1       1.273   1.501   2.840  0.00  0.00    +0.000 A 
ATOM     14  C   UNL     1       2.046   0.590   2.119  0.00  0.00    +0.013 A 
ATOM     15  C   UNL     1       3.361   0.370   2.476  0.00  0.00    -0.047 A 
ATOM     16  C   UNL     1       4.197  -0.614   1.699  0.00  0.00    +0.044 C 
ENDBRANCH   1  13
BRANCH   7  17
ATOM     17  C   UNL     1      -4.231   2.168   0.536  0.00  0.00    +0.272 C 
ATOM     18  O   UNL     1      -4.542   2.636   1.615  0.00  0.00    -0.268 OA
BRANCH  17  19
ATOM     19  C   UNL     1      -5.237   2.060  -0.539  0.00  0.00    +0.057 A 
ATOM     20  C   UNL     1      -6.555   2.489  -0.326  0.00  0.00    +0.018 A 
ATOM     21  C   UNL     1      -7.457   2.373  -1.364  0.00  0.00    +0.049 A 
ATOM     22  C   UNL     1      -7.037   1.828  -2.573  0.00  0.00    +0.154 A 
ATOM     23  N   UNL     1      -5.786   1.427  -2.741  0.00  0.00    -0.235 NA
ATOM     24  C   UNL     1      -4.891   1.524  -1.781  0.00  0.00    +0.126 A 
ATOM     25  N   UNL     1      -7.946   1.703  -3.624  0.00  0.00    -0.222 N 
ATOM     26  C   UNL     1      -7.679   1.198  -4.858  0.00  0.00    +0.116 A 
ATOM     27  C   UNL     1      -8.824   1.250  -5.577  0.00  0.00    +0.041 A 
ATOM     28  C   UNL     1      -9.818   1.810  -4.766  0.00  0.00    +0.135 A 
ATOM     29  N   UNL     1      -9.294   2.080  -3.598  0.00  0.00    -0.173 NA
ENDBRANCH  17  19
ENDBRANCH   7  17
TORSDOF 3
