REMARK  Name = ZINC09140217
REMARK  7 active torsions:
REMARK  status: ('A' for Active; 'I' for Inactive)
REMARK    1  A    between atoms: C_3  and  N_14
REMARK    2  A    between atoms: C_4  and  N_11
REMARK    3  A    between atoms: C_6  and  C_7
REMARK    4  A    between atoms: C_15  and  C_17
REMARK    5  A    between atoms: C_17  and  S_18
REMARK    6  A    between atoms: S_18  and  C_19
REMARK    7  A    between atoms: C_25  and  N_27
REMARK                            x       y       z     vdW  Elec       q    Type
REMARK                         _______ _______ _______ _____ _____    ______ ____
ROOT
ATOM      1  N   UNL     1      -1.074   1.974  -0.001  0.00  0.00    -0.283 N 
ATOM      2  C   UNL     1      -2.195   1.240  -0.144  0.00  0.00    +0.228 C 
ATOM      3  O   UNL     1      -2.127   0.029  -0.179  0.00  0.00    -0.275 OA
ATOM      4  H   UNL     1      -1.135   2.936   0.108  0.00  0.00    +0.155 HD
ENDROOT
BRANCH   1   7
ATOM      5  C   UNL     1       1.581  -0.479  -0.675  0.00  0.00    +0.014 A 
ATOM      6  C   UNL     1       0.343   0.133  -0.662  0.00  0.00    +0.026 A 
ATOM      7  C   UNL     1       0.178   1.348  -0.011  0.00  0.00    +0.064 A 
ATOM      8  C   UNL     1       1.259   1.944   0.625  0.00  0.00    +0.148 A 
ATOM      9  C   UNL     1       2.494   1.327   0.608  0.00  0.00    +0.047 A 
ATOM     10  C   UNL     1       2.655   0.117  -0.041  0.00  0.00    +0.057 A 
BRANCH  10  11
ATOM     11  C   UNL     1       4.005  -0.554  -0.057  0.00  0.00    +0.417 C 
ATOM     12  F   UNL     1       3.920  -1.756  -0.768  0.00  0.00    -0.166 F 
ATOM     13  F   UNL     1       4.936   0.288  -0.674  0.00  0.00    -0.166 F 
ATOM     14  F   UNL     1       4.411  -0.817   1.256  0.00  0.00    -0.166 F 
ENDBRANCH  10  11
BRANCH   8  15
ATOM     15  N   UNL     1       1.087   3.240   1.320  0.00  0.00    +0.058 N 
ATOM     16  O   UNL     1       2.054   3.809   1.794  0.00  0.00    -0.126 OA
ATOM     17  O   UNL     1      -0.021   3.736   1.418  0.00  0.00    -0.126 OA
ENDBRANCH   8  15
ENDBRANCH   1   7
BRANCH   2  18
ATOM     18  C   UNL     1      -3.533   1.923  -0.260  0.00  0.00    +0.173 C 
BRANCH  18  19
ATOM     19  S   UNL     1      -4.834   0.677  -0.439  0.00  0.00    -0.078 S 
BRANCH  19  20
ATOM     20  C   UNL     1      -6.247   1.723  -0.550  0.00  0.00    +0.171 A 
ATOM     21  N   UNL     1      -7.481   1.165  -0.699  0.00  0.00    -0.302 N 
ATOM     22  H   UNL     1      -7.573   0.200  -0.742  0.00  0.00    +0.171 HD
ATOM     23  C   UNL     1      -8.574   1.951  -0.785  0.00  0.00    +0.254 A 
ATOM     24  O   UNL     1      -9.684   1.459  -0.918  0.00  0.00    -0.268 OA
ATOM     25  C   UNL     1      -8.415   3.338  -0.721  0.00  0.00    +0.113 A 
ATOM     26  C   UNL     1      -7.137   3.857  -0.569  0.00  0.00    +0.124 A 
ATOM     27  N   UNL     1      -6.090   3.029  -0.483  0.00  0.00    -0.209 NA
BRANCH  26  28
ATOM     28  N   UNL     1      -6.947   5.223  -0.502  0.00  0.00    -0.343 N 
ATOM     29  H   UNL     1      -7.708   5.822  -0.560  0.00  0.00    +0.144 HD
ATOM     30  H   UNL     1      -6.053   5.584  -0.396  0.00  0.00    +0.144 HD
ENDBRANCH  26  28
ENDBRANCH  19  20
ENDBRANCH  18  19
ENDBRANCH   2  18
TORSDOF 7
