REMARK  Name = ZINC38517865
REMARK  7 active torsions:
REMARK  status: ('A' for Active; 'I' for Inactive)
REMARK    1  A    between atoms: C_1  and  N_2
REMARK    2  A    between atoms: C_9  and  C_11
REMARK    3  A    between atoms: C_11  and  C_13
REMARK    4  A    between atoms: C_11  and  N_24
REMARK    5  A    between atoms: C_13  and  N_14
REMARK    6  A    between atoms: N_17  and  C_18
REMARK    7  A    between atoms: C_18  and  C_19
REMARK                            x       y       z     vdW  Elec       q    Type
REMARK                         _______ _______ _______ _____ _____    ______ ____
ROOT
ATOM      1  C   UNL     1       0.061  -3.784   4.240  0.00  0.00    -0.020 C 
ENDROOT
BRANCH   1  10
ATOM      2  C   UNL     1      -0.271   1.864   0.592  0.00  0.00    +0.129 C 
ATOM      3  N   UNL     1      -0.201   0.409   0.434  0.00  0.00    -0.332 N 
ATOM      4  C   UNL     1      -0.177  -0.296  -0.850  0.00  0.00    +0.109 C 
ATOM      5  C   UNL     1      -0.100  -1.788  -0.490  0.00  0.00    +0.056 C 
ATOM      6  C   UNL     1      -0.086  -1.813   1.022  0.00  0.00    -0.025 A 
ATOM      7  C   UNL     1      -0.140  -0.507   1.485  0.00  0.00    +0.033 A 
ATOM      8  C   UNL     1      -0.133  -0.276   2.862  0.00  0.00    +0.023 A 
ATOM      9  C   UNL     1      -0.068  -1.333   3.744  0.00  0.00    +0.004 A 
ATOM     10  C   UNL     1      -0.010  -2.631   3.273  0.00  0.00    -0.059 A 
ATOM     11  C   UNL     1      -0.026  -2.869   1.911  0.00  0.00    +0.007 A 
ENDBRANCH   1  10
BRANCH   1  12
ATOM     12  N   UNL     1       0.951  -3.433   5.355  0.00  0.00    +0.385 N 
ATOM     13  C   UNL     1       2.279  -3.091   4.831  0.00  0.00    -0.078 C 
ATOM     14  C   UNL     1       3.186  -2.646   5.980  0.00  0.00    -0.019 C 
ATOM     15  C   UNL     1       3.314  -3.788   6.993  0.00  0.00    -0.004 C 
ATOM     16  C   UNL     1       1.917  -4.187   7.477  0.00  0.00    -0.019 C 
ATOM     17  C   UNL     1       1.057  -4.574   6.272  0.00  0.00    -0.078 C 
ATOM     18  H   UNL     1       0.572  -2.640   5.850  0.00  0.00    -0.081 HD
ENDBRANCH   1  12
BRANCH   1  19
ATOM     19  C   UNL     1      -1.338  -4.085   4.780  0.00  0.00    +0.095 C 
BRANCH  19  20
ATOM     20  N   UNL     1      -2.202  -4.523   3.680  0.00  0.00    -0.301 N 
ATOM     21  C   UNL     1      -3.514  -4.741   3.900  0.00  0.00    +0.300 C 
ATOM     22  O   UNL     1      -3.981  -4.573   5.010  0.00  0.00    -0.253 OA
ATOM     23  N   UNL     1      -4.308  -5.144   2.888  0.00  0.00    -0.295 N 
ATOM     24  H   UNL     1      -1.829  -4.656   2.795  0.00  0.00    +0.150 HD
ATOM     25  H   UNL     1      -3.936  -5.277   2.002  0.00  0.00    +0.151 HD
BRANCH  23  26
ATOM     26  C   UNL     1      -5.734  -5.380   3.126  0.00  0.00    +0.148 C 
BRANCH  26  27
ATOM     27  C   UNL     1      -6.391  -5.820   1.843  0.00  0.00    +0.007 A 
ATOM     28  C   UNL     1      -6.562  -7.074   1.358  0.00  0.00    +0.013 A 
ATOM     29  C   UNL     1      -7.203  -7.241   0.144  0.00  0.00    +0.008 A 
ATOM     30  C   UNL     1      -7.641  -6.146  -0.524  0.00  0.00    +0.045 A 
ATOM     31  S   UNL     1      -7.154  -4.825   0.573  0.00  0.00    -0.100 S 
ENDBRANCH  26  27
ENDBRANCH  23  26
ENDBRANCH  19  20
ENDBRANCH   1  19
TORSDOF 6
