REMARK  Name = ZINC13517346
REMARK  7 active torsions:
REMARK  status: ('A' for Active; 'I' for Inactive)
REMARK    1  A    between atoms: C_1  and  C_2
REMARK    2  A    between atoms: C_2  and  C_3
REMARK    3  A    between atoms: C_3  and  C_4
REMARK    4  A    between atoms: C_6  and  C_26
REMARK    5  A    between atoms: C_8  and  C_20
REMARK    6  A    between atoms: C_11  and  C_12
REMARK    7  A    between atoms: C_11  and  O_19
REMARK                            x       y       z     vdW  Elec       q    Type
REMARK                         _______ _______ _______ _____ _____    ______ ____
ROOT
ATOM      1  C   UNL     1      -0.927   1.786   1.544  0.00  0.00    +0.015 C 
ATOM      2  C   UNL     1      -2.213   1.088   1.095  0.00  0.00    -0.034 C 
ATOM      3  C   UNL     1      -3.575   2.791   2.153  0.00  0.00    -0.037 C 
ATOM      4  C   UNL     1      -2.329   3.539   2.633  0.00  0.00    +0.028 C 
ATOM      5  C   UNL     1      -1.181   3.292   1.651  0.00  0.00    +0.091 C 
ATOM      6  N   UNL     1      -3.287   1.346   2.074  0.00  0.00    +0.388 N 
ATOM      7  H   UNL     1      -2.990   1.009   2.998  0.00  0.00    -0.084 HD
ATOM      8  H   UNL     1      -4.136   0.847   1.784  0.00  0.00    -0.084 HD
ENDROOT
BRANCH   5   9
ATOM      9  C   UNL     1       0.065   3.978   2.150  0.00  0.00    -0.016 A 
ATOM     10  C   UNL     1       0.933   3.307   2.992  0.00  0.00    +0.009 A 
ATOM     11  C   UNL     1       2.078   3.933   3.445  0.00  0.00    +0.039 A 
ATOM     12  C   UNL     1       2.351   5.236   3.065  0.00  0.00    +0.123 A 
ATOM     13  C   UNL     1       1.479   5.909   2.226  0.00  0.00    +0.039 A 
ATOM     14  C   UNL     1       0.337   5.279   1.770  0.00  0.00    +0.009 A 
ATOM     15  F   UNL     1       3.468   5.851   3.512  0.00  0.00    -0.205 F 
ENDBRANCH   5   9
BRANCH   3  16
ATOM     16  C   UNL     1      -4.702   3.015   3.127  0.00  0.00    -0.061 A 
ATOM     17  C   UNL     1      -4.761   2.282   4.298  0.00  0.00    +0.002 A 
ATOM     18  C   UNL     1      -5.793   2.491   5.194  0.00  0.00    +0.000 A 
ATOM     19  C   UNL     1      -6.771   3.427   4.914  0.00  0.00    +0.000 A 
ATOM     20  C   UNL     1      -6.715   4.157   3.742  0.00  0.00    +0.000 A 
ATOM     21  C   UNL     1      -5.681   3.951   2.848  0.00  0.00    +0.002 A 
ENDBRANCH   3  16
BRANCH   2  22
ATOM     22  C   UNL     1      -1.974  -0.398   1.007  0.00  0.00    -0.061 A 
ATOM     23  C   UNL     1      -1.833  -1.145   2.162  0.00  0.00    +0.002 A 
ATOM     24  C   UNL     1      -1.618  -2.508   2.081  0.00  0.00    +0.000 A 
ATOM     25  C   UNL     1      -1.535  -3.122   0.845  0.00  0.00    +0.000 A 
ATOM     26  C   UNL     1      -1.670  -2.374  -0.309  0.00  0.00    +0.000 A 
ATOM     27  C   UNL     1      -1.889  -1.012  -0.229  0.00  0.00    +0.002 A 
ENDBRANCH   2  22
BRANCH   5  28
ATOM     28  O   UNL     1      -1.529   3.810   0.366  0.00  0.00    -0.384 OA
ATOM     29  H   UNL     1      -1.704   4.761   0.360  0.00  0.00    +0.211 HD
ENDBRANCH   5  28
BRANCH   1  30
ATOM     30  C   UNL     1       0.179   1.526   0.519  0.00  0.00    +0.005 C 
BRANCH  30  32
ATOM     31  C   UNL     1       0.741   1.537  -1.915  0.00  0.00    +0.004 C 
ATOM     32  C   UNL     1      -0.316   1.916  -0.875  0.00  0.00    -0.003 C 
ENDBRANCH  30  32
ENDBRANCH   1  30
TORSDOF 6
