REMARK  Name = ZINC08914079
REMARK  8 active torsions:
REMARK  status: ('A' for Active; 'I' for Inactive)
REMARK    1  A    between atoms: C_1  and  C_2
REMARK    2  A    between atoms: C_6  and  N_9
REMARK    3  A    between atoms: C_7  and  C_8
REMARK    4  A    between atoms: C_13  and  C_14
REMARK    5  A    between atoms: C_16  and  C_31
REMARK    6  A    between atoms: N_17  and  C_20
REMARK    7  A    between atoms: C_18  and  C_19
REMARK    8  A    between atoms: C_21  and  C_29
REMARK                            x       y       z     vdW  Elec       q    Type
REMARK                         _______ _______ _______ _____ _____    ______ ____
ROOT
ATOM      1  N   UNL     1      -0.285  -1.084   3.851  0.00  0.00    -0.188 N 
ATOM      2  C   UNL     1      -1.230  -2.048   3.886  0.00  0.00    +0.264 C 
ATOM      3  O   UNL     1      -2.042  -2.166   2.986  0.00  0.00    -0.269 OA
ATOM      4  C   UNL     1      -1.246  -2.954   5.050  0.00  0.00    +0.102 C 
ATOM      5  C   UNL     1      -2.184  -3.973   5.164  0.00  0.00    +0.028 C 
ATOM      6  C   UNL     1      -0.225  -2.731   6.083  0.00  0.00    +0.276 C 
ATOM      7  O   UNL     1      -0.170  -3.515   7.180  0.00  0.00    -0.268 OA
ATOM      8  N   UNL     1       0.639  -1.744   5.913  0.00  0.00    -0.123 NA
ATOM      9  C   UNL     1       0.612  -0.958   4.840  0.00  0.00    +0.340 C 
ATOM     10  O   UNL     1       1.444  -0.073   4.753  0.00  0.00    -0.250 OA
ENDROOT
BRANCH   1  16
ATOM     11  C   UNL     1      -1.683   3.140   1.755  0.00  0.00    +0.044 C 
ATOM     12  C   UNL     1      -0.906   1.849   1.719  0.00  0.00    -0.046 A 
ATOM     13  C   UNL     1      -0.145   1.531   0.609  0.00  0.00    +0.004 A 
ATOM     14  C   UNL     1       0.569   0.348   0.572  0.00  0.00    +0.002 A 
ATOM     15  C   UNL     1       0.525  -0.521   1.645  0.00  0.00    +0.024 A 
ATOM     16  C   UNL     1      -0.238  -0.205   2.761  0.00  0.00    +0.049 A 
ATOM     17  C   UNL     1      -0.950   0.987   2.797  0.00  0.00    -0.026 A 
ATOM     18  C   UNL     1      -1.775   1.337   4.009  0.00  0.00    +0.046 C 
ENDBRANCH   1  16
BRANCH   5  19
ATOM     19  C   UNL     1      -2.054  -4.942   6.183  0.00  0.00    -0.003 A 
ATOM     20  C   UNL     1      -0.827  -5.650   6.582  0.00  0.00    +0.031 A 
ATOM     21  C   UNL     1      -1.172  -6.472   7.585  0.00  0.00    +0.022 A 
ATOM     22  N   UNL     1      -2.510  -6.334   7.843  0.00  0.00    -0.310 N 
ATOM     23  C   UNL     1      -3.055  -5.419   7.019  0.00  0.00    +0.029 A 
ATOM     24  C   UNL     1      -4.500  -4.990   7.004  0.00  0.00    +0.064 C 
ATOM     25  C   UNL     1      -0.235  -7.401   8.313  0.00  0.00    +0.064 C 
BRANCH  22  26
ATOM     26  C   UNL     1      -3.206  -7.035   8.822  0.00  0.00    +0.103 A 
ATOM     27  C   UNL     1      -4.321  -7.839   8.662  0.00  0.00    +0.086 A 
ATOM     28  C   UNL     1      -4.866  -8.466   9.851  0.00  0.00    -0.018 A 
ATOM     29  C   UNL     1      -4.193  -8.174  10.987  0.00  0.00    -0.004 A 
ATOM     30  S   UNL     1      -2.881  -7.107  10.468  0.00  0.00    -0.074 S 
ATOM     31  C   UNL     1      -4.505  -8.662  12.368  0.00  0.00    +0.043 C 
ATOM     32  C   UNL     1      -5.927  -9.242  12.364  0.00  0.00    +0.005 C 
ATOM     33  C   UNL     1      -6.074 -10.186  11.167  0.00  0.00    +0.005 C 
ATOM     34  C   UNL     1      -6.082  -9.380   9.866  0.00  0.00    +0.037 C 
BRANCH  27  35
ATOM     35  C   UNL     1      -4.914  -8.042   7.374  0.00  0.00    +0.102 C 
ATOM     36  N   UNL     1      -5.385  -8.204   6.353  0.00  0.00    -0.191 NA
ENDBRANCH  27  35
ENDBRANCH  22  26
ENDBRANCH   5  19
TORSDOF 4
