REMARK  Name = ZINC14460924
REMARK  4 active torsions:
REMARK  status: ('A' for Active; 'I' for Inactive)
REMARK    1  A    between atoms: C_6  and  S_7
REMARK    2  A    between atoms: S_7  and  N_10
REMARK    3  A    between atoms: C_22  and  C_25
REMARK    4  A    between atoms: C_30  and  O_31
REMARK                            x       y       z     vdW  Elec       q    Type
REMARK                         _______ _______ _______ _____ _____    ______ ____
ROOT
ATOM      1  C   UNL     1      -3.292   5.680   3.246  0.00  0.00    +0.030 A 
ATOM      2  C   UNL     1      -1.982   5.334   3.514  0.00  0.00    +0.025 A 
ATOM      3  C   UNL     1      -1.243   4.629   2.573  0.00  0.00    +0.031 A 
ATOM      4  C   UNL     1      -1.810   4.267   1.360  0.00  0.00    -0.018 A 
ATOM      5  C   UNL     1      -3.128   4.619   1.103  0.00  0.00    +0.034 A 
ATOM      6  C   UNL     1      -3.862   5.319   2.039  0.00  0.00    +0.106 A 
ATOM      7  C   UNL     1      -1.053   3.510   0.316  0.00  0.00    +0.049 C 
ATOM      8  C   UNL     1      -1.492   2.067   0.250  0.00  0.00    -0.023 C 
ATOM      9  C   UNL     1      -0.465   1.290   0.004  0.00  0.00    -0.030 C 
ATOM     10  C   UNL     1       0.799   2.114  -0.144  0.00  0.00    +0.033 C 
ATOM     11  C   UNL     1       0.459   3.436   0.603  0.00  0.00    +0.029 C 
ATOM     12  C   UNL     1       0.697   3.192   2.096  0.00  0.00    +0.108 C 
ATOM     13  N   UNL     1       0.082   4.283   2.859  0.00  0.00    -0.336 N 
ATOM     14  H   UNL     1       0.582   4.754   3.545  0.00  0.00    +0.147 HD
ENDROOT
BRANCH  12  15
ATOM     15  C   UNL     1       0.072   1.881   2.499  0.00  0.00    +0.015 A 
ATOM     16  C   UNL     1      -1.243   1.842   2.919  0.00  0.00    +0.024 A 
ATOM     17  C   UNL     1      -1.817   0.638   3.289  0.00  0.00    +0.018 A 
ATOM     18  C   UNL     1      -1.075  -0.528   3.238  0.00  0.00    +0.019 A 
ATOM     19  C   UNL     1       0.241  -0.494   2.818  0.00  0.00    +0.047 A 
ATOM     20  C   UNL     1       0.816   0.711   2.442  0.00  0.00    +0.122 A 
ATOM     21 BR   UNL     1      -3.617   0.588   3.864  0.00  0.00    -0.050 Br
BRANCH  20  22
ATOM     22  O   UNL     1       2.109   0.747   2.022  0.00  0.00    -0.506 OA
ATOM     23  H   UNL     1       2.749   0.886   2.733  0.00  0.00    +0.292 HD
ENDBRANCH  20  22
ENDBRANCH  12  15
BRANCH   6  24
ATOM     24  S   UNL     1      -5.534   5.756   1.694  0.00  0.00    +0.061 S 
ATOM     25  O   UNL     1      -5.835   6.883   2.506  0.00  0.00    -0.153 OA
ATOM     26  O   UNL     1      -5.663   5.781   0.279  0.00  0.00    -0.153 OA
BRANCH  24  27
ATOM     27  N   UNL     1      -6.486   4.514   2.235  0.00  0.00    -0.177 NA
ATOM     28  C   UNL     1      -6.902   3.346   1.445  0.00  0.00    +0.109 C 
ATOM     29  C   UNL     1      -7.795   2.474   2.352  0.00  0.00    +0.018 C 
ATOM     30  C   UNL     1      -8.301   3.486   3.414  0.00  0.00    +0.018 C 
ATOM     31  C   UNL     1      -7.063   4.400   3.587  0.00  0.00    +0.109 C 
ENDBRANCH  24  27
ENDBRANCH   6  24
TORSDOF 4
