REMARK  Name = ZINC23046171
REMARK  10 active torsions:
REMARK  status: ('A' for Active; 'I' for Inactive)
REMARK    1  A    between atoms: C_1  and  C_2
REMARK    2  A    between atoms: C_2  and  N_3
REMARK    3  A    between atoms: C_7  and  C_9
REMARK    4  A    between atoms: C_9  and  O_10
REMARK    5  A    between atoms: O_10  and  C_11
REMARK    6  A    between atoms: C_13  and  O_19
REMARK    7  A    between atoms: O_19  and  C_20
REMARK    8  A    between atoms: C_20  and  C_21
REMARK    9  A    between atoms: N_26  and  C_27
REMARK   10  A    between atoms: C_27  and  C_28
REMARK                            x       y       z     vdW  Elec       q    Type
REMARK                         _______ _______ _______ _____ _____    ______ ____
ROOT
ATOM      1  C   UNL     1       2.925  -6.074  -5.061  0.00  0.00    +0.143 A 
ATOM      2  C   UNL     1       3.492  -5.306  -6.067  0.00  0.00    +0.094 A 
ATOM      3  C   UNL     1       4.108  -5.923  -7.145  0.00  0.00    +0.143 A 
ATOM      4  C   UNL     1       4.156  -7.309  -7.215  0.00  0.00    +0.084 A 
ATOM      5  C   UNL     1       3.590  -8.073  -6.211  0.00  0.00    +0.047 A 
ATOM      6  C   UNL     1       2.980  -7.459  -5.133  0.00  0.00    +0.084 A 
ATOM      7 CL   UNL     1       2.277  -8.421  -3.870  0.00  0.00    -0.080 Cl
ATOM      8 CL   UNL     1       4.926  -8.082  -8.565  0.00  0.00    -0.080 Cl
ENDROOT
BRANCH   1   9
ATOM      9  O   UNL     1       2.321  -5.470  -4.003  0.00  0.00    -0.481 OA
BRANCH   9  10
ATOM     10  C   UNL     1       2.302  -4.041  -3.995  0.00  0.00    +0.325 C 
BRANCH  10  15
ATOM     11  N   UNL     1       0.688  -0.476  -1.203  0.00  0.00    -0.299 N 
ATOM     12  C   UNL     1       0.827  -1.799  -1.425  0.00  0.00    +0.306 C 
ATOM     13  O   UNL     1       0.383  -2.599  -0.625  0.00  0.00    -0.252 OA
ATOM     14  N   UNL     1       1.458  -2.233  -2.534  0.00  0.00    -0.237 N 
ATOM     15  C   UNL     1       1.597  -3.555  -2.756  0.00  0.00    +0.258 C 
ATOM     16  O   UNL     1       1.154  -4.354  -1.958  0.00  0.00    -0.272 OA
ATOM     17  H   UNL     1       1.042   0.162  -1.842  0.00  0.00    +0.150 HD
ATOM     18  H   UNL     1       1.812  -1.595  -3.172  0.00  0.00    +0.159 HD
BRANCH  11  20
ATOM     19  C   UNL     1      -0.019   1.526   0.010  0.00  0.00    +0.024 C 
ATOM     20  C   UNL     1       0.002  -0.004   0.002  0.00  0.00    +0.102 C 
ENDBRANCH  11  20
ENDBRANCH  10  15
ENDBRANCH   9  10
ENDBRANCH   1   9
BRANCH   3  21
ATOM     21  O   UNL     1       4.663  -5.172  -8.132  0.00  0.00    -0.481 OA
BRANCH  21  22
ATOM     22  C   UNL     1       4.577  -3.752  -7.995  0.00  0.00    +0.325 C 
BRANCH  22  23
ATOM     23  C   UNL     1       5.242  -3.092  -9.174  0.00  0.00    +0.258 C 
ATOM     24  O   UNL     1       5.741  -3.769 -10.046  0.00  0.00    -0.272 OA
ATOM     25  N   UNL     1       5.282  -1.747  -9.259  0.00  0.00    -0.237 N 
ATOM     26  C   UNL     1       5.877  -1.156 -10.314  0.00  0.00    +0.306 C 
ATOM     27  O   UNL     1       6.378  -1.836 -11.189  0.00  0.00    -0.252 OA
ATOM     28  N   UNL     1       5.917   0.188 -10.400  0.00  0.00    -0.299 N 
ATOM     29  H   UNL     1       4.882  -1.205  -8.562  0.00  0.00    +0.159 HD
ATOM     30  H   UNL     1       5.518   0.731  -9.702  0.00  0.00    +0.150 HD
BRANCH  28  31
ATOM     31  C   UNL     1       6.564   0.831 -11.546  0.00  0.00    +0.102 C 
ATOM     32  C   UNL     1       6.471   2.351 -11.399  0.00  0.00    +0.024 C 
ENDBRANCH  28  31
ENDBRANCH  22  23
ENDBRANCH  21  22
ENDBRANCH   3  21
TORSDOF 8
