REMARK  Name = ZINC02249587
REMARK  10 active torsions:
REMARK  status: ('A' for Active; 'I' for Inactive)
REMARK    1  A    between atoms: C_1  and  O_2
REMARK    2  A    between atoms: O_2  and  C_3
REMARK    3  A    between atoms: C_3  and  C_4
REMARK    4  A    between atoms: C_4  and  N_5
REMARK    5  A    between atoms: C_6  and  C_8
REMARK    6  A    between atoms: N_19  and  N_22
REMARK    7  A    between atoms: C_20  and  N_21
REMARK    8  A    between atoms: C_23  and  C_24
REMARK    9  A    between atoms: C_27  and  O_31
REMARK   10  A    between atoms: C_28  and  O_30
REMARK                            x       y       z     vdW  Elec       q    Type
REMARK                         _______ _______ _______ _____ _____    ______ ____
ROOT
ATOM      1  C   UNL     1      -4.395   5.142  -0.729  0.00  0.00    +0.105 A 
ATOM      2  C   UNL     1      -4.439   5.162   0.743  0.00  0.00    +0.124 A 
ATOM      3  C   UNL     1      -3.219   4.476   1.178  0.00  0.00    +0.183 A 
ATOM      4  N   UNL     1      -2.979   4.338   2.465  0.00  0.00    -0.224 NA
ATOM      5  C   UNL     1      -3.848   4.823   3.361  0.00  0.00    +0.092 A 
ATOM      6  C   UNL     1      -3.599   4.679   4.739  0.00  0.00    +0.030 A 
ATOM      7  C   UNL     1      -4.487   5.174   5.643  0.00  0.00    +0.002 A 
ATOM      8  C   UNL     1      -5.646   5.826   5.226  0.00  0.00    +0.002 A 
ATOM      9  C   UNL     1      -5.921   5.984   3.903  0.00  0.00    +0.030 A 
ATOM     10  C   UNL     1      -5.027   5.485   2.938  0.00  0.00    +0.090 A 
ATOM     11  N   UNL     1      -5.288   5.635   1.633  0.00  0.00    -0.241 NA
ATOM     12  N   UNL     1      -2.540   4.098   0.036  0.00  0.00    -0.198 N 
ATOM     13  C   UNL     1      -3.218   4.489  -1.080  0.00  0.00    +0.134 A 
ENDROOT
BRANCH   1  15
ATOM     14  N   UNL     1      -6.390   4.926  -2.038  0.00  0.00    -0.309 N 
ATOM     15  C   UNL     1      -5.360   5.686  -1.615  0.00  0.00    +0.250 C 
ATOM     16  O   UNL     1      -5.258   6.839  -1.992  0.00  0.00    -0.270 OA
ATOM     17  H   UNL     1      -6.471   4.008  -1.737  0.00  0.00    +0.149 HD
BRANCH  14  18
ATOM     18  C   UNL     1      -7.386   5.488  -2.953  0.00  0.00    +0.132 C 
BRANCH  18  19
ATOM     19  C   UNL     1      -8.440   4.426  -3.275  0.00  0.00    +0.178 C 
BRANCH  19  21
ATOM     20  C   UNL     1     -10.175   3.106  -2.279  0.00  0.00    +0.194 C 
ATOM     21  O   UNL     1      -9.161   4.095  -2.087  0.00  0.00    -0.381 OA
ENDBRANCH  19  21
ENDBRANCH  18  19
ENDBRANCH  14  18
ENDBRANCH   1  15
BRANCH  13  22
ATOM     22  N   UNL     1      -2.800   4.266  -2.367  0.00  0.00    -0.342 N 
ATOM     23  H   UNL     1      -1.966   3.800  -2.532  0.00  0.00    +0.144 HD
ATOM     24  H   UNL     1      -3.339   4.576  -3.112  0.00  0.00    +0.144 HD
ENDBRANCH  13  22
BRANCH  12  25
ATOM     25  N   UNL     1      -1.318   3.412   0.027  0.00  0.00    -0.171 NA
ATOM     26  C   UNL     1      -1.302   2.115   0.020  0.00  0.00    +0.141 C 
BRANCH  26  27
ATOM     27  C   UNL     1      -0.017   1.393   0.010  0.00  0.00    -0.002 A 
ATOM     28  C   UNL     1       1.186   2.105   0.002  0.00  0.00    +0.013 A 
ATOM     29  C   UNL     1       2.387   1.428  -0.013  0.00  0.00    +0.050 A 
ATOM     30  C   UNL     1       2.405   0.041  -0.021  0.00  0.00    +0.158 A 
ATOM     31  C   UNL     1       1.210  -0.675  -0.013  0.00  0.00    +0.159 A 
ATOM     32  C   UNL     1       0.002  -0.004   0.002  0.00  0.00    +0.058 A 
BRANCH  31  33
ATOM     33  O   UNL     1       1.232  -2.035  -0.020  0.00  0.00    -0.503 OA
ATOM     34  H   UNL     1       1.230  -2.424  -0.906  0.00  0.00    +0.292 HD
ENDBRANCH  31  33
BRANCH  30  35
ATOM     35  O   UNL     1       3.592  -0.622  -0.036  0.00  0.00    -0.503 OA
ATOM     36  H   UNL     1       3.927  -0.808  -0.924  0.00  0.00    +0.292 HD
ENDBRANCH  30  35
ENDBRANCH  26  27
ENDBRANCH  12  25
TORSDOF 9
