REMARK  Name = ZINC23053424
REMARK  4 active torsions:
REMARK  status: ('A' for Active; 'I' for Inactive)
REMARK    1  A    between atoms: C_11  and  S_14
REMARK    2  A    between atoms: S_14  and  C_15
REMARK    3  A    between atoms: C_15  and  C_16
REMARK    4  A    between atoms: N_18  and  C_19
REMARK                            x       y       z     vdW  Elec       q    Type
REMARK                         _______ _______ _______ _____ _____    ______ ____
ROOT
ATOM      1  C   UNL     1      -7.521   2.685   0.088  0.00  0.00    +0.227 C 
ATOM      2  O   UNL     1      -7.248   1.503   0.071  0.00  0.00    -0.275 OA
ATOM      3  N   UNL     1      -8.810   3.078   0.105  0.00  0.00    -0.285 N 
ATOM      4  H   UNL     1      -9.059   4.145   0.197  0.00  0.00    +0.155 HD
ENDROOT
BRANCH   3   5
ATOM      5  C   UNL     1      -9.834   2.127   0.005  0.00  0.00    +0.035 A 
ATOM      6  C   UNL     1     -11.006   2.438  -0.675  0.00  0.00    +0.025 A 
ATOM      7  C   UNL     1     -12.016   1.503  -0.782  0.00  0.00    +0.029 A 
ATOM      8  C   UNL     1     -11.867   0.253  -0.199  0.00  0.00    +0.067 A 
ATOM      9  C   UNL     1     -10.693  -0.060   0.489  0.00  0.00    +0.069 A 
ATOM     10  C   UNL     1      -9.678   0.879   0.589  0.00  0.00    +0.051 A 
ATOM     11  N   UNL     1     -10.836  -1.365   0.955  0.00  0.00    -0.306 N 
ATOM     12  H   UNL     1     -10.026  -1.835   1.533  0.00  0.00    +0.170 HD
ATOM     13  C   UNL     1     -12.040  -1.825   0.568  0.00  0.00    +0.325 A 
ATOM     14  O   UNL     1     -12.479  -2.934   0.813  0.00  0.00    -0.247 OA
ATOM     15  N   UNL     1     -12.687  -0.873  -0.130  0.00  0.00    -0.306 N 
ATOM     16  H   UNL     1     -13.678  -0.862  -0.607  0.00  0.00    +0.170 HD
ENDBRANCH   3   5
BRANCH   1  17
ATOM     17  C   UNL     1      -6.420   3.713   0.090  0.00  0.00    +0.173 C 
BRANCH  17  18
ATOM     18  S   UNL     1      -4.811   2.876   0.065  0.00  0.00    -0.076 S 
BRANCH  18  29
ATOM     19  C   UNL     1       1.179   1.783  -0.002  0.00  0.00    +0.002 A 
ATOM     20  C   UNL     1      -0.012   1.077  -0.001  0.00  0.00    +0.002 A 
ATOM     21  C   UNL     1      -1.219   1.748   0.013  0.00  0.00    +0.028 A 
ATOM     22  C   UNL     1      -1.239   3.135   0.036  0.00  0.00    +0.075 A 
ATOM     23  C   UNL     1      -0.039   3.847   0.034  0.00  0.00    +0.066 A 
ATOM     24  C   UNL     1       1.169   3.163   0.015  0.00  0.00    +0.028 A 
ATOM     25  N   UNL     1      -0.357   5.201   0.054  0.00  0.00    -0.322 N 
ATOM     26  H   UNL     1       0.445   5.954   0.056  0.00  0.00    +0.169 HD
ATOM     27  C   UNL     1      -1.736   5.319   0.068  0.00  0.00    +0.235 A 
ATOM     28  N   UNL     1      -2.281   4.065   0.057  0.00  0.00    -0.255 N 
ATOM     29  C   UNL     1      -3.644   4.196   0.071  0.00  0.00    +0.198 A 
ATOM     30  N   UNL     1      -3.928   5.476   0.090  0.00  0.00    -0.120 NA
ATOM     31  N   UNL     1      -2.721   6.188   0.088  0.00  0.00    -0.110 NA
ENDBRANCH  18  29
ENDBRANCH  17  18
ENDBRANCH   1  17
TORSDOF 4
