REMARK  Name = ZINC39669075
REMARK  5 active torsions:
REMARK  status: ('A' for Active; 'I' for Inactive)
REMARK    1  A    between atoms: C_1  and  N_2
REMARK    2  A    between atoms: C_6  and  C_7
REMARK    3  A    between atoms: C_11  and  C_20
REMARK    4  A    between atoms: N_22  and  C_23
REMARK    5  A    between atoms: C_23  and  C_24
REMARK                            x       y       z     vdW  Elec       q    Type
REMARK                         _______ _______ _______ _____ _____    ______ ____
ROOT
ATOM      1  C   UNL     1      -0.177  -0.368   2.469  0.00  0.00    +0.263 C 
ATOM      2  O   UNL     1      -0.113  -1.191   3.364  0.00  0.00    -0.268 OA
ATOM      3  N   UNL     1      -0.385   0.931   2.762  0.00  0.00    -0.295 N 
ATOM      4  C   UNL     1      -0.633   2.046   1.817  0.00  0.00    +0.121 C 
ATOM      5  C   UNL     1      -1.706   2.914   2.512  0.00  0.00    +0.100 C 
ATOM      6  C   UNL     1      -1.558   2.597   4.010  0.00  0.00    -0.004 C 
ATOM      7  C   UNL     1      -0.424   1.566   4.101  0.00  0.00    +0.115 C 
ATOM      8  C   UNL     1      -2.852   1.998   4.553  0.00  0.00    -0.010 C 
ATOM      9  C   UNL     1      -2.699   1.744   6.056  0.00  0.00    -0.082 C 
ATOM     10  N   UNL     1      -2.396   3.008   6.739  0.00  0.00    +0.379 N 
ATOM     11  C   UNL     1      -1.105   3.530   6.277  0.00  0.00    -0.082 C 
ATOM     12  C   UNL     1      -1.190   3.859   4.784  0.00  0.00    -0.010 C 
ATOM     13  H   UNL     1      -3.121   3.680   6.537  0.00  0.00    -0.086 HD
ATOM     14  H   UNL     1      -2.357   2.849   7.735  0.00  0.00    -0.086 HD
ENDROOT
BRANCH   1  20
ATOM     15  C   UNL     1      -0.035  -3.291   1.452  0.00  0.00    +0.149 C 
ATOM     16  N   UNL     1       0.036  -2.089   0.618  0.00  0.00    -0.346 N 
ATOM     17  C   UNL     1       0.169  -2.069  -0.731  0.00  0.00    +0.086 A 
ATOM     18  C   UNL     1       0.197  -0.781  -1.149  0.00  0.00    +0.020 A 
ATOM     19  C   UNL     1       0.078   0.039  -0.023  0.00  0.00    +0.032 A 
ATOM     20  C   UNL     1      -0.028  -0.791   1.073  0.00  0.00    +0.104 A 
ENDBRANCH   1  20
BRANCH   5  21
ATOM     21  C   UNL     1      -3.082   2.536   2.027  0.00  0.00    +0.218 C 
ATOM     22  O   UNL     1      -3.288   1.421   1.597  0.00  0.00    -0.275 OA
ATOM     23  N   UNL     1      -4.083   3.438   2.070  0.00  0.00    -0.312 N 
ATOM     24  H   UNL     1      -3.918   4.330   2.414  0.00  0.00    +0.149 HD
BRANCH  23  25
ATOM     25  C   UNL     1      -5.420   3.070   1.599  0.00  0.00    +0.140 C 
BRANCH  25  26
ATOM     26  C   UNL     1      -6.363   4.265   1.756  0.00  0.00    +0.165 C 
ATOM     27  C   UNL     1      -7.735   3.887   1.263  0.00  0.00    -0.014 A 
ATOM     28  C   UNL     1      -7.844   3.175   0.078  0.00  0.00    +0.006 A 
ATOM     29  C   UNL     1      -9.086   2.816  -0.406  0.00  0.00    +0.000 A 
ATOM     30  C   UNL     1     -10.226   3.167   0.292  0.00  0.00    +0.000 A 
ATOM     31  C   UNL     1     -10.119   3.874   1.473  0.00  0.00    +0.004 A 
ATOM     32  C   UNL     1      -8.873   4.233   1.962  0.00  0.00    -0.040 A 
ATOM     33  C   UNL     1      -8.794   4.993   3.261  0.00  0.00    +0.063 C 
ATOM     34  C   UNL     1      -7.414   5.638   3.400  0.00  0.00    +0.165 C 
ATOM     35  O   UNL     1      -6.422   4.643   3.131  0.00  0.00    -0.370 OA
ENDBRANCH  25  26
ENDBRANCH  23  25
ENDBRANCH   5  21
TORSDOF 4
