REMARK  Name = ZINC66975924
REMARK  11 active torsions:
REMARK  status: ('A' for Active; 'I' for Inactive)
REMARK    1  A    between atoms: C_1  and  C_2
REMARK    2  A    between atoms: C_2  and  N_3
REMARK    3  A    between atoms: N_3  and  C_4
REMARK    4  A    between atoms: N_3  and  C_6
REMARK    5  A    between atoms: C_4  and  C_5
REMARK    6  A    between atoms: C_6  and  C_7
REMARK    7  A    between atoms: C_7  and  C_8
REMARK    8  A    between atoms: C_8  and  N_9
REMARK    9  A    between atoms: N_12  and  C_13
REMARK   10  A    between atoms: C_13  and  C_14
REMARK   11  A    between atoms: C_14  and  O_24
REMARK                            x       y       z     vdW  Elec       q    Type
REMARK                         _______ _______ _______ _____ _____    ______ ____
ROOT
ATOM      1  N   UNL     1      -4.255  -4.236   0.795  0.00  0.00    -0.299 N 
ATOM      2  C   UNL     1      -4.782  -5.414   1.183  0.00  0.00    +0.300 C 
ATOM      3  O   UNL     1      -4.057  -6.370   1.378  0.00  0.00    -0.253 OA
ATOM      4  N   UNL     1      -6.114  -5.532   1.355  0.00  0.00    -0.296 N 
ATOM      5  H   UNL     1      -4.833  -3.473   0.640  0.00  0.00    +0.150 HD
ATOM      6  H   UNL     1      -6.692  -4.769   1.200  0.00  0.00    +0.150 HD
ENDROOT
BRANCH   1   7
ATOM      7  C   UNL     1      -2.807  -4.108   0.609  0.00  0.00    +0.104 C 
BRANCH   7   8
ATOM      8  C   UNL     1      -2.474  -2.680   0.171  0.00  0.00    +0.000 C 
BRANCH   8   9
ATOM      9  C   UNL     1      -0.962  -2.546  -0.024  0.00  0.00    -0.077 C 
BRANCH   9  10
ATOM     10  N   UNL     1      -0.652  -1.207  -0.543  0.00  0.00    +0.379 N 
ATOM     11  H   UNL     1      -1.193  -1.036  -1.377  0.00  0.00    -0.082 HD
BRANCH  10  13
ATOM     12  C   UNL     1      -0.782   1.200  -0.111  0.00  0.00    -0.017 C 
ATOM     13  C   UNL     1      -0.987  -0.200   0.472  0.00  0.00    -0.082 C 
ENDBRANCH  10  13
BRANCH  10  14
ATOM     14  C   UNL     1       0.779  -1.125  -0.861  0.00  0.00    -0.082 C 
ATOM     15  C   UNL     1       1.099  -2.072  -2.020  0.00  0.00    -0.017 C 
ENDBRANCH  10  14
ENDBRANCH   9  10
ENDBRANCH   8   9
ENDBRANCH   7   8
ENDBRANCH   1   7
BRANCH   4  16
ATOM     16  C   UNL     1      -6.688  -6.812   1.776  0.00  0.00    +0.145 C 
BRANCH  16  17
ATOM     17  C   UNL     1      -8.214  -6.714   1.770  0.00  0.00    +0.107 C 
ATOM     18  C   UNL     1      -8.687  -6.295   0.380  0.00  0.00    +0.041 C 
ATOM     19  C   UNL     1     -10.215  -6.413   0.332  0.00  0.00    +0.008 C 
ATOM     20  C   UNL     1     -10.584  -7.895   0.363  0.00  0.00    +0.035 C 
ATOM     21  C   UNL     1      -9.890  -8.590   1.505  0.00  0.00    -0.041 A 
ATOM     22  C   UNL     1      -8.800  -8.049   2.149  0.00  0.00    -0.011 A 
ATOM     23  C   UNL     1      -8.202  -8.745   3.191  0.00  0.00    +0.007 A 
ATOM     24  C   UNL     1      -8.694  -9.971   3.589  0.00  0.00    +0.000 A 
ATOM     25  C   UNL     1      -9.791 -10.512   2.945  0.00  0.00    +0.000 A 
ATOM     26  C   UNL     1     -10.385  -9.823   1.908  0.00  0.00    +0.004 A 
BRANCH  17  27
ATOM     27  O   UNL     1      -8.627  -5.731   2.723  0.00  0.00    -0.382 OA
ATOM     28  H   UNL     1      -8.355  -5.925   3.631  0.00  0.00    +0.211 HD
ENDBRANCH  17  27
ENDBRANCH  16  17
ENDBRANCH   4  16
TORSDOF 9
