REMARK  Name = ZINC14994761
REMARK  9 active torsions:
REMARK  status: ('A' for Active; 'I' for Inactive)
REMARK    1  A    between atoms: C_6  and  C_7
REMARK    2  A    between atoms: C_7  and  C_9
REMARK    3  A    between atoms: C_7  and  N_31
REMARK    4  A    between atoms: C_9  and  N_10
REMARK    5  A    between atoms: C_11  and  C_17
REMARK    6  A    between atoms: C_17  and  C_18
REMARK    7  A    between atoms: C_18  and  N_19
REMARK    8  A    between atoms: N_19  and  C_20
REMARK    9  A    between atoms: C_20  and  C_21
REMARK                            x       y       z     vdW  Elec       q    Type
REMARK                         _______ _______ _______ _____ _____    ______ ____
ROOT
ATOM      1  N   UNL     1       5.390   2.902   0.679  0.00  0.00    -0.297 N 
ATOM      2  C   UNL     1       6.835   2.854   0.930  0.00  0.00    +0.075 C 
ATOM      3  C   UNL     1       7.420   4.085   0.200  0.00  0.00    +0.031 C 
ATOM      4  C   UNL     1       6.205   5.042   0.177  0.00  0.00    +0.098 C 
ATOM      5  C   UNL     1       5.007   4.122   0.264  0.00  0.00    +0.216 C 
ATOM      6  O   UNL     1       3.867   4.439  -0.002  0.00  0.00    -0.276 OA
ENDROOT
BRANCH   1   7
ATOM      7  C   UNL     1       4.480   1.769   0.864  0.00  0.00    +0.131 C 
BRANCH   7   8
ATOM      8  C   UNL     1       4.508   0.883  -0.384  0.00  0.00    +0.104 C 
BRANCH   8  14
ATOM      9  C   UNL     1       2.138   0.058  -0.206  0.00  0.00    +0.025 A 
ATOM     10  C   UNL     1       1.238  -0.983  -0.072  0.00  0.00    +0.111 A 
ATOM     11  N   UNL     1       1.658  -2.229   0.025  0.00  0.00    -0.263 NA
ATOM     12  C   UNL     1       2.941  -2.533  -0.001  0.00  0.00    +0.111 A 
ATOM     13  C   UNL     1       3.899  -1.545  -0.133  0.00  0.00    +0.025 A 
ATOM     14  C   UNL     1       3.495  -0.223  -0.238  0.00  0.00    -0.026 A 
ENDBRANCH   8  14
BRANCH   8  15
ATOM     15  N   UNL     1       4.183   1.693  -1.565  0.00  0.00    -0.290 NA
ATOM     16  C   UNL     1       3.522   0.878  -2.596  0.00  0.00    +0.113 C 
ATOM     17  C   UNL     1       3.148   1.771  -3.782  0.00  0.00    +0.175 C 
ATOM     18  O   UNL     1       4.325   2.418  -4.275  0.00  0.00    -0.377 OA
ATOM     19  C   UNL     1       4.994   3.220  -3.298  0.00  0.00    +0.175 C 
ATOM     20  C   UNL     1       5.386   2.342  -2.107  0.00  0.00    +0.113 C 
ENDBRANCH   8  15
ENDBRANCH   7   8
ENDBRANCH   1   7
BRANCH   2  21
ATOM     21  C   UNL     1       7.115   2.941   2.432  0.00  0.00    +0.003 C 
BRANCH  21  22
ATOM     22  C   UNL     1       6.461   1.755   3.143  0.00  0.00    -0.080 C 
BRANCH  22  23
ATOM     23  N   UNL     1       6.861   1.750   4.556  0.00  0.00    +0.382 N 
ATOM     24  H   UNL     1       7.955   1.662   4.627  0.00  0.00    -0.085 HD
ATOM     25  H   UNL     1       6.537   2.687   5.032  0.00  0.00    -0.085 HD
BRANCH  23  26
ATOM     26  C   UNL     1       6.250   0.622   5.272  0.00  0.00    -0.045 C 
BRANCH  26  27
ATOM     27  C   UNL     1       6.682   0.650   6.716  0.00  0.00    -0.042 A 
ATOM     28  C   UNL     1       5.800   1.075   7.692  0.00  0.00    +0.052 A 
ATOM     29  C   UNL     1       6.194   1.097   9.020  0.00  0.00    +0.167 A 
ATOM     30  C   UNL     1       7.483   0.701   9.367  0.00  0.00    +0.168 A 
ATOM     31  C   UNL     1       8.364   0.281   8.384  0.00  0.00    +0.069 A 
ATOM     32  C   UNL     1       7.963   0.257   7.060  0.00  0.00    +0.046 A 
ATOM     33 CL   UNL     1       9.068  -0.270   5.829  0.00  0.00    -0.083 Cl
ATOM     34  O   UNL     1       7.626   0.818  10.720  0.00  0.00    -0.453 OA
ATOM     35  C   UNL     1       6.551   1.675  11.147  0.00  0.00    +0.466 C 
ATOM     36  O   UNL     1       5.529   1.462  10.155  0.00  0.00    -0.453 OA
ENDBRANCH  26  27
ENDBRANCH  23  26
ENDBRANCH  22  23
ENDBRANCH  21  22
ENDBRANCH   2  21
TORSDOF 9
