REMARK  Name = ZINC06728061
REMARK  12 active torsions:
REMARK  status: ('A' for Active; 'I' for Inactive)
REMARK    1  A    between atoms: C_1  and  C_2
REMARK    2  A    between atoms: C_2  and  C_3
REMARK    3  A    between atoms: C_3  and  C_4
REMARK    4  A    between atoms: C_3  and  C_5
REMARK    5  A    between atoms: C_3  and  C_6
REMARK    6  A    between atoms: N_12  and  C_17
REMARK    7  A    between atoms: C_17  and  C_18
REMARK    8  A    between atoms: N_20  and  C_21
REMARK    9  A    between atoms: C_21  and  C_22
REMARK   10  A    between atoms: C_22  and  C_23
REMARK   11  A    between atoms: C_23  and  C_24
REMARK   12  A    between atoms: C_23  and  C_25
REMARK                            x       y       z     vdW  Elec       q    Type
REMARK                         _______ _______ _______ _____ _____    ______ ____
ROOT
ATOM      1  C   UNL     1      -1.242   3.135   0.030  0.00  0.00    -0.040 A 
ATOM      2  C   UNL     1      -1.219   1.752   0.017  0.00  0.00    +0.008 A 
ATOM      3  C   UNL     1      -0.013   1.076   0.008  0.00  0.00    +0.048 A 
ATOM      4  C   UNL     1       1.176   1.785   0.000  0.00  0.00    +0.143 A 
ATOM      5  C   UNL     1       1.152   3.179   0.009  0.00  0.00    +0.079 A 
ATOM      6  C   UNL     1      -0.059   3.851   0.023  0.00  0.00    +0.031 A 
ATOM      7  N   UNL     1       2.363   3.885   0.002  0.00  0.00    -0.257 N 
ATOM      8  C   UNL     1       3.499   3.233  -0.327  0.00  0.00    +0.258 C 
ATOM      9  O   UNL     1       4.563   3.817  -0.310  0.00  0.00    -0.271 OA
ATOM     10  C   UNL     1       3.440   1.778  -0.716  0.00  0.00    +0.325 C 
ATOM     11  O   UNL     1       2.371   1.137  -0.017  0.00  0.00    -0.481 OA
ENDROOT
BRANCH   1  12
ATOM     12  C   UNL     1      -2.561   3.864   0.046  0.00  0.00    -0.010 C 
ATOM     13  C   UNL     1      -2.647   4.735   1.301  0.00  0.00    +0.016 C 
ATOM     14  C   UNL     1      -2.670   4.748  -1.198  0.00  0.00    +0.016 C 
BRANCH  12  16
ATOM     15  C   UNL     1      -5.044   3.588   0.068  0.00  0.00    +0.005 C 
ATOM     16  C   UNL     1      -3.705   2.848   0.052  0.00  0.00    +0.007 C 
ENDBRANCH  12  16
ENDBRANCH   1  12
BRANCH   7  17
ATOM     17  C   UNL     1       2.396   5.309   0.347  0.00  0.00    +0.209 C 
BRANCH  17  18
ATOM     18  C   UNL     1       2.610   5.462   1.831  0.00  0.00    +0.231 C 
ATOM     19  O   UNL     1       2.724   4.478   2.531  0.00  0.00    -0.274 OA
ATOM     20  N   UNL     1       2.674   6.691   2.380  0.00  0.00    -0.314 N 
ATOM     21  H   UNL     1       2.583   7.478   1.819  0.00  0.00    +0.149 HD
BRANCH  20  22
ATOM     22  C   UNL     1       2.882   6.839   3.822  0.00  0.00    +0.104 C 
BRANCH  22  23
ATOM     23  C   UNL     1       2.916   8.326   4.182  0.00  0.00    +0.022 C 
BRANCH  23  24
ATOM     24  C   UNL     1       3.134   8.481   5.689  0.00  0.00    -0.016 C 
ATOM     25  C   UNL     1       3.292   9.964   6.031  0.00  0.00    +0.007 C 
ATOM     26  C   UNL     1       1.929   7.910   6.439  0.00  0.00    +0.007 C 
ENDBRANCH  23  24
ENDBRANCH  22  23
ENDBRANCH  20  22
ENDBRANCH  17  18
ENDBRANCH   7  17
TORSDOF 7
