REMARK  Name = ZINC07303152
REMARK  6 active torsions:
REMARK  status: ('A' for Active; 'I' for Inactive)
REMARK    1  A    between atoms: C_1  and  C_2
REMARK    2  A    between atoms: C_2  and  C_4
REMARK    3  A    between atoms: C_2  and  O_13
REMARK    4  A    between atoms: O_13  and  C_14
REMARK    5  A    between atoms: C_14  and  C_16
REMARK    6  A    between atoms: C_25  and  O_26
REMARK                            x       y       z     vdW  Elec       q    Type
REMARK                         _______ _______ _______ _____ _____    ______ ____
ROOT
ATOM      1  C   UNL     1       0.887   7.568  -0.315  0.00  0.00    +0.343 C 
ATOM      2  O   UNL     1      -0.090   8.220  -0.001  0.00  0.00    -0.245 OA
ENDROOT
BRANCH   1   3
ATOM      3  C   UNL     1       0.739   6.148  -0.674  0.00  0.00    +0.101 A 
ATOM      4  C   UNL     1       1.873   5.396  -1.036  0.00  0.00    +0.019 A 
ATOM      5  C   UNL     1       1.762   4.087  -1.371  0.00  0.00    +0.009 A 
ATOM      6  C   UNL     1       0.502   3.457  -1.362  0.00  0.00    -0.014 A 
ATOM      7  C   UNL     1       0.369   2.102  -1.707  0.00  0.00    +0.008 A 
ATOM      8  C   UNL     1      -0.861   1.518  -1.690  0.00  0.00    +0.001 A 
ATOM      9  C   UNL     1      -1.995   2.246  -1.341  0.00  0.00    +0.001 A 
ATOM     10  C   UNL     1      -1.904   3.561  -0.995  0.00  0.00    +0.012 A 
ATOM     11  C   UNL     1      -0.651   4.196  -1.002  0.00  0.00    +0.024 A 
ATOM     12  C   UNL     1      -0.523   5.556  -0.655  0.00  0.00    +0.138 A 
BRANCH  12  13
ATOM     13  O   UNL     1      -1.613   6.280  -0.307  0.00  0.00    -0.505 OA
ATOM     14  H   UNL     1      -1.811   6.264   0.639  0.00  0.00    +0.292 HD
ENDBRANCH  12  13
ENDBRANCH   1   3
BRANCH   1  15
ATOM     15  O   UNL     1       2.105   8.144  -0.332  0.00  0.00    -0.449 OA
BRANCH  15  17
ATOM     16  C   UNL     1       2.396   9.670   1.544  0.00  0.00    +0.062 C 
ATOM     17  C   UNL     1       2.176   9.547   0.034  0.00  0.00    +0.259 C 
BRANCH  17  18
ATOM     18  C   UNL     1       3.322  10.200  -0.695  0.00  0.00    +0.256 C 
ATOM     19  O   UNL     1       4.144   9.516  -1.267  0.00  0.00    -0.272 OA
ATOM     20  N   UNL     1       3.433  11.543  -0.711  0.00  0.00    -0.298 N 
ATOM     21  C   UNL     1       4.486  12.142  -1.500  0.00  0.00    +0.108 C 
ATOM     22  C   UNL     1       5.766  12.280  -0.649  0.00  0.00    +0.019 C 
ATOM     23  C   UNL     1       5.594  13.331   0.365  0.00  0.00    +0.002 C 
ATOM     24  C   UNL     1       4.492  13.049   1.381  0.00  0.00    +0.002 C 
ATOM     25  C   UNL     1       3.167  13.504   0.820  0.00  0.00    +0.019 C 
ATOM     26  C   UNL     1       2.478  12.341   0.082  0.00  0.00    +0.108 C 
ENDBRANCH  17  18
ENDBRANCH  15  17
ENDBRANCH   1  15
TORSDOF 5
