REMARK  Name = ZINC61364076
REMARK  4 active torsions:
REMARK  status: ('A' for Active; 'I' for Inactive)
REMARK    1  A    between atoms: C_1  and  N_2
REMARK    2  A    between atoms: C_3  and  N_22
REMARK    3  A    between atoms: C_4  and  N_11
REMARK    4  A    between atoms: N_11  and  C_12
REMARK                            x       y       z     vdW  Elec       q    Type
REMARK                         _______ _______ _______ _____ _____    ______ ____
ROOT
ATOM      1  C   UNL     1       0.551   0.323   2.333  0.00  0.00    +0.155 C 
ATOM      2  N   UNL     1       0.276  -0.555   1.193  0.00  0.00    -0.284 N 
ATOM      3  C   UNL     1      -0.904  -1.262   1.143  0.00  0.00    +0.127 A 
ATOM      4  C   UNL     1      -1.152  -2.079   0.074  0.00  0.00    +0.131 A 
ATOM      5  C   UNL     1      -0.191  -2.175  -0.949  0.00  0.00    +0.277 A 
ATOM      6  O   UNL     1      -0.389  -2.897  -1.912  0.00  0.00    -0.266 OA
ATOM      7  N   UNL     1       0.951  -1.465  -0.858  0.00  0.00    -0.273 N 
ATOM      8  H   UNL     1       1.614  -1.530  -1.562  0.00  0.00    +0.173 HD
ATOM      9  C   UNL     1       1.176  -0.662   0.198  0.00  0.00    +0.331 A 
ATOM     10  O   UNL     1       2.211  -0.027   0.257  0.00  0.00    -0.246 OA
ENDROOT
BRANCH   3  11
ATOM     11  N   UNL     1      -1.826  -1.148   2.159  0.00  0.00    -0.343 N 
ATOM     12  H   UNL     1      -1.645  -0.567   2.914  0.00  0.00    +0.144 HD
ATOM     13  H   UNL     1      -2.656  -1.648   2.119  0.00  0.00    +0.144 HD
ENDBRANCH   3  11
BRANCH   4  14
ATOM     14  N   UNL     1      -2.356  -2.816  -0.002  0.00  0.00    -0.330 N 
ATOM     15  H   UNL     1      -3.209  -2.356   0.025  0.00  0.00    +0.147 HD
BRANCH  14  16
ATOM     16  C   UNL     1      -2.315  -4.276  -0.121  0.00  0.00    +0.102 C 
ATOM     17  C   UNL     1      -3.587  -4.769  -0.813  0.00  0.00    +0.027 C 
ATOM     18  C   UNL     1      -4.802  -4.521   0.084  0.00  0.00    +0.007 C 
ATOM     19  C   UNL     1      -4.734  -5.478   1.283  0.00  0.00    +0.043 C 
ATOM     20  C   UNL     1      -3.352  -5.425   1.849  0.00  0.00    -0.005 A 
ATOM     21  C   UNL     1      -2.234  -4.900   1.269  0.00  0.00    -0.017 A 
ATOM     22  C   UNL     1      -1.053  -4.971   2.006  0.00  0.00    +0.013 A 
ATOM     23  C   UNL     1      -1.052  -5.540   3.233  0.00  0.00    +0.046 A 
ATOM     24  S   UNL     1      -2.772  -6.020   3.415  0.00  0.00    -0.101 S 
ENDBRANCH  14  16
ENDBRANCH   4  14
TORSDOF 3
