REMARK  Name = ZINC06284094
REMARK  9 active torsions:
REMARK  status: ('A' for Active; 'I' for Inactive)
REMARK    1  A    between atoms: C_1  and  C_2
REMARK    2  A    between atoms: C_2  and  C_3
REMARK    3  A    between atoms: C_6  and  C_8
REMARK    4  A    between atoms: C_10  and  C_32
REMARK    5  A    between atoms: C_11  and  N_31
REMARK    6  A    between atoms: N_12  and  C_22
REMARK    7  A    between atoms: C_18  and  C_20
REMARK    8  A    between atoms: C_18  and  C_21
REMARK    9  A    between atoms: C_27  and  N_28
REMARK                            x       y       z     vdW  Elec       q    Type
REMARK                         _______ _______ _______ _____ _____    ______ ____
ROOT
ATOM      1  C   UNL     1      -3.710   1.458   0.011  0.00  0.00    +0.104 C 
ATOM      2  C   UNL     1      -2.375   0.808  -0.202  0.00  0.00    +0.077 C 
ATOM      3  C   UNL     1      -1.228   1.536  -0.175  0.00  0.00    +0.107 C 
ATOM      4  N   UNL     1      -1.277   2.893   0.048  0.00  0.00    -0.258 N 
ATOM      5  C   UNL     1      -2.440   3.590  -0.161  0.00  0.00    +0.025 C 
ATOM      6  C   UNL     1      -3.628   2.950  -0.193  0.00  0.00    +0.026 C 
ATOM      7  C   UNL     1      -4.824   3.654  -0.417  0.00  0.00    +0.162 C 
ATOM      8  O   UNL     1      -5.878   3.049  -0.428  0.00  0.00    -0.292 OA
ATOM      9  C   UNL     1      -4.824   5.141  -0.643  0.00  0.00    +0.086 C 
ATOM     10  C   UNL     1      -3.488   5.549  -1.272  0.00  0.00    -0.023 C 
ATOM     11  C   UNL     1      -2.357   5.085  -0.351  0.00  0.00    +0.058 C 
ATOM     12  C   UNL     1      -3.340   4.886  -2.642  0.00  0.00    +0.011 C 
ATOM     13  C   UNL     1      -3.437   7.070  -1.428  0.00  0.00    +0.011 C 
ENDROOT
BRANCH   4  14
ATOM     14  C   UNL     1      -0.130   3.567   0.485  0.00  0.00    +0.070 A 
ATOM     15  C   UNL     1       0.077   3.780   1.842  0.00  0.00    +0.026 A 
ATOM     16  C   UNL     1       1.209   4.445   2.270  0.00  0.00    +0.002 A 
ATOM     17  C   UNL     1       2.137   4.897   1.349  0.00  0.00    +0.002 A 
ATOM     18  C   UNL     1       1.934   4.686  -0.002  0.00  0.00    +0.034 A 
ATOM     19  C   UNL     1       0.806   4.018  -0.436  0.00  0.00    +0.148 A 
BRANCH  19  20
ATOM     20  N   UNL     1       0.592   3.787  -1.883  0.00  0.00    +0.058 N 
ATOM     21  O   UNL     1       1.457   4.097  -2.683  0.00  0.00    -0.126 OA
ATOM     22  O   UNL     1      -0.448   3.287  -2.273  0.00  0.00    -0.126 OA
ENDBRANCH  19  20
ENDBRANCH   4  14
BRANCH   1  26
ATOM     23  C   UNL     1      -4.612   0.869   4.059  0.00  0.00    -0.010 A 
ATOM     24  C   UNL     1      -5.551   0.433   3.184  0.00  0.00    +0.011 A 
ATOM     25  C   UNL     1      -5.332   0.595   1.829  0.00  0.00    +0.012 A 
ATOM     26  C   UNL     1      -4.179   1.176   1.415  0.00  0.00    +0.003 A 
ATOM     27  S   UNL     1      -3.365   1.526   2.964  0.00  0.00    -0.097 S 
BRANCH  23  29
ATOM     28  C   UNL     1      -3.980  -0.498   6.029  0.00  0.00    +0.009 C 
ATOM     29  C   UNL     1      -4.620   0.812   5.565  0.00  0.00    +0.039 C 
ENDBRANCH  23  29
ENDBRANCH   1  26
BRANCH   3  30
ATOM     30  N   UNL     1      -0.017   0.914  -0.364  0.00  0.00    -0.345 N 
ATOM     31  H   UNL     1       0.019  -0.043  -0.517  0.00  0.00    +0.144 HD
ATOM     32  H   UNL     1       0.802   1.434  -0.348  0.00  0.00    +0.144 HD
ENDBRANCH   3  30
BRANCH   2  33
ATOM     33  C   UNL     1      -2.308  -0.603  -0.437  0.00  0.00    +0.099 C 
ATOM     34  N   UNL     1      -2.255  -1.722  -0.623  0.00  0.00    -0.191 NA
ENDBRANCH   2  33
TORSDOF 6
