REMARK  Name = ZINC04100024
REMARK  9 active torsions:
REMARK  status: ('A' for Active; 'I' for Inactive)
REMARK    1  A    between atoms: C_9  and  C_28
REMARK    2  A    between atoms: C_14  and  S_16
REMARK    3  A    between atoms: S_16  and  C_17
REMARK    4  A    between atoms: C_17  and  C_18
REMARK    5  A    between atoms: N_20  and  C_21
REMARK    6  A    between atoms: C_21  and  C_22
REMARK    7  A    between atoms: C_28  and  C_29
REMARK    8  A    between atoms: N_31  and  C_32
REMARK    9  A    between atoms: C_32  and  C_33
REMARK                            x       y       z     vdW  Elec       q    Type
REMARK                         _______ _______ _______ _____ _____    ______ ____
ROOT
ATOM      1  C   UNL     1      -0.017   1.375   0.010  0.00  0.00    +0.001 A 
ATOM      2  C   UNL     1       1.169   2.095   0.002  0.00  0.00    +0.002 A 
ATOM      3  C   UNL     1       2.386   1.450  -0.013  0.00  0.00    +0.028 A 
ATOM      4  C   UNL     1       2.430   0.054  -0.021  0.00  0.00    +0.077 A 
ATOM      5  C   UNL     1       1.222  -0.673  -0.013  0.00  0.00    +0.041 A 
ATOM      6  C   UNL     1       0.002  -0.004   0.002  0.00  0.00    +0.013 A 
ATOM      7  C   UNL     1       1.292  -2.150  -0.022  0.00  0.00    +0.139 C 
ATOM      8  N   UNL     1       0.340  -3.041  -0.017  0.00  0.00    -0.255 NA
ATOM      9  C   UNL     1       0.967  -4.370  -0.030  0.00  0.00    +0.202 C 
ATOM     10  C   UNL     1       2.451  -4.074  -0.043  0.00  0.00    +0.252 C 
ATOM     11  O   UNL     1       3.360  -4.877  -0.057  0.00  0.00    -0.272 OA
ATOM     12  N   UNL     1       2.551  -2.725  -0.037  0.00  0.00    -0.200 N 
ATOM     13  C   UNL     1       3.670  -1.919  -0.044  0.00  0.00    +0.169 C 
ATOM     14  N   UNL     1       3.610  -0.615  -0.036  0.00  0.00    -0.225 NA
ENDROOT
BRANCH  13  15
ATOM     15  S   UNL     1       5.257  -2.685  -0.062  0.00  0.00    -0.080 S 
BRANCH  15  16
ATOM     16  C   UNL     1       6.418  -1.291  -0.067  0.00  0.00    +0.172 C 
BRANCH  16  17
ATOM     17  C   UNL     1       7.831  -1.815  -0.083  0.00  0.00    +0.223 C 
ATOM     18  O   UNL     1       8.035  -3.010  -0.090  0.00  0.00    -0.275 OA
ATOM     19  N   UNL     1       8.868  -0.954  -0.088  0.00  0.00    -0.312 N 
ATOM     20  H   UNL     1       8.705   0.002  -0.082  0.00  0.00    +0.149 HD
BRANCH  19  21
ATOM     21  C   UNL     1      10.242  -1.463  -0.104  0.00  0.00    +0.135 C 
BRANCH  21  22
ATOM     22  C   UNL     1      11.221  -0.287  -0.107  0.00  0.00    +0.135 C 
ATOM     23  C   UNL     1      12.681  -0.803  -0.159  0.00  0.00    +0.035 C 
ATOM     24  C   UNL     1      13.403   0.418  -0.791  0.00  0.00    +0.031 C 
ATOM     25  C   UNL     1      12.330   0.972  -1.752  0.00  0.00    +0.160 C 
ATOM     26  O   UNL     1      11.055   0.496  -1.300  0.00  0.00    -0.375 OA
ENDBRANCH  21  22
ENDBRANCH  19  21
ENDBRANCH  16  17
ENDBRANCH  15  16
ENDBRANCH  13  15
BRANCH   9  27
ATOM     27  C   UNL     1       0.560  -5.143  -1.286  0.00  0.00    +0.132 C 
BRANCH  27  28
ATOM     28  C   UNL     1      -0.915  -5.447  -1.233  0.00  0.00    +0.216 C 
ATOM     29  O   UNL     1      -1.576  -5.081  -0.284  0.00  0.00    -0.276 OA
ATOM     30  N   UNL     1      -1.500  -6.125  -2.240  0.00  0.00    -0.308 N 
ATOM     31  H   UNL     1      -0.972  -6.417  -2.999  0.00  0.00    +0.149 HD
BRANCH  30  32
ATOM     32  C   UNL     1      -2.934  -6.420  -2.189  0.00  0.00    +0.178 C 
BRANCH  32  33
ATOM     33  C   UNL     1      -3.335  -7.181  -3.426  0.00  0.00    +0.122 A 
ATOM     34  C   UNL     1      -3.337  -8.520  -3.560  0.00  0.00    +0.046 A 
ATOM     35  C   UNL     1      -3.780  -8.799  -4.873  0.00  0.00    +0.041 A 
ATOM     36  C   UNL     1      -4.022  -7.615  -5.464  0.00  0.00    +0.195 A 
ATOM     37  O   UNL     1      -3.756  -6.639  -4.581  0.00  0.00    -0.466 OA
ENDBRANCH  32  33
ENDBRANCH  30  32
ENDBRANCH  27  28
ENDBRANCH   9  27
TORSDOF 9
