REMARK  Name = ZINC40824406
REMARK  5 active torsions:
REMARK  status: ('A' for Active; 'I' for Inactive)
REMARK    1  A    between atoms: C_1  and  C_2
REMARK    2  A    between atoms: C_6  and  C_7
REMARK    3  A    between atoms: C_7  and  O_9
REMARK    4  A    between atoms: O_9  and  C_10
REMARK    5  A    between atoms: N_22  and  N_23
REMARK                            x       y       z     vdW  Elec       q    Type
REMARK                         _______ _______ _______ _____ _____    ______ ____
ROOT
ATOM      1  C   UNL     1      -0.287   1.509   0.031  0.00  0.00    +0.048 C 
ATOM      2  C   UNL     1      -0.165   0.007   0.013  0.00  0.00    +0.011 A 
ATOM      3  C   UNL     1      -0.129  -0.819  -1.117  0.00  0.00    +0.042 A 
ATOM      4  C   UNL     1      -0.013  -2.116  -0.676  0.00  0.00    +0.115 A 
ATOM      5  O   UNL     1       0.023  -2.098   0.654  0.00  0.00    -0.452 OA
ATOM      6  C   UNL     1      -0.063  -0.822   1.096  0.00  0.00    +0.215 A 
ATOM      7  C   UNL     1       0.052  -3.297  -1.611  0.00  0.00    +0.075 C 
ATOM      8  C   UNL     1      -0.531  -2.902  -2.970  0.00  0.00    +0.014 C 
ATOM      9  C   UNL     1       0.145  -1.633  -3.500  0.00  0.00    +0.058 C 
ATOM     10  C   UNL     1      -0.191  -0.486  -2.558  0.00  0.00    +0.070 C 
ATOM     11  N   UNL     1      -0.509   0.696  -2.986  0.00  0.00    -0.183 NA
ENDROOT
BRANCH  11  12
ATOM     12  N   UNL     1      -0.552   0.954  -4.362  0.00  0.00    -0.191 N 
ATOM     13  C   UNL     1      -0.882   2.183  -4.807  0.00  0.00    +0.317 C 
ATOM     14  O   UNL     1      -0.920   2.407  -6.002  0.00  0.00    -0.251 OA
ATOM     15  N   UNL     1      -1.171   3.163  -3.928  0.00  0.00    -0.312 N 
ATOM     16  H   UNL     1      -0.344   0.249  -4.995  0.00  0.00    +0.179 HD
ATOM     17  H   UNL     1      -1.141   2.984  -2.975  0.00  0.00    +0.147 HD
ATOM     18  H   UNL     1      -1.409   4.047  -4.248  0.00  0.00    +0.147 HD
ENDBRANCH  11  12
BRANCH   6  19
ATOM     19  C   UNL     1      -0.052  -0.400   2.499  0.00  0.00    +0.380 C 
ATOM     20  O   UNL     1      -0.140   0.781   2.780  0.00  0.00    -0.241 OA
BRANCH  19  21
ATOM     21  O   UNL     1       0.054  -1.320   3.480  0.00  0.00    -0.419 OA
BRANCH  21  22
ATOM     22  C   UNL     1       0.165  -0.878   4.761  0.00  0.00    +0.150 A 
ATOM     23  C   UNL     1       1.418  -0.712   5.332  0.00  0.00    +0.049 A 
ATOM     24  C   UNL     1       1.529  -0.263   6.634  0.00  0.00    +0.023 A 
ATOM     25  C   UNL     1       0.391   0.022   7.368  0.00  0.00    +0.043 A 
ATOM     26  C   UNL     1      -0.860  -0.143   6.801  0.00  0.00    +0.043 A 
ATOM     27  C   UNL     1      -0.976  -0.586   5.497  0.00  0.00    +0.085 A 
ATOM     28 CL   UNL     1      -2.545  -0.785   4.782  0.00  0.00    -0.080 Cl
ATOM     29 CL   UNL     1       0.534   0.586   9.004  0.00  0.00    -0.083 Cl
ENDBRANCH  21  22
ENDBRANCH  19  21
ENDBRANCH   6  19
TORSDOF 4
