REMARK  Name = ZINC23700314
REMARK  6 active torsions:
REMARK  status: ('A' for Active; 'I' for Inactive)
REMARK    1  A    between atoms: C_1  and  C_2
REMARK    2  A    between atoms: C_2  and  O_3
REMARK    3  A    between atoms: O_3  and  C_4
REMARK    4  A    between atoms: C_4  and  C_6
REMARK    5  A    between atoms: N_11  and  C_13
REMARK    6  A    between atoms: C_13  and  C_14
REMARK                            x       y       z     vdW  Elec       q    Type
REMARK                         _______ _______ _______ _____ _____    ______ ____
ROOT
ATOM      1  C   UNL     1      -0.792   1.882   1.246  0.00  0.00    +0.118 A 
ATOM      2  N   UNL     1      -2.102   1.542   1.334  0.00  0.00    -0.193 NA
ATOM      3  C   UNL     1      -2.821   1.863   2.432  0.00  0.00    +0.316 A 
ATOM      4  O   UNL     1      -3.998   1.554   2.518  0.00  0.00    -0.262 OA
ATOM      5  C   UNL     1      -2.180   2.569   3.475  0.00  0.00    +0.220 A 
ATOM      6  C   UNL     1      -0.836   2.892   3.318  0.00  0.00    +0.124 A 
ATOM      7  N   UNL     1      -0.186   2.533   2.199  0.00  0.00    -0.230 NA
ATOM      8  C   UNL     1      -0.453   3.610   4.543  0.00  0.00    +0.046 A 
ATOM      9  C   UNL     1       0.730   4.189   4.998  0.00  0.00    +0.014 A 
ATOM     10  C   UNL     1       0.758   4.804   6.230  0.00  0.00    +0.001 A 
ATOM     11  C   UNL     1      -0.385   4.851   7.014  0.00  0.00    +0.004 A 
ATOM     12  C   UNL     1      -1.562   4.283   6.575  0.00  0.00    +0.047 A 
ATOM     13  C   UNL     1      -1.612   3.656   5.335  0.00  0.00    +0.138 A 
ATOM     14  O   UNL     1      -2.606   3.031   4.669  0.00  0.00    -0.448 OA
ENDROOT
BRANCH   1  15
ATOM     15  C   UNL     1      -0.018   1.503   0.010  0.00  0.00    -0.001 C 
BRANCH  15  20
ATOM     16  C   UNL     1       2.651   4.152   0.203  0.00  0.00    +0.081 C 
ATOM     17  C   UNL     1       3.599   3.607  -0.869  0.00  0.00    +0.011 C 
ATOM     18  C   UNL     1       3.615   2.077  -0.795  0.00  0.00    -0.018 C 
ATOM     19  C   UNL     1       2.191   1.547  -0.978  0.00  0.00    -0.078 C 
ATOM     20  N   UNL     1       1.324   2.097   0.071  0.00  0.00    +0.385 N 
ATOM     21  C   UNL     1       1.255   3.562  -0.010  0.00  0.00    -0.064 C 
ATOM     22  H   UNL     1       1.767   1.836   1.044  0.00  0.00    -0.081 HD
BRANCH  16  23
ATOM     23  C   UNL     1       2.583   5.654   0.098  0.00  0.00    +0.308 C 
ATOM     24  O   UNL     1       1.527   6.197  -0.124  0.00  0.00    -0.251 OA
BRANCH  23  25
ATOM     25  O   UNL     1       3.697   6.388   0.251  0.00  0.00    -0.465 OA
BRANCH  25  27
ATOM     26  C   UNL     1       4.921   8.491   0.340  0.00  0.00    +0.048 C 
ATOM     27  C   UNL     1       3.557   7.829   0.137  0.00  0.00    +0.229 C 
ENDBRANCH  25  27
ENDBRANCH  23  25
ENDBRANCH  16  23
ENDBRANCH  15  20
ENDBRANCH   1  15
TORSDOF 5
