REMARK  Name = ZINC66244681
REMARK  4 active torsions:
REMARK  status: ('A' for Active; 'I' for Inactive)
REMARK    1  A    between atoms: C_4  and  N_7
REMARK    2  A    between atoms: N_10  and  C_11
REMARK    3  A    between atoms: C_11  and  C_12
REMARK    4  A    between atoms: C_12  and  C_18
REMARK                            x       y       z     vdW  Elec       q    Type
REMARK                         _______ _______ _______ _____ _____    ______ ____
ROOT
ATOM      1  C   UNL     1       4.774  -3.980   0.867  0.00  0.00    +0.127 C 
ENDROOT
BRANCH   1   5
ATOM      2  N   UNL     1       2.877  -0.777   0.746  0.00  0.00    -0.328 N 
ATOM      3  C   UNL     1       3.168  -2.122   0.719  0.00  0.00    +0.173 C 
ATOM      4  N   UNL     1       2.216  -2.991   0.526  0.00  0.00    -0.371 N 
ATOM      5  N   UNL     1       4.463  -2.549   0.895  0.00  0.00    -0.357 N 
ATOM      6  H   UNL     1       3.565  -0.136   0.984  0.00  0.00    +0.169 HD
ATOM      7  H   UNL     1       2.432  -3.931   0.417  0.00  0.00    +0.159 HD
ATOM      8  H   UNL     1       5.172  -1.901   1.039  0.00  0.00    +0.162 HD
ATOM      9  H   UNL     1       1.292  -2.699   0.492  0.00  0.00    +0.159 HD
BRANCH   2  13
ATOM     10  C   UNL     1      -0.961   0.543  -0.195  0.00  0.00    +0.000 A 
ATOM     11  C   UNL     1      -0.267   1.126   0.849  0.00  0.00    +0.002 A 
ATOM     12  C   UNL     1       1.005   0.691   1.164  0.00  0.00    +0.026 A 
ATOM     13  C   UNL     1       1.588  -0.334   0.430  0.00  0.00    +0.042 A 
ATOM     14  C   UNL     1       0.888  -0.919  -0.618  0.00  0.00    +0.026 A 
ATOM     15  C   UNL     1      -0.383  -0.478  -0.927  0.00  0.00    +0.002 A 
ENDBRANCH   2  13
ENDBRANCH   1   5
BRANCH   1  16
ATOM     16  C   UNL     1       6.288  -4.176   0.968  0.00  0.00    +0.019 C 
ATOM     17  C   UNL     1       6.962  -3.622  -0.290  0.00  0.00    +0.041 C 
ATOM     18  C   UNL     1       6.483  -4.416  -1.508  0.00  0.00    +0.161 C 
ATOM     19  O   UNL     1       6.781  -5.801  -1.319  0.00  0.00    -0.380 OA
ATOM     20  C   UNL     1       6.139  -6.385  -0.183  0.00  0.00    +0.161 C 
ATOM     21  C   UNL     1       6.604  -5.670   1.088  0.00  0.00    +0.041 C 
BRANCH  16  22
ATOM     22  C   UNL     1       6.809  -3.451   2.182  0.00  0.00    -0.021 A 
ATOM     23  C   UNL     1       7.803  -2.500   2.046  0.00  0.00    +0.007 A 
ATOM     24  C   UNL     1       8.282  -1.835   3.158  0.00  0.00    +0.020 A 
ATOM     25  C   UNL     1       7.766  -2.121   4.410  0.00  0.00    +0.042 A 
ATOM     26  C   UNL     1       6.771  -3.072   4.548  0.00  0.00    +0.040 A 
ATOM     27  C   UNL     1       6.289  -3.734   3.433  0.00  0.00    +0.046 A 
ATOM     28 CL   UNL     1       5.037  -4.923   3.604  0.00  0.00    -0.083 Cl
ATOM     29 CL   UNL     1       8.368  -1.286   5.808  0.00  0.00    -0.083 Cl
ENDBRANCH  16  22
ENDBRANCH   1  16
TORSDOF 4
