REMARK  Name = ZINC38487397
REMARK  5 active torsions:
REMARK  status: ('A' for Active; 'I' for Inactive)
REMARK    1  A    between atoms: C_1  and  C_2
REMARK    2  A    between atoms: C_7  and  N_8
REMARK    3  A    between atoms: C_9  and  C_11
REMARK    4  A    between atoms: C_11  and  N_12
REMARK    5  A    between atoms: C_23  and  C_25
REMARK                            x       y       z     vdW  Elec       q    Type
REMARK                         _______ _______ _______ _____ _____    ______ ____
ROOT
ATOM      1  N   UNL     1      -0.242  -0.902   5.989  0.00  0.00    -0.203 N 
ATOM      2  C   UNL     1       0.802  -1.403   6.679  0.00  0.00    +0.352 A 
ATOM      3  O   UNL     1       1.978  -1.141   6.494  0.00  0.00    -0.244 OA
ATOM      4  N   UNL     1       0.315  -2.245   7.611  0.00  0.00    -0.248 N 
ATOM      5  C   UNL     1       0.928  -3.027   8.582  0.00  0.00    +0.117 A 
ATOM      6  C   UNL     1       0.227  -3.793   9.404  0.00  0.00    +0.131 A 
ATOM      7  N   UNL     1      -1.157  -3.861   9.343  0.00  0.00    -0.234 N 
ATOM      8  C   UNL     1      -1.834  -3.120   8.410  0.00  0.00    +0.112 A 
ATOM      9  C   UNL     1      -1.067  -2.264   7.492  0.00  0.00    +0.187 A 
ATOM     10  N   UNL     1      -1.411  -1.458   6.527  0.00  0.00    -0.146 NA
ATOM     11  C   UNL     1      -3.175  -3.374   8.570  0.00  0.00    +0.061 A 
ATOM     12  C   UNL     1      -3.308  -4.291   9.625  0.00  0.00    +0.094 A 
ATOM     13  N   UNL     1      -2.104  -4.579  10.083  0.00  0.00    -0.166 NA
ENDROOT
BRANCH  12  14
ATOM     14  C   UNL     1      -4.586  -4.842  10.138  0.00  0.00    +0.002 A 
ATOM     15  C   UNL     1      -5.795  -4.459   9.561  0.00  0.00    +0.011 A 
ATOM     16  C   UNL     1      -6.981  -4.975  10.041  0.00  0.00    +0.020 A 
ATOM     17  C   UNL     1      -6.971  -5.872  11.096  0.00  0.00    +0.041 A 
ATOM     18  C   UNL     1      -5.773  -6.256  11.673  0.00  0.00    +0.020 A 
ATOM     19  C   UNL     1      -4.581  -5.750  11.195  0.00  0.00    +0.011 A 
ATOM     20 CL   UNL     1      -8.467  -6.517  11.696  0.00  0.00    -0.084 Cl
ENDBRANCH  12  14
BRANCH   1  21
ATOM     21  C   UNL     1      -0.169   0.055   4.882  0.00  0.00    +0.244 C 
BRANCH  21  23
ATOM     22  N   UNL     1       0.025  -0.013   2.417  0.00  0.00    -0.284 N 
ATOM     23  C   UNL     1      -0.057  -0.692   3.578  0.00  0.00    +0.239 C 
ATOM     24  O   UNL     1      -0.040  -1.905   3.574  0.00  0.00    -0.273 OA
ATOM     25  H   UNL     1       0.077   0.955   2.424  0.00  0.00    +0.155 HD
BRANCH  22  32
ATOM     26  C   UNL     1      -1.266   1.182   0.182  0.00  0.00    +0.045 C 
ATOM     27  C   UNL     1      -0.585  -0.158   0.085  0.00  0.00    -0.029 A 
ATOM     28  C   UNL     1      -0.571  -0.841  -1.117  0.00  0.00    +0.008 A 
ATOM     29  C   UNL     1       0.054  -2.070  -1.208  0.00  0.00    +0.039 A 
ATOM     30  C   UNL     1       0.667  -2.623  -0.095  0.00  0.00    +0.125 A 
ATOM     31  C   UNL     1       0.656  -1.944   1.110  0.00  0.00    +0.062 A 
ATOM     32  C   UNL     1       0.034  -0.706   1.201  0.00  0.00    +0.039 A 
ATOM     33  F   UNL     1       1.277  -3.825  -0.187  0.00  0.00    -0.205 F 
ENDBRANCH  22  32
ENDBRANCH  21  23
ENDBRANCH   1  21
TORSDOF 4
