REMARK  Name = ZINC19926775
REMARK  10 active torsions:
REMARK  status: ('A' for Active; 'I' for Inactive)
REMARK    1  A    between atoms: C_1  and  C_2
REMARK    2  A    between atoms: C_2  and  N_3
REMARK    3  A    between atoms: N_3  and  C_4
REMARK    4  A    between atoms: N_3  and  C_6
REMARK    5  A    between atoms: C_4  and  C_5
REMARK    6  A    between atoms: C_6  and  C_7
REMARK    7  A    between atoms: C_8  and  C_18
REMARK    8  A    between atoms: N_20  and  N_21
REMARK    9  A    between atoms: C_22  and  C_23
REMARK   10  A    between atoms: C_28  and  O_29
REMARK                            x       y       z     vdW  Elec       q    Type
REMARK                         _______ _______ _______ _____ _____    ______ ____
ROOT
ATOM      1  C   UNL     1      -0.364  -0.882   2.240  0.00  0.00    +0.079 A 
ATOM      2  C   UNL     1      -1.242  -0.726   3.281  0.00  0.00    +0.154 A 
ATOM      3  N   UNL     1      -0.561  -1.135   4.401  0.00  0.00    -0.183 N 
ATOM      4  N   UNL     1       0.618  -1.499   4.036  0.00  0.00    -0.058 NA
ATOM      5  N   UNL     1       0.762  -1.366   2.766  0.00  0.00    -0.135 NA
ATOM      6  C   UNL     1      -1.061  -1.153   5.707  0.00  0.00    +0.241 A 
ATOM      7  C   UNL     1      -0.370  -1.691   6.883  0.00  0.00    +0.206 A 
ATOM      8  N   UNL     1      -1.144  -1.533   7.921  0.00  0.00    -0.032 NA
ATOM      9  O   UNL     1      -2.335  -0.903   7.483  0.00  0.00    -0.239 OA
ATOM     10  N   UNL     1      -2.217  -0.688   6.088  0.00  0.00    -0.027 NA
ATOM     11  N   UNL     1       0.893  -2.272   6.890  0.00  0.00    -0.337 N 
ATOM     12  H   UNL     1       1.321  -2.646   7.832  0.00  0.00    +0.144 HD
ATOM     13  H   UNL     1       1.464  -2.357   5.954  0.00  0.00    +0.144 HD
ENDROOT
BRANCH   2  14
ATOM     14  C   UNL     1      -2.623  -0.225   3.212  0.00  0.00    +0.284 C 
ATOM     15  O   UNL     1      -2.835   0.972   3.170  0.00  0.00    -0.267 OA
ATOM     16  N   UNL     1      -3.655  -1.093   3.196  0.00  0.00    -0.202 N 
ATOM     17  H   UNL     1      -3.469  -2.171   3.313  0.00  0.00    +0.178 HD
BRANCH  16  18
ATOM     18  N   UNL     1      -4.963  -0.622   3.030  0.00  0.00    -0.187 NA
ATOM     19  C   UNL     1      -5.957  -1.457   3.014  0.00  0.00    +0.142 C 
BRANCH  19  20
ATOM     20  C   UNL     1      -7.334  -0.962   2.840  0.00  0.00    +0.037 A 
ATOM     21  C   UNL     1      -8.405  -1.858   2.822  0.00  0.00    +0.028 A 
ATOM     22  C   UNL     1      -9.692  -1.387   2.659  0.00  0.00    +0.019 A 
ATOM     23  C   UNL     1      -9.925  -0.029   2.511  0.00  0.00    +0.019 A 
ATOM     24  C   UNL     1      -8.873   0.866   2.527  0.00  0.00    +0.047 A 
ATOM     25  C   UNL     1      -7.576   0.411   2.696  0.00  0.00    +0.126 A 
ATOM     26 BR   UNL     1     -11.143  -2.600   2.636  0.00  0.00    -0.050 Br
BRANCH  25  27
ATOM     27  O   UNL     1      -6.542   1.291   2.717  0.00  0.00    -0.506 OA
ATOM     28  H   UNL     1      -6.734   2.368   2.603  0.00  0.00    +0.292 HD
ENDBRANCH  25  27
ENDBRANCH  19  20
ENDBRANCH  16  18
ENDBRANCH   2  14
BRANCH   1  29
ATOM     29  C   UNL     1      -0.622  -0.574   0.787  0.00  0.00    -0.018 C 
BRANCH  29  30
ATOM     30  N   UNL     1      -0.247   0.818   0.508  0.00  0.00    +0.383 N 
ATOM     31  H   UNL     1      -0.751   1.459   1.247  0.00  0.00    -0.081 HD
BRANCH  30  33
ATOM     32  C   UNL     1       1.939   0.150  -0.370  0.00  0.00    -0.017 C 
ATOM     33  C   UNL     1       1.201   1.014   0.655  0.00  0.00    -0.082 C 
ENDBRANCH  30  33
BRANCH  30  34
ATOM     34  C   UNL     1      -0.701   1.228  -0.828  0.00  0.00    -0.082 C 
ATOM     35  C   UNL     1      -0.547   2.743  -0.977  0.00  0.00    -0.017 C 
ENDBRANCH  30  34
ENDBRANCH  29  30
ENDBRANCH   1  29
TORSDOF 8
