REMARK  Name = ZINC62704714
REMARK  7 active torsions:
REMARK  status: ('A' for Active; 'I' for Inactive)
REMARK    1  A    between atoms: C_1  and  C_2
REMARK    2  A    between atoms: C_2  and  C_4
REMARK    3  A    between atoms: C_2  and  N_20
REMARK    4  A    between atoms: C_4  and  C_5
REMARK    5  A    between atoms: C_8  and  O_12
REMARK    6  A    between atoms: O_12  and  C_13
REMARK    7  A    between atoms: C_13  and  C_14
REMARK                            x       y       z     vdW  Elec       q    Type
REMARK                         _______ _______ _______ _____ _____    ______ ____
ROOT
ATOM      1  C   UNL     1      -1.416  -2.035  -0.119  0.00  0.00    -0.048 A 
ATOM      2  C   UNL     1      -1.450  -2.618  -1.373  0.00  0.00    +0.007 A 
ATOM      3  C   UNL     1      -1.434  -3.994  -1.497  0.00  0.00    +0.047 A 
ATOM      4  C   UNL     1      -1.385  -4.791  -0.363  0.00  0.00    +0.135 A 
ATOM      5  C   UNL     1      -1.350  -4.204   0.894  0.00  0.00    +0.060 A 
ATOM      6  C   UNL     1      -1.360  -2.826   1.013  0.00  0.00    +0.022 A 
ATOM      7 BR   UNL     1      -1.283  -5.286   2.443  0.00  0.00    -0.047 Br
ENDROOT
BRANCH   1   8
ATOM      8  C   UNL     1      -1.433  -0.534   0.013  0.00  0.00    +0.019 C 
BRANCH   8  10
ATOM      9  C   UNL     1      -0.019   1.526   0.010  0.00  0.00    -0.014 C 
ATOM     10  C   UNL     1       0.002  -0.004   0.002  0.00  0.00    -0.074 C 
BRANCH  10  11
ATOM     11  N   UNL     1       0.713  -0.491   1.192  0.00  0.00    +0.380 N 
ATOM     12  H   UNL     1       0.240  -0.165   2.022  0.00  0.00    -0.090 HD
ATOM     13  H   UNL     1       0.726  -1.500   1.187  0.00  0.00    -0.090 HD
ATOM     14  H   UNL     1       1.659  -0.141   1.185  0.00  0.00    -0.090 HD
ENDBRANCH  10  11
ENDBRANCH   8  10
ENDBRANCH   1   8
BRANCH   4  15
ATOM     15  O   UNL     1      -1.370  -6.145  -0.482  0.00  0.00    -0.486 OA
BRANCH  15  16
ATOM     16  C   UNL     1      -1.408  -6.679  -1.807  0.00  0.00    +0.271 C 
BRANCH  16  17
ATOM     17  C   UNL     1      -1.385  -8.185  -1.742  0.00  0.00    +0.028 A 
ATOM     18  C   UNL     1      -2.424  -9.052  -1.675  0.00  0.00    +0.016 A 
ATOM     19  C   UNL     1      -2.163 -10.409  -1.623  0.00  0.00    +0.023 A 
ATOM     20  C   UNL     1      -0.874 -10.831  -1.641  0.00  0.00    +0.055 A 
ATOM     21  S   UNL     1       0.019  -9.288  -1.742  0.00  0.00    -0.083 S 
ATOM     22 BR   UNL     1      -0.198 -12.596  -1.583  0.00  0.00    -0.043 Br
ENDBRANCH  16  17
ENDBRANCH  15  16
ENDBRANCH   4  15
TORSDOF 6
