REMARK  Name = ZINC63213619
REMARK  6 active torsions:
REMARK  status: ('A' for Active; 'I' for Inactive)
REMARK    1  A    between atoms: C_4  and  C_22
REMARK    2  A    between atoms: C_5  and  C_7
REMARK    3  A    between atoms: C_7  and  S_8
REMARK    4  A    between atoms: S_8  and  N_11
REMARK    5  A    between atoms: N_11  and  C_12
REMARK    6  A    between atoms: C_19  and  N_21
REMARK                            x       y       z     vdW  Elec       q    Type
REMARK                         _______ _______ _______ _____ _____    ______ ____
ROOT
ATOM      1  N   UNL     1       1.266  -4.452   1.543  0.00  0.00    -0.193 NA
ATOM      2  H   UNL     1       0.515  -4.975   1.863  0.00  0.00    +0.148 HD
ENDROOT
BRANCH   1   3
ATOM      3  C   UNL     1       2.419  -5.122   0.934  0.00  0.00    +0.062 C 
ATOM      4  C   UNL     1       3.401  -5.531   2.048  0.00  0.00    +0.019 C 
ATOM      5  C   UNL     1       4.388  -6.571   1.592  0.00  0.00    +0.001 C 
ATOM      6  C   UNL     1       3.837  -7.964   1.961  0.00  0.00    -0.000 C 
ATOM      7  C   UNL     1       2.836  -8.433   1.014  0.00  0.00    -0.002 C 
ATOM      8  C   UNL     1       1.597  -7.516   0.967  0.00  0.00    -0.015 C 
ATOM      9  C   UNL     1       1.917  -6.324   0.112  0.00  0.00    -0.056 C 
BRANCH   9  10
ATOM     10  N   UNL     1       0.706  -5.927  -0.619  0.00  0.00    +0.381 N 
ATOM     11  H   UNL     1       0.921  -5.158  -1.236  0.00  0.00    -0.090 HD
ATOM     12  H   UNL     1       0.369  -6.709  -1.161  0.00  0.00    -0.090 HD
ATOM     13  H   UNL     1      -0.005  -5.643   0.038  0.00  0.00    -0.090 HD
ENDBRANCH   9  10
ENDBRANCH   1   3
BRANCH   1  14
ATOM     14  S   UNL     1       1.248  -2.802   1.685  0.00  0.00    +0.034 S 
ATOM     15  O   UNL     1       2.485  -2.477   2.304  0.00  0.00    -0.158 OA
ATOM     16  O   UNL     1       0.016  -2.507   2.329  0.00  0.00    -0.158 OA
BRANCH  14  17
ATOM     17  C   UNL     1       1.223  -2.188  -0.022  0.00  0.00    +0.221 C 
BRANCH  17  22
ATOM     18  C   UNL     1      -0.017   1.379   0.010  0.00  0.00    +0.000 A 
ATOM     19  C   UNL     1       1.168   2.094   0.002  0.00  0.00    +0.001 A 
ATOM     20  C   UNL     1       2.377   1.430  -0.013  0.00  0.00    +0.019 A 
ATOM     21  C   UNL     1       2.404   0.034  -0.021  0.00  0.00    +0.057 A 
ATOM     22  C   UNL     1       1.204  -0.681  -0.013  0.00  0.00    -0.008 A 
ATOM     23  C   UNL     1       0.002  -0.004   0.002  0.00  0.00    +0.006 A 
BRANCH  21  24
ATOM     24  C   UNL     1       3.655  -0.662  -0.038  0.00  0.00    +0.099 C 
ATOM     25  N   UNL     1       4.648  -1.214  -0.051  0.00  0.00    -0.191 NA
ENDBRANCH  21  24
ENDBRANCH  17  22
ENDBRANCH  14  17
ENDBRANCH   1  14
TORSDOF 6
