REMARK  Name = ZINC67082522
REMARK  5 active torsions:
REMARK  status: ('A' for Active; 'I' for Inactive)
REMARK    1  A    between atoms: C_3  and  C_10
REMARK    2  A    between atoms: C_5  and  C_7
REMARK    3  A    between atoms: C_10  and  C_11
REMARK    4  A    between atoms: C_11  and  N_12
REMARK    5  A    between atoms: C_19  and  C_22
REMARK                            x       y       z     vdW  Elec       q    Type
REMARK                         _______ _______ _______ _____ _____    ______ ____
ROOT
ATOM      1  N   UNL     1       5.374   3.217   1.411  0.00  0.00    -0.299 N 
ATOM      2  C   UNL     1       5.959   3.565   2.574  0.00  0.00    +0.302 C 
ATOM      3  O   UNL     1       5.403   3.327   3.629  0.00  0.00    -0.253 OA
ATOM      4  N   UNL     1       7.160   4.176   2.568  0.00  0.00    -0.281 N 
ATOM      5  C   UNL     1       7.873   4.457   3.824  0.00  0.00    +0.137 C 
ATOM      6  C   UNL     1       8.293   5.931   3.823  0.00  0.00    +0.179 C 
ATOM      7  O   UNL     1       8.999   6.219   2.614  0.00  0.00    -0.369 OA
ATOM      8  C   UNL     1       8.220   6.050   1.427  0.00  0.00    +0.166 C 
ATOM      9  C   UNL     1       7.800   4.576   1.305  0.00  0.00    +0.145 C 
ATOM     10  H   UNL     1       5.782   3.470   0.568  0.00  0.00    +0.150 HD
ENDROOT
BRANCH   8  11
ATOM     11  C   UNL     1       9.043   6.439   0.225  0.00  0.00    -0.015 A 
ATOM     12  C   UNL     1      10.378   6.086   0.160  0.00  0.00    +0.009 A 
ATOM     13  C   UNL     1      11.135   6.442  -0.941  0.00  0.00    +0.041 A 
ATOM     14  C   UNL     1      10.556   7.151  -1.979  0.00  0.00    +0.158 A 
ATOM     15  C   UNL     1       9.217   7.504  -1.913  0.00  0.00    +0.159 A 
ATOM     16  C   UNL     1       8.461   7.142  -0.812  0.00  0.00    +0.047 A 
ATOM     17  F   UNL     1       8.649   8.197  -2.925  0.00  0.00    -0.202 F 
ATOM     18  F   UNL     1      11.295   7.499  -3.055  0.00  0.00    -0.202 F 
ENDBRANCH   8  11
BRANCH   1  19
ATOM     19  C   UNL     1       4.122   2.457   1.419  0.00  0.00    +0.110 C 
BRANCH  19  20
ATOM     20  C   UNL     1       3.675   2.195  -0.021  0.00  0.00    +0.054 C 
BRANCH  20  23
ATOM     21  C   UNL     1      -0.013   1.368   0.006  0.00  0.00    +0.001 A 
ATOM     22  C   UNL     1       1.175   2.079  -0.001  0.00  0.00    +0.004 A 
ATOM     23  C   UNL     1       2.387   1.412  -0.012  0.00  0.00    -0.045 A 
ATOM     24  C   UNL     1       2.419   0.033  -0.015  0.00  0.00    +0.016 A 
ATOM     25  C   UNL     1       1.225  -0.690  -0.007  0.00  0.00    +0.037 A 
ATOM     26  C   UNL     1       0.005  -0.011   0.004  0.00  0.00    +0.013 A 
BRANCH  25  27
ATOM     27  C   UNL     1       1.252  -2.168  -0.011  0.00  0.00    +0.242 C 
ATOM     28  O   UNL     1       2.316  -2.756  -0.021  0.00  0.00    -0.270 OA
ATOM     29  N   UNL     1       0.098  -2.863  -0.004  0.00  0.00    -0.325 N 
ATOM     30  H   UNL     1      -0.751  -2.394   0.005  0.00  0.00    +0.145 HD
ATOM     31  H   UNL     1       0.116  -3.833  -0.006  0.00  0.00    +0.145 HD
ENDBRANCH  25  27
ENDBRANCH  20  23
ENDBRANCH  19  20
ENDBRANCH   1  19
TORSDOF 5
