REMARK  Name = ZINC63171583
REMARK  7 active torsions:
REMARK  status: ('A' for Active; 'I' for Inactive)
REMARK    1  A    between atoms: C_1  and  C_2
REMARK    2  A    between atoms: C_2  and  C_4
REMARK    3  A    between atoms: C_2  and  N_21
REMARK    4  A    between atoms: C_4  and  C_5
REMARK    5  A    between atoms: C_5  and  N_6
REMARK    6  A    between atoms: N_6  and  C_7
REMARK    7  A    between atoms: C_12  and  N_13
REMARK                            x       y       z     vdW  Elec       q    Type
REMARK                         _______ _______ _______ _____ _____    ______ ____
ROOT
ATOM      1  C   UNL     1       1.466  -3.900   2.721  0.00  0.00    +0.060 A 
ATOM      2  C   UNL     1       0.770  -4.795   1.918  0.00  0.00    +0.052 A 
ATOM      3  C   UNL     1       0.788  -6.146   2.218  0.00  0.00    +0.078 A 
ATOM      4  C   UNL     1       1.502  -6.606   3.324  0.00  0.00    +0.145 A 
ATOM      5  C   UNL     1       2.193  -5.712   4.121  0.00  0.00    +0.082 A 
ATOM      6  C   UNL     1       2.180  -4.362   3.819  0.00  0.00    +0.150 A 
ATOM      7  O   UNL     1       1.509  -7.937   3.609  0.00  0.00    -0.481 OA
ATOM      8  C   UNL     1       0.323  -8.669   3.289  0.00  0.00    +0.325 C 
ATOM      9  C   UNL     1      -0.136  -8.307   1.899  0.00  0.00    +0.255 C 
ATOM     10  O   UNL     1      -0.708  -9.128   1.214  0.00  0.00    -0.272 OA
ATOM     11  N   UNL     1       0.094  -7.066   1.419  0.00  0.00    -0.280 N 
ATOM     12  H   UNL     1      -0.217  -6.814   0.536  0.00  0.00    +0.155 HD
ENDROOT
BRANCH   6  13
ATOM     13  N   UNL     1       2.925  -3.407   4.670  0.00  0.00    +0.058 N 
ATOM     14  O   UNL     1       3.996  -3.721   5.135  0.00  0.00    -0.126 OA
ATOM     15  O   UNL     1       2.462  -2.314   4.899  0.00  0.00    -0.126 OA
ENDBRANCH   6  13
BRANCH   1  16
ATOM     16  N   UNL     1       1.450  -2.534   2.422  0.00  0.00    -0.342 N 
ATOM     17  H   UNL     1       2.003  -1.920   2.930  0.00  0.00    +0.146 HD
BRANCH  16  18
ATOM     18  C   UNL     1       0.600  -2.030   1.341  0.00  0.00    +0.100 C 
BRANCH  18  19
ATOM     19  C   UNL     1       0.769  -0.514   1.223  0.00  0.00    +0.002 C 
BRANCH  19  21
ATOM     20  C   UNL     1      -0.045   1.540   0.056  0.00  0.00    -0.014 C 
ATOM     21  C   UNL     1      -0.119   0.012   0.094  0.00  0.00    -0.077 C 
BRANCH  21  22
ATOM     22  N   UNL     1       0.345  -0.532  -1.189  0.00  0.00    +0.380 N 
ATOM     23  H   UNL     1       1.299  -0.245  -1.351  0.00  0.00    -0.090 HD
ATOM     24  H   UNL     1       0.296  -1.540  -1.165  0.00  0.00    -0.090 HD
ATOM     25  H   UNL     1      -0.241  -0.185  -1.934  0.00  0.00    -0.090 HD
ENDBRANCH  21  22
ENDBRANCH  19  21
ENDBRANCH  18  19
ENDBRANCH  16  18
ENDBRANCH   1  16
TORSDOF 6
