REMARK  Name = ZINC33154863
REMARK  10 active torsions:
REMARK  status: ('A' for Active; 'I' for Inactive)
REMARK    1  A    between atoms: C_1  and  O_2
REMARK    2  A    between atoms: O_2  and  C_3
REMARK    3  A    between atoms: C_6  and  O_30
REMARK    4  A    between atoms: C_7  and  C_9
REMARK    5  A    between atoms: N_10  and  N_11
REMARK    6  A    between atoms: C_12  and  C_14
REMARK    7  A    between atoms: C_14  and  C_15
REMARK    8  A    between atoms: C_15  and  C_16
REMARK    9  A    between atoms: N_18  and  C_19
REMARK   10  A    between atoms: C_21  and  C_26
REMARK                            x       y       z     vdW  Elec       q    Type
REMARK                         _______ _______ _______ _____ _____    ______ ____
ROOT
ATOM      1  C   UNL     1      -8.626  -0.632   2.015  0.00  0.00    +0.107 C 
ENDROOT
BRANCH   1   3
ATOM      2  N   UNL     1      -6.625   0.430   3.010  0.00  0.00    -0.207 N 
ATOM      3  C   UNL     1      -7.960   0.243   3.046  0.00  0.00    +0.233 C 
ATOM      4  O   UNL     1      -8.625   0.780   3.907  0.00  0.00    -0.274 OA
ATOM      5  H   UNL     1      -6.022  -0.056   2.229  0.00  0.00    +0.177 HD
BRANCH   2   7
ATOM      6  C   UNL     1      -4.747   1.536   3.856  0.00  0.00    +0.142 C 
ATOM      7  N   UNL     1      -6.007   1.244   3.968  0.00  0.00    -0.188 NA
BRANCH   6  12
ATOM      8  C   UNL     1      -4.242   1.458   0.135  0.00  0.00    +0.121 A 
ATOM      9  C   UNL     1      -2.859   1.376   0.051  0.00  0.00    +0.049 A 
ATOM     10  C   UNL     1      -2.091   1.355   1.200  0.00  0.00    +0.049 A 
ATOM     11  C   UNL     1      -2.697   1.406   2.444  0.00  0.00    +0.126 A 
ATOM     12  C   UNL     1      -4.093   1.483   2.536  0.00  0.00    +0.039 A 
ATOM     13  C   UNL     1      -4.863   1.508   1.370  0.00  0.00    +0.058 A 
BRANCH   8  15
ATOM     14  C   UNL     1      -4.285   1.427  -2.243  0.00  0.00    +0.277 C 
ATOM     15  O   UNL     1      -4.990   1.482  -1.001  0.00  0.00    -0.495 OA
ENDBRANCH   8  15
BRANCH  11  16
ATOM     16  O   UNL     1      -1.941   1.380   3.572  0.00  0.00    -0.506 OA
ATOM     17  H   UNL     1      -2.425   1.420   4.559  0.00  0.00    +0.292 HD
ENDBRANCH  11  16
ENDBRANCH   6  12
ENDBRANCH   2   7
ENDBRANCH   1   3
BRANCH   1  18
ATOM     18  C   UNL     1     -10.132  -0.676   2.280  0.00  0.00    +0.105 C 
BRANCH  18  19
ATOM     19  C   UNL     1     -10.797  -1.551   1.250  0.00  0.00    +0.218 C 
ATOM     20  O   UNL     1     -10.133  -2.087   0.389  0.00  0.00    -0.275 OA
ATOM     21  N   UNL     1     -12.132  -1.738   1.285  0.00  0.00    -0.284 N 
ATOM     22  H   UNL     1     -12.724  -1.323   2.114  0.00  0.00    +0.155 HD
BRANCH  21  23
ATOM     23  C   UNL     1     -12.764  -2.461   0.267  0.00  0.00    +0.052 A 
ATOM     24  C   UNL     1     -12.106  -3.518  -0.349  0.00  0.00    +0.037 A 
ATOM     25  C   UNL     1     -12.735  -4.232  -1.350  0.00  0.00    +0.057 A 
ATOM     26  C   UNL     1     -14.015  -3.890  -1.747  0.00  0.00    +0.014 A 
ATOM     27  C   UNL     1     -14.672  -2.836  -1.140  0.00  0.00    +0.022 A 
ATOM     28  C   UNL     1     -14.050  -2.120  -0.134  0.00  0.00    +0.062 A 
ATOM     29 CL   UNL     1     -14.876  -0.797   0.628  0.00  0.00    -0.082 Cl
BRANCH  25  30
ATOM     30  C   UNL     1     -12.022  -5.381  -2.015  0.00  0.00    +0.417 C 
ATOM     31  F   UNL     1     -12.851  -5.941  -2.993  0.00  0.00    -0.166 F 
ATOM     32  F   UNL     1     -10.845  -4.918  -2.612  0.00  0.00    -0.166 F 
ATOM     33  F   UNL     1     -11.709  -6.352  -1.058  0.00  0.00    -0.166 F 
ENDBRANCH  25  30
ENDBRANCH  21  23
ENDBRANCH  18  19
ENDBRANCH   1  18
TORSDOF 9
