REMARK  Name = ZINC59226945
REMARK  5 active torsions:
REMARK  status: ('A' for Active; 'I' for Inactive)
REMARK    1  A    between atoms: C_4  and  N_7
REMARK    2  A    between atoms: N_7  and  C_8
REMARK    3  A    between atoms: C_14  and  C_25
REMARK    4  A    between atoms: N_18  and  C_19
REMARK    5  A    between atoms: C_30  and  C_31
REMARK                            x       y       z     vdW  Elec       q    Type
REMARK                         _______ _______ _______ _____ _____    ______ ____
ROOT
ATOM      1  C   UNL     1       2.898  -2.726   1.617  0.00  0.00    +0.210 C 
ATOM      2  N   UNL     1       3.926  -2.807   0.707  0.00  0.00    -0.280 N 
ATOM      3  C   UNL     1       4.607  -4.107   0.590  0.00  0.00    +0.277 C 
ATOM      4  N   UNL     1       5.207  -4.292  -0.735  0.00  0.00    -0.230 N 
ATOM      5  N   UNL     1       4.653  -5.472  -1.255  0.00  0.00    -0.168 NA
ATOM      6  C   UNL     1       3.708  -5.929  -0.491  0.00  0.00    +0.156 C 
ATOM      7  N   UNL     1       3.506  -5.103   0.611  0.00  0.00    -0.215 N 
ATOM      8  C   UNL     1       2.491  -5.023   1.542  0.00  0.00    +0.229 C 
ATOM      9  N   UNL     1       2.222  -3.782   2.016  0.00  0.00    -0.183 NA
ATOM     10  N   UNL     1       1.828  -6.089   1.950  0.00  0.00    -0.215 NA
ATOM     11  H   UNL     1       5.856  -3.714  -1.166  0.00  0.00    +0.172 HD
ATOM     12  H   UNL     1       4.190  -2.045   0.168  0.00  0.00    +0.152 HD
ENDROOT
BRANCH  10  13
ATOM     13  C   UNL     1       0.848  -5.964   2.895  0.00  0.00    +0.067 A 
ATOM     14  C   UNL     1       1.131  -5.368   4.127  0.00  0.00    +0.028 A 
ATOM     15  C   UNL     1       0.137  -5.245   5.075  0.00  0.00    +0.002 A 
ATOM     16  C   UNL     1      -1.139  -5.710   4.809  0.00  0.00    +0.000 A 
ATOM     17  C   UNL     1      -1.427  -6.301   3.591  0.00  0.00    +0.002 A 
ATOM     18  C   UNL     1      -0.445  -6.425   2.631  0.00  0.00    +0.028 A 
ENDBRANCH  10  13
BRANCH   6  19
ATOM     19  C   UNL     1       2.951  -7.173  -0.749  0.00  0.00    +0.029 A 
ATOM     20  C   UNL     1       1.556  -7.151  -0.774  0.00  0.00    +0.012 A 
ATOM     21  C   UNL     1       0.855  -8.314  -1.016  0.00  0.00    +0.001 A 
ATOM     22  C   UNL     1       1.533  -9.501  -1.233  0.00  0.00    +0.001 A 
ATOM     23  C   UNL     1       2.916  -9.530  -1.210  0.00  0.00    +0.013 A 
ATOM     24  C   UNL     1       3.629  -8.372  -0.975  0.00  0.00    +0.065 A 
BRANCH  24  25
ATOM     25  C   UNL     1       5.135  -8.403  -0.956  0.00  0.00    +0.418 C 
ATOM     26  F   UNL     1       5.578  -9.707  -1.206  0.00  0.00    -0.166 F 
ATOM     27  F   UNL     1       5.632  -7.545  -1.943  0.00  0.00    -0.166 F 
ATOM     28  F   UNL     1       5.595  -7.987   0.298  0.00  0.00    -0.166 F 
ENDBRANCH  24  25
ENDBRANCH   6  19
BRANCH   1  29
ATOM     29  N   UNL     1       2.570  -1.501   2.131  0.00  0.00    -0.183 NA
BRANCH  29  33
ATOM     30  C   UNL     1      -1.209  -0.875   3.768  0.00  0.00    +0.000 A 
ATOM     31  C   UNL     1      -0.136  -0.116   4.198  0.00  0.00    +0.002 A 
ATOM     32  C   UNL     1       1.118  -0.321   3.657  0.00  0.00    +0.025 A 
ATOM     33  C   UNL     1       1.301  -1.291   2.681  0.00  0.00    +0.057 A 
ATOM     34  C   UNL     1       0.222  -2.052   2.251  0.00  0.00    +0.025 A 
ATOM     35  C   UNL     1      -1.030  -1.841   2.795  0.00  0.00    +0.002 A 
ENDBRANCH  29  33
ENDBRANCH   1  29
TORSDOF 5
