REMARK  Name = ZINC40758350
REMARK  4 active torsions:
REMARK  status: ('A' for Active; 'I' for Inactive)
REMARK    1  A    between atoms: C_1  and  C_2
REMARK    2  A    between atoms: C_13  and  N_29
REMARK    3  A    between atoms: C_14  and  N_18
REMARK    4  A    between atoms: N_18  and  C_19
REMARK                            x       y       z     vdW  Elec       q    Type
REMARK                         _______ _______ _______ _____ _____    ______ ____
ROOT
ATOM      1  C   UNL     1      -0.104   1.501   0.015  0.00  0.00    +0.044 C 
ATOM      2  C   UNL     1      -0.073  -0.005   0.006  0.00  0.00    -0.049 A 
ATOM      3  C   UNL     1      -0.048  -0.699  -1.195  0.00  0.00    +0.005 A 
ATOM      4  C   UNL     1      -0.019  -2.068  -1.231  0.00  0.00    +0.029 A 
ATOM      5  C   UNL     1      -0.014  -2.822  -0.035  0.00  0.00    +0.080 A 
ATOM      6  C   UNL     1      -0.039  -2.083   1.169  0.00  0.00    +0.041 A 
ATOM      7  C   UNL     1      -0.063  -0.711   1.196  0.00  0.00    +0.020 A 
ATOM      8  S   UNL     1      -0.023  -3.363   2.401  0.00  0.00    -0.052 S 
ATOM      9  C   UNL     1       0.016  -4.754   1.279  0.00  0.00    +0.165 A 
ATOM     10  N   UNL     1       0.013  -4.166   0.104  0.00  0.00    -0.225 NA
ATOM     11  N   UNL     1       0.042  -6.104   1.572  0.00  0.00    -0.277 N 
ATOM     12  C   UNL     1       0.070  -7.039   0.542  0.00  0.00    +0.150 A 
ATOM     13  C   UNL     1       0.091  -8.406   0.826  0.00  0.00    +0.106 A 
ATOM     14  C   UNL     1       0.118  -9.302  -0.245  0.00  0.00    +0.149 A 
ATOM     15  N   UNL     1       0.124  -8.822  -1.486  0.00  0.00    -0.219 NA
ATOM     16  C   UNL     1       0.104  -7.524  -1.710  0.00  0.00    +0.225 A 
ATOM     17  N   UNL     1       0.072  -6.645  -0.729  0.00  0.00    -0.219 NA
ATOM     18  H   UNL     1       0.041  -6.399   2.496  0.00  0.00    +0.156 HD
ENDROOT
BRANCH  13  19
ATOM     19  N   UNL     1       0.084  -8.867   2.152  0.00  0.00    -0.353 N 
ATOM     20  H   UNL     1       0.065  -8.233   2.886  0.00  0.00    +0.143 HD
ATOM     21  H   UNL     1       0.099  -9.820   2.334  0.00  0.00    +0.143 HD
ENDBRANCH  13  19
BRANCH  14  22
ATOM     22  N   UNL     1       0.140 -10.673  -0.018  0.00  0.00    -0.296 N 
ATOM     23  H   UNL     1       0.224 -11.014   0.886  0.00  0.00    +0.154 HD
BRANCH  22  24
ATOM     24  C   UNL     1       0.042 -11.559  -1.091  0.00  0.00    +0.059 A 
ATOM     25  C   UNL     1      -0.566 -11.165  -2.263  0.00  0.00    +0.025 A 
ATOM     26  C   UNL     1      -0.671 -12.039  -3.341  0.00  0.00    +0.003 A 
ATOM     27  C   UNL     1      -0.176 -13.306  -3.266  0.00  0.00    +0.010 A 
ATOM     28  C   UNL     1       0.451 -13.745  -2.089  0.00  0.00    +0.002 A 
ATOM     29  C   UNL     1       0.570 -12.865  -0.986  0.00  0.00    +0.092 A 
ATOM     30  N   UNL     1       1.170 -13.277   0.134  0.00  0.00    -0.253 NA
ATOM     31  C   UNL     1       1.662 -14.488   0.237  0.00  0.00    +0.111 A 
ATOM     32  C   UNL     1       1.584 -15.402  -0.811  0.00  0.00    +0.020 A 
ATOM     33  C   UNL     1       0.972 -15.049  -1.980  0.00  0.00    +0.011 A 
ENDBRANCH  22  24
ENDBRANCH  14  22
TORSDOF 3
