REMARK  Name = ZINC40124297
REMARK  12 active torsions:
REMARK  status: ('A' for Active; 'I' for Inactive)
REMARK    1  A    between atoms: C_1  and  C_2
REMARK    2  A    between atoms: C_4  and  C_14
REMARK    3  A    between atoms: C_6  and  C_13
REMARK    4  A    between atoms: C_7  and  O_8
REMARK    5  A    between atoms: O_8  and  C_9
REMARK    6  A    between atoms: C_9  and  C_10
REMARK    7  A    between atoms: C_10  and  C_11
REMARK    8  A    between atoms: C_10  and  C_12
REMARK    9  A    between atoms: C_14  and  C_16
REMARK   10  A    between atoms: C_21  and  C_23
REMARK   11  A    between atoms: C_28  and  O_29
REMARK   12  A    between atoms: O_29  and  C_30
REMARK                            x       y       z     vdW  Elec       q    Type
REMARK                         _______ _______ _______ _____ _____    ______ ____
ROOT
ATOM      1  C   UNL     1       0.126  -4.451  -2.490  0.00  0.00    +0.076 C 
ATOM      2  C   UNL     1      -0.663  -5.433  -2.985  0.00  0.00    +0.249 C 
ATOM      3  C   UNL     1      -0.101  -6.746  -2.604  0.00  0.00    +0.285 C 
ATOM      4  O   UNL     1      -0.582  -7.822  -2.899  0.00  0.00    -0.267 OA
ATOM      5  N   UNL     1       1.021  -6.573  -1.882  0.00  0.00    -0.297 N 
ATOM      6  C   UNL     1       1.259  -5.130  -1.757  0.00  0.00    +0.145 C 
ATOM      7  O   UNL     1      -1.787  -5.242  -3.713  0.00  0.00    -0.282 OA
ATOM      8  H   UNL     1       1.577  -7.277  -1.513  0.00  0.00    +0.150 HD
ENDROOT
BRANCH   6   9
ATOM      9  C   UNL     1       2.578  -4.763  -2.387  0.00  0.00    +0.020 A 
ATOM     10  C   UNL     1       3.127  -5.572  -3.363  0.00  0.00    +0.024 A 
ATOM     11  C   UNL     1       4.337  -5.235  -3.942  0.00  0.00    +0.018 A 
ATOM     12  C   UNL     1       5.001  -4.088  -3.545  0.00  0.00    +0.019 A 
ATOM     13  C   UNL     1       4.455  -3.276  -2.570  0.00  0.00    +0.047 A 
ATOM     14  C   UNL     1       3.239  -3.609  -1.992  0.00  0.00    +0.125 A 
ATOM     15 BR   UNL     1       5.087  -6.345  -5.277  0.00  0.00    -0.050 Br
BRANCH  14  16
ATOM     16  O   UNL     1       2.697  -2.809  -1.035  0.00  0.00    -0.495 OA
ATOM     17  C   UNL     1       3.386  -1.592  -0.742  0.00  0.00    +0.277 C 
ENDBRANCH  14  16
ENDBRANCH   6   9
BRANCH   1  18
ATOM     18  C   UNL     1      -0.076  -3.006  -2.640  0.00  0.00    +0.195 C 
ATOM     19  O   UNL     1       0.013  -2.491  -3.739  0.00  0.00    -0.287 OA
BRANCH  18  23
ATOM     20  C   UNL     1      -0.849   1.481  -0.607  0.00  0.00    +0.047 C 
ATOM     21  C   UNL     1      -0.761  -0.018  -0.477  0.00  0.00    -0.008 A 
ATOM     22  C   UNL     1      -0.469  -0.787  -1.581  0.00  0.00    +0.018 A 
ATOM     23  C   UNL     1      -0.389  -2.178  -1.460  0.00  0.00    +0.023 A 
ATOM     24  C   UNL     1      -0.605  -2.781  -0.217  0.00  0.00    +0.018 A 
ATOM     25  C   UNL     1      -0.896  -2.004   0.881  0.00  0.00    -0.008 A 
ATOM     26  C   UNL     1      -0.970  -0.621   0.758  0.00  0.00    +0.126 A 
ATOM     27  C   UNL     1      -1.130  -2.653   2.221  0.00  0.00    +0.047 C 
BRANCH  26  28
ATOM     28  O   UNL     1      -1.252   0.141   1.844  0.00  0.00    -0.491 OA
BRANCH  28  29
ATOM     29  C   UNL     1      -2.631   0.411   2.107  0.00  0.00    +0.232 C 
BRANCH  29  30
ATOM     30  C   UNL     1      -2.750   1.278   3.362  0.00  0.00    +0.020 C 
ATOM     31  C   UNL     1      -2.113   2.644   3.101  0.00  0.00    +0.010 C 
ATOM     32  C   UNL     1      -4.227   1.464   3.715  0.00  0.00    +0.010 C 
ENDBRANCH  29  30
ENDBRANCH  28  29
ENDBRANCH  26  28
ENDBRANCH  18  23
ENDBRANCH   1  18
TORSDOF 7
