REMARK  Name = ZINC07602345
REMARK  7 active torsions:
REMARK  status: ('A' for Active; 'I' for Inactive)
REMARK    1  A    between atoms: C_1  and  C_2
REMARK    2  A    between atoms: C_2  and  C_4
REMARK    3  A    between atoms: C_2  and  O_23
REMARK    4  A    between atoms: C_7  and  C_10
REMARK    5  A    between atoms: C_13  and  C_15
REMARK    6  A    between atoms: C_15  and  N_16
REMARK    7  A    between atoms: N_21  and  C_22
REMARK                            x       y       z     vdW  Elec       q    Type
REMARK                         _______ _______ _______ _____ _____    ______ ____
ROOT
ATOM      1  C   UNL     1      -1.305   2.116   0.020  0.00  0.00    +0.135 A 
ATOM      2  C   UNL     1      -1.460   3.467   0.028  0.00  0.00    +0.050 A 
ATOM      3  C   UNL     1      -2.847   3.716   0.036  0.00  0.00    +0.047 A 
ATOM      4  C   UNL     1      -3.463   2.518   0.032  0.00  0.00    +0.123 A 
ATOM      5  O   UNL     1      -2.528   1.554   0.017  0.00  0.00    -0.458 OA
ENDROOT
BRANCH   1   9
ATOM      6  C   UNL     1       2.396   0.034  -0.021  0.00  0.00    -0.019 A 
ATOM      7  C   UNL     1       1.208  -0.674  -0.013  0.00  0.00    +0.007 A 
ATOM      8  C   UNL     1       0.002  -0.004   0.002  0.00  0.00    +0.012 A 
ATOM      9  C   UNL     1      -0.017   1.392   0.010  0.00  0.00    +0.017 A 
ATOM     10  C   UNL     1       1.186   2.100   0.002  0.00  0.00    +0.012 A 
ATOM     11  C   UNL     1       2.385   1.417  -0.014  0.00  0.00    +0.007 A 
BRANCH   6  13
ATOM     12  C   UNL     1       4.230  -0.854   1.392  0.00  0.00    +0.043 C 
ATOM     13  C   UNL     1       3.710  -0.705  -0.039  0.00  0.00    +0.141 C 
BRANCH  13  14
ATOM     14  O   UNL     1       4.658   0.027  -0.817  0.00  0.00    -0.387 OA
ATOM     15  H   UNL     1       5.528  -0.391  -0.872  0.00  0.00    +0.210 HD
ENDBRANCH  13  14
ENDBRANCH   6  13
ENDBRANCH   1   9
BRANCH   4  16
ATOM     16  C   UNL     1      -4.954   2.296   0.038  0.00  0.00    +0.179 C 
BRANCH  16  17
ATOM     17  N   UNL     1      -5.444   2.232  -1.341  0.00  0.00    -0.305 N 
ATOM     18  C   UNL     1      -6.790   2.033  -1.589  0.00  0.00    +0.235 A 
ATOM     19  N   UNL     1      -7.737   1.887  -0.688  0.00  0.00    -0.092 NA
ATOM     20  N   UNL     1      -8.877   1.722  -1.256  0.00  0.00    -0.021 NA
ATOM     21  N   UNL     1      -8.746   1.749  -2.538  0.00  0.00    -0.043 NA
ATOM     22  N   UNL     1      -7.382   1.958  -2.803  0.00  0.00    -0.217 N 
ATOM     23  C   UNL     1      -6.738   2.069  -4.115  0.00  0.00    +0.178 C 
ATOM     24  H   UNL     1      -4.824   2.329  -2.081  0.00  0.00    +0.149 HD
ENDBRANCH  16  17
ENDBRANCH   4  16
TORSDOF 5
