REMARK  Name = ZINC08614620
REMARK  9 active torsions:
REMARK  status: ('A' for Active; 'I' for Inactive)
REMARK    1  A    between atoms: C_1  and  C_2
REMARK    2  A    between atoms: C_2  and  C_4
REMARK    3  A    between atoms: C_4  and  O_34
REMARK    4  A    between atoms: C_9  and  C_33
REMARK    5  A    between atoms: C_11  and  O_29
REMARK    6  A    between atoms: C_21  and  C_28
REMARK    7  A    between atoms: C_24  and  O_27
REMARK    8  A    between atoms: O_29  and  C_30
REMARK    9  A    between atoms: C_30  and  C_32
REMARK                            x       y       z     vdW  Elec       q    Type
REMARK                         _______ _______ _______ _____ _____    ______ ____
ROOT
ATOM      1  C   UNL     1      -0.303   2.363  -3.725  0.00  0.00    +0.129 C 
ATOM      2  C   UNL     1       1.109   2.499  -4.352  0.00  0.00    +0.043 C 
ATOM      3  C   UNL     1       2.122   2.082  -3.251  0.00  0.00    +0.008 C 
ATOM      4  C   UNL     1       1.239   1.388  -2.200  0.00  0.00    +0.002 C 
ATOM      5  C   UNL     1      -0.020   2.276  -2.212  0.00  0.00    +0.010 C 
ATOM      6  C   UNL     1      -1.103   1.677  -1.361  0.00  0.00    +0.055 C 
ATOM      7  C   UNL     1      -0.566   1.214   0.001  0.00  0.00    +0.181 C 
ATOM      8  C   UNL     1       0.862   1.643   0.276  0.00  0.00    +0.039 C 
ATOM      9  C   UNL     1       1.829   1.231  -0.829  0.00  0.00    -0.000 C 
ATOM     10  C   UNL     1       3.160   1.966  -0.672  0.00  0.00    +0.004 C 
ATOM     11  C   UNL     1       3.584   1.937   0.806  0.00  0.00    +0.004 C 
ATOM     12  C   UNL     1       2.862   0.780   1.478  0.00  0.00    -0.002 C 
ATOM     13  C   UNL     1       1.367   1.079   1.608  0.00  0.00    -0.023 C 
ATOM     14  C   UNL     1       0.657  -0.198   2.030  0.00  0.00    +0.010 C 
ATOM     15  C   UNL     1       1.224  -0.695   3.361  0.00  0.00    +0.032 C 
ATOM     16  C   UNL     1       2.736  -0.878   3.308  0.00  0.00    +0.115 C 
ATOM     17  C   UNL     1       3.437   0.403   2.837  0.00  0.00    +0.035 C 
ATOM     18  C   UNL     1       1.140   2.157   2.670  0.00  0.00    +0.012 C 
ATOM     19  C   UNL     1       0.284   3.713  -1.762  0.00  0.00    +0.015 C 
ENDROOT
BRANCH   1  21
ATOM     20  C   UNL     1      -1.767   1.196  -5.535  0.00  0.00    +0.089 C 
ATOM     21  C   UNL     1      -0.987   1.134  -4.248  0.00  0.00    +0.162 C 
ATOM     22  O   UNL     1      -0.911   0.095  -3.637  0.00  0.00    -0.295 OA
ENDBRANCH   1  21
BRANCH  16  23
ATOM     23  O   UNL     1       3.214  -1.220   4.613  0.00  0.00    -0.392 OA
ATOM     24  H   UNL     1       2.817  -2.022   4.981  0.00  0.00    +0.210 HD
ENDBRANCH  16  23
BRANCH   1  25
ATOM     25  O   UNL     1      -1.080   3.529  -4.002  0.00  0.00    -0.381 OA
ATOM     26  H   UNL     1      -1.227   3.688  -4.944  0.00  0.00    +0.211 HD
ENDBRANCH   1  25
BRANCH   7  27
ATOM     27  O   UNL     1      -1.446   1.744   1.038  0.00  0.00    -0.461 OA
BRANCH  27  28
ATOM     28  C   UNL     1      -2.527   1.012   1.352  0.00  0.00    +0.304 C 
ATOM     29  O   UNL     1      -2.734  -0.034   0.784  0.00  0.00    -0.251 OA
ATOM     30  C   UNL     1      -3.482   1.495   2.413  0.00  0.00    +0.136 C 
ENDBRANCH  27  28
ENDBRANCH   7  27
TORSDOF 5
