REMARK  Name = ZINC48708462
REMARK  7 active torsions:
REMARK  status: ('A' for Active; 'I' for Inactive)
REMARK    1  A    between atoms: C_1  and  C_2
REMARK    2  A    between atoms: C_2  and  C_4
REMARK    3  A    between atoms: C_2  and  N_9
REMARK    4  A    between atoms: C_10  and  C_12
REMARK    5  A    between atoms: C_12  and  C_14
REMARK    6  A    between atoms: C_12  and  S_15
REMARK    7  A    between atoms: S_15  and  C_16
REMARK                            x       y       z     vdW  Elec       q    Type
REMARK                         _______ _______ _______ _____ _____    ______ ____
ROOT
ATOM      1  N   UNL     1      -1.372  -0.511   0.012  0.00  0.00    -0.305 N 
ATOM      2  C   UNL     1      -2.051  -0.643  -1.145  0.00  0.00    +0.227 C 
ATOM      3  O   UNL     1      -1.524  -0.341  -2.194  0.00  0.00    -0.275 OA
ATOM      4  H   UNL     1      -1.794  -0.752   0.852  0.00  0.00    +0.149 HD
ENDROOT
BRANCH   1   6
ATOM      5  C   UNL     1      -0.019   1.526   0.010  0.00  0.00    +0.036 C 
ATOM      6  C   UNL     1       0.002  -0.004   0.002  0.00  0.00    +0.136 C 
BRANCH   6   7
ATOM      7  C   UNL     1       0.731  -0.503   1.223  0.00  0.00    +0.125 A 
ATOM      8  C   UNL     1       2.009  -0.922   1.260  0.00  0.00    +0.046 A 
ATOM      9  C   UNL     1       2.278  -1.298   2.596  0.00  0.00    +0.041 A 
ATOM     10  C   UNL     1       1.149  -1.087   3.295  0.00  0.00    +0.195 A 
ATOM     11  O   UNL     1       0.217  -0.600   2.460  0.00  0.00    -0.466 OA
ENDBRANCH   6   7
ENDBRANCH   1   6
BRANCH   2  12
ATOM     12  C   UNL     1      -3.465  -1.164  -1.134  0.00  0.00    +0.137 C 
ATOM     13  C   UNL     1      -3.445  -2.690  -1.017  0.00  0.00    +0.029 C 
BRANCH  12  14
ATOM     14  S   UNL     1      -4.297  -0.687  -2.674  0.00  0.00    -0.074 S 
BRANCH  14  15
ATOM     15  C   UNL     1      -5.957  -1.232  -2.447  0.00  0.00    +0.189 A 
ATOM     16  N   UNL     1      -6.293  -1.831  -1.313  0.00  0.00    -0.230 NA
ATOM     17  C   UNL     1      -7.530  -2.251  -1.111  0.00  0.00    +0.115 A 
ATOM     18  C   UNL     1      -8.480  -2.060  -2.103  0.00  0.00    +0.039 A 
ATOM     19  C   UNL     1      -8.095  -1.431  -3.277  0.00  0.00    +0.115 A 
ATOM     20  N   UNL     1      -6.842  -1.030  -3.413  0.00  0.00    -0.230 NA
ENDBRANCH  14  15
ENDBRANCH  12  14
ENDBRANCH   2  12
TORSDOF 5
