REMARK  Name = ZINC20070973
REMARK  9 active torsions:
REMARK  status: ('A' for Active; 'I' for Inactive)
REMARK    1  A    between atoms: C_1  and  O_2
REMARK    2  A    between atoms: O_2  and  C_3
REMARK    3  A    between atoms: C_10  and  C_25
REMARK    4  A    between atoms: C_16  and  C_18
REMARK    5  A    between atoms: C_23  and  O_24
REMARK    6  A    between atoms: C_28  and  O_33
REMARK    7  A    between atoms: C_29  and  O_31
REMARK    8  A    between atoms: O_31  and  C_32
REMARK    9  A    between atoms: O_33  and  C_34
REMARK                            x       y       z     vdW  Elec       q    Type
REMARK                         _______ _______ _______ _____ _____    ______ ____
ROOT
ATOM      1  C   UNL     1       3.260   3.363  -3.115  0.00  0.00    +0.162 A 
ATOM      2  C   UNL     1       2.549   4.530  -3.325  0.00  0.00    +0.049 A 
ATOM      3  C   UNL     1       1.496   4.859  -2.492  0.00  0.00    +0.004 A 
ATOM      4  C   UNL     1       1.163   4.022  -1.445  0.00  0.00    +0.009 A 
ATOM      5  C   UNL     1       1.873   2.855  -1.227  0.00  0.00    +0.020 A 
ATOM      6  C   UNL     1       2.921   2.505  -2.063  0.00  0.00    +0.170 A 
ATOM      7  O   UNL     1       3.632   1.354  -1.943  0.00  0.00    -0.461 OA
ATOM      8  C   UNL     1       3.531   0.568  -0.750  0.00  0.00    +0.311 C 
ATOM      9  N   UNL     1       2.130   0.658  -0.317  0.00  0.00    -0.205 N 
ATOM     10  C   UNL     1       1.496   1.971  -0.067  0.00  0.00    +0.136 C 
ATOM     11  C   UNL     1      -0.000   1.631  -0.068  0.00  0.00    +0.086 C 
ATOM     12  C   UNL     1      -0.024   0.117  -0.039  0.00  0.00    +0.072 C 
ATOM     13  N   UNL     1       1.181  -0.336  -0.164  0.00  0.00    -0.184 NA
ENDROOT
BRANCH  12  14
ATOM     14  C   UNL     1      -1.234  -0.713   0.108  0.00  0.00    +0.039 A 
ATOM     15  C   UNL     1      -2.487  -0.110   0.234  0.00  0.00    +0.013 A 
ATOM     16  C   UNL     1      -3.615  -0.892   0.371  0.00  0.00    +0.001 A 
ATOM     17  C   UNL     1      -3.510  -2.272   0.383  0.00  0.00    +0.004 A 
ATOM     18  C   UNL     1      -2.275  -2.881   0.259  0.00  0.00    +0.046 A 
ATOM     19  C   UNL     1      -1.133  -2.111   0.115  0.00  0.00    +0.126 A 
BRANCH  19  20
ATOM     20  O   UNL     1       0.081  -2.708  -0.013  0.00  0.00    -0.506 OA
ATOM     21  H   UNL     1       0.157  -3.805  -0.006  0.00  0.00    +0.292 HD
ENDBRANCH  19  20
ENDBRANCH  12  14
BRANCH   8  22
ATOM     22  C   UNL     1       4.439   1.125   0.316  0.00  0.00    +0.016 A 
ATOM     23  C   UNL     1       4.148   0.912   1.650  0.00  0.00    +0.013 A 
ATOM     24  C   UNL     1       4.979   1.420   2.632  0.00  0.00    +0.050 A 
ATOM     25  C   UNL     1       6.105   2.146   2.279  0.00  0.00    +0.162 A 
ATOM     26  C   UNL     1       6.397   2.362   0.935  0.00  0.00    +0.162 A 
ATOM     27  C   UNL     1       5.564   1.844  -0.043  0.00  0.00    +0.058 A 
BRANCH  26  28
ATOM     28  O   UNL     1       7.501   3.074   0.584  0.00  0.00    -0.491 OA
ATOM     29  C   UNL     1       7.739   3.255  -0.814  0.00  0.00    +0.277 C 
ENDBRANCH  26  28
BRANCH  25  30
ATOM     30  O   UNL     1       6.922   2.647   3.243  0.00  0.00    -0.491 OA
ATOM     31  C   UNL     1       6.560   2.388   4.601  0.00  0.00    +0.277 C 
ENDBRANCH  25  30
ENDBRANCH   8  22
BRANCH   1  33
ATOM     32  C   UNL     1       4.590   3.963  -4.992  0.00  0.00    +0.277 C 
ATOM     33  O   UNL     1       4.296   3.046  -3.937  0.00  0.00    -0.491 OA
ENDBRANCH   1  33
TORSDOF 6
