REMARK  Name = ZINC66682422
REMARK  11 active torsions:
REMARK  status: ('A' for Active; 'I' for Inactive)
REMARK    1  A    between atoms: C_1  and  C_2
REMARK    2  A    between atoms: C_4  and  N_14
REMARK    3  A    between atoms: C_7  and  C_8
REMARK    4  A    between atoms: N_10  and  C_11
REMARK    5  A    between atoms: C_11  and  C_12
REMARK    6  A    between atoms: C_11  and  C_13
REMARK    7  A    between atoms: N_17  and  C_18
REMARK    8  A    between atoms: C_18  and  C_20
REMARK    9  A    between atoms: C_18  and  C_21
REMARK   10  A    between atoms: C_23  and  C_27
REMARK   11  A    between atoms: C_25  and  C_26
REMARK                            x       y       z     vdW  Elec       q    Type
REMARK                         _______ _______ _______ _____ _____    ______ ____
ROOT
ATOM      1  N   UNL     1      -0.180  -2.767  -2.406  0.00  0.00    -0.269 N 
ATOM      2  C   UNL     1      -0.973  -2.286  -3.383  0.00  0.00    +0.304 C 
ATOM      3  O   UNL     1      -1.667  -1.310  -3.178  0.00  0.00    -0.252 OA
ATOM      4  N   UNL     1      -0.998  -2.889  -4.589  0.00  0.00    -0.292 N 
ATOM      5  H   UNL     1       0.317  -3.589  -2.544  0.00  0.00    +0.156 HD
ATOM      6  H   UNL     1      -0.444  -3.668  -4.753  0.00  0.00    +0.151 HD
ENDROOT
BRANCH   1  10
ATOM      7  C   UNL     1      -0.091   1.491   0.036  0.00  0.00    +0.044 C 
ATOM      8  C   UNL     1      -0.026  -0.014   0.017  0.00  0.00    -0.037 A 
ATOM      9  C   UNL     1      -0.132  -0.693  -1.177  0.00  0.00    +0.027 A 
ATOM     10  C   UNL     1      -0.072  -2.083  -1.196  0.00  0.00    +0.035 A 
ATOM     11  C   UNL     1       0.096  -2.792  -0.010  0.00  0.00    +0.024 A 
ATOM     12  C   UNL     1       0.202  -2.119   1.186  0.00  0.00    +0.015 A 
ATOM     13  C   UNL     1       0.147  -0.723   1.208  0.00  0.00    +0.040 A 
BRANCH  13  14
ATOM     14  C   UNL     1       0.267   0.002   2.489  0.00  0.00    +0.245 C 
ATOM     15  O   UNL     1       0.336   1.216   2.496  0.00  0.00    -0.270 OA
ATOM     16  N   UNL     1       0.299  -0.682   3.650  0.00  0.00    -0.309 N 
ATOM     17  H   UNL     1       0.243  -1.650   3.644  0.00  0.00    +0.149 HD
BRANCH  16  18
ATOM     18  C   UNL     1       0.417   0.037   4.920  0.00  0.00    +0.067 C 
ATOM     19  C   UNL     1      -0.174  -0.815   6.045  0.00  0.00    +0.027 C 
ATOM     20  C   UNL     1       1.893   0.315   5.213  0.00  0.00    +0.027 C 
ENDBRANCH  16  18
ENDBRANCH  13  14
ENDBRANCH   1  10
BRANCH   4  21
ATOM     21  C   UNL     1      -1.861  -2.366  -5.651  0.00  0.00    +0.105 C 
ATOM     22  C   UNL     1      -1.134  -1.242  -6.391  0.00  0.00    +0.033 C 
BRANCH  21  23
ATOM     23  C   UNL     1      -2.192  -3.473  -6.619  0.00  0.00    +0.013 A 
ATOM     24  C   UNL     1      -1.483  -4.685  -6.788  0.00  0.00    +0.050 A 
ATOM     25  C   UNL     1      -2.119  -5.377  -7.750  0.00  0.00    +0.103 A 
ATOM     26  O   UNL     1      -3.170  -4.654  -8.170  0.00  0.00    -0.465 OA
ATOM     27  C   UNL     1      -3.221  -3.500  -7.484  0.00  0.00    +0.107 A 
ATOM     28  C   UNL     1      -4.256  -2.418  -7.657  0.00  0.00    +0.086 C 
ATOM     29  C   UNL     1      -1.720  -6.735  -8.268  0.00  0.00    +0.086 C 
ENDBRANCH  21  23
ENDBRANCH   4  21
TORSDOF 5
