REMARK  Name = ZINC64023760
REMARK  9 active torsions:
REMARK  status: ('A' for Active; 'I' for Inactive)
REMARK    1  A    between atoms: C_1  and  C_2
REMARK    2  A    between atoms: C_2  and  O_3
REMARK    3  A    between atoms: O_3  and  C_4
REMARK    4  A    between atoms: C_9  and  C_10
REMARK    5  A    between atoms: C_10  and  N_11
REMARK    6  A    between atoms: C_17  and  C_19
REMARK    7  A    between atoms: C_19  and  C_20
REMARK    8  A    between atoms: N_22  and  C_23
REMARK    9  A    between atoms: C_23  and  C_24
REMARK                            x       y       z     vdW  Elec       q    Type
REMARK                         _______ _______ _______ _____ _____    ______ ____
ROOT
ATOM      1  N   UNL     1       3.067  -0.804  -3.065  0.00  0.00    +0.391 N 
ATOM      2  C   UNL     1       2.754  -0.069  -1.830  0.00  0.00    -0.058 C 
ATOM      3  C   UNL     1       4.054   0.181  -1.062  0.00  0.00    +0.085 C 
ATOM      4  N   UNL     1       5.049   0.776  -1.951  0.00  0.00    -0.318 N 
ATOM      5  C   UNL     1       4.944   0.732  -3.284  0.00  0.00    +0.200 C 
ATOM      6  O   UNL     1       5.824   1.229  -3.953  0.00  0.00    -0.278 OA
ATOM      7  C   UNL     1       3.779   0.093  -3.985  0.00  0.00    +0.028 C 
ATOM      8  H   UNL     1       5.817   1.220  -1.558  0.00  0.00    +0.149 HD
ATOM      9  H   UNL     1       3.649  -1.599  -2.849  0.00  0.00    -0.080 HD
ENDROOT
BRANCH   1  10
ATOM     10  C   UNL     1       1.820  -1.262  -3.693  0.00  0.00    -0.038 C 
BRANCH  10  16
ATOM     11  C   UNL     1       0.295  -1.864  -1.796  0.00  0.00    +0.122 A 
ATOM     12  C   UNL     1      -0.320  -2.804  -0.982  0.00  0.00    +0.046 A 
ATOM     13  C   UNL     1      -0.073  -4.149  -1.172  0.00  0.00    +0.004 A 
ATOM     14  C   UNL     1       0.787  -4.561  -2.174  0.00  0.00    +0.000 A 
ATOM     15  C   UNL     1       1.403  -3.627  -2.986  0.00  0.00    +0.005 A 
ATOM     16  C   UNL     1       1.154  -2.280  -2.803  0.00  0.00    -0.022 A 
BRANCH  11  17
ATOM     17  O   UNL     1       0.053  -0.540  -1.611  0.00  0.00    -0.492 OA
BRANCH  17  19
ATOM     18  C   UNL     1      -0.989   1.337  -0.500  0.00  0.00    +0.048 C 
ATOM     19  C   UNL     1      -0.841  -0.185  -0.555  0.00  0.00    +0.225 C 
ENDBRANCH  17  19
ENDBRANCH  11  17
ENDBRANCH  10  16
ENDBRANCH   1  10
BRANCH   7  20
ATOM     20  C   UNL     1       4.288  -0.711  -5.184  0.00  0.00    +0.089 C 
BRANCH  20  21
ATOM     21  C   UNL     1       5.258  -1.762  -4.709  0.00  0.00    +0.212 C 
ATOM     22  O   UNL     1       5.598  -1.792  -3.545  0.00  0.00    -0.276 OA
ATOM     23  N   UNL     1       5.748  -2.668  -5.578  0.00  0.00    -0.313 N 
ATOM     24  H   UNL     1       5.476  -2.644  -6.509  0.00  0.00    +0.149 HD
BRANCH  23  25
ATOM     25  C   UNL     1       6.691  -3.689  -5.117  0.00  0.00    +0.132 C 
BRANCH  25  26
ATOM     26  C   UNL     1       7.088  -4.584  -6.293  0.00  0.00    +0.120 C 
ATOM     27  C   UNL     1       8.196  -5.527  -5.879  0.00  0.00    +0.009 C 
ATOM     28  C   UNL     1       9.248  -5.244  -6.679  0.00  0.00    -0.001 A 
ATOM     29  C   UNL     1      10.602  -5.802  -6.776  0.00  0.00    +0.048 A 
ATOM     30  C   UNL     1      11.455  -5.300  -7.700  0.00  0.00    +0.124 A 
ATOM     31  C   UNL     1      11.076  -4.261  -8.566  0.00  0.00    +0.040 A 
ATOM     32  C   UNL     1       9.850  -3.699  -8.536  0.00  0.00    +0.029 A 
ATOM     33  C   UNL     1       8.874  -4.150  -7.604  0.00  0.00    +0.043 A 
ATOM     34  N   UNL     1       7.637  -3.772  -7.384  0.00  0.00    -0.376 N 
ATOM     35  F   UNL     1      12.703  -5.811  -7.791  0.00  0.00    -0.205 F 
ATOM     36  H   UNL     1       7.164  -3.073  -7.862  0.00  0.00    +0.160 HD
ENDBRANCH  25  26
ENDBRANCH  23  25
ENDBRANCH  20  21
ENDBRANCH   7  20
TORSDOF 8
