REMARK  Name = ZINC62704845
REMARK  12 active torsions:
REMARK  status: ('A' for Active; 'I' for Inactive)
REMARK    1  A    between atoms: C_1  and  C_2
REMARK    2  A    between atoms: C_2  and  C_3
REMARK    3  A    between atoms: C_3  and  C_5
REMARK    4  A    between atoms: C_3  and  N_22
REMARK    5  A    between atoms: C_5  and  C_6
REMARK    6  A    between atoms: C_9  and  O_13
REMARK    7  A    between atoms: O_13  and  C_14
REMARK    8  A    between atoms: C_14  and  C_15
REMARK    9  A    between atoms: C_15  and  C_16
REMARK   10  A    between atoms: N_18  and  C_19
REMARK   11  A    between atoms: C_19  and  C_20
REMARK   12  A    between atoms: C_19  and  C_21
REMARK                            x       y       z     vdW  Elec       q    Type
REMARK                         _______ _______ _______ _____ _____    ______ ____
ROOT
ATOM      1  C   UNL     1       1.277  -2.528   2.581  0.00  0.00    -0.048 A 
ATOM      2  C   UNL     1       2.626  -2.828   2.623  0.00  0.00    +0.007 A 
ATOM      3  C   UNL     1       3.198  -3.279   3.797  0.00  0.00    +0.047 A 
ATOM      4  C   UNL     1       2.419  -3.430   4.934  0.00  0.00    +0.134 A 
ATOM      5  C   UNL     1       1.065  -3.128   4.890  0.00  0.00    +0.060 A 
ATOM      6  C   UNL     1       0.498  -2.672   3.714  0.00  0.00    +0.022 A 
ATOM      7 BR   UNL     1      -0.002  -3.332   6.438  0.00  0.00    -0.047 Br
ENDROOT
BRANCH   1   8
ATOM      8  C   UNL     1       0.655  -2.037   1.299  0.00  0.00    +0.019 C 
BRANCH   8   9
ATOM      9  C   UNL     1       0.742  -0.511   1.242  0.00  0.00    -0.071 C 
BRANCH   9  10
ATOM     10  N   UNL     1       2.151  -0.103   1.171  0.00  0.00    +0.380 N 
ATOM     11  H   UNL     1       2.209   0.904   1.134  0.00  0.00    -0.090 HD
ATOM     12  H   UNL     1       2.639  -0.437   1.989  0.00  0.00    -0.090 HD
ATOM     13  H   UNL     1       2.574  -0.495   0.344  0.00  0.00    -0.090 HD
ENDBRANCH   9  10
BRANCH   9  15
ATOM     14  C   UNL     1      -0.019   1.526   0.010  0.00  0.00    +0.002 C 
ATOM     15  C   UNL     1       0.002  -0.004   0.002  0.00  0.00    -0.019 C 
ENDBRANCH   9  15
ENDBRANCH   8   9
ENDBRANCH   1   8
BRANCH   4  16
ATOM     16  O   UNL     1       2.980  -3.873   6.090  0.00  0.00    -0.490 OA
BRANCH  16  17
ATOM     17  C   UNL     1       4.378  -4.166   6.062  0.00  0.00    +0.238 C 
BRANCH  17  18
ATOM     18  C   UNL     1       4.826  -4.648   7.444  0.00  0.00    +0.136 C 
BRANCH  18  19
ATOM     19  C   UNL     1       6.301  -4.956   7.414  0.00  0.00    +0.216 C 
ATOM     20  O   UNL     1       6.932  -4.805   6.389  0.00  0.00    -0.276 OA
ATOM     21  N   UNL     1       6.919  -5.400   8.527  0.00  0.00    -0.313 N 
ATOM     22  H   UNL     1       6.415  -5.521   9.346  0.00  0.00    +0.149 HD
BRANCH  21  23
ATOM     23  C   UNL     1       8.353  -5.699   8.498  0.00  0.00    +0.067 C 
ATOM     24  C   UNL     1       8.929  -5.571   9.910  0.00  0.00    +0.027 C 
ATOM     25  C   UNL     1       8.566  -7.126   7.988  0.00  0.00    +0.027 C 
ENDBRANCH  21  23
ENDBRANCH  18  19
ENDBRANCH  17  18
ENDBRANCH  16  17
ENDBRANCH   4  16
TORSDOF 9
