REMARK  Name = ZINC39677757
REMARK  5 active torsions:
REMARK  status: ('A' for Active; 'I' for Inactive)
REMARK    1  A    between atoms: C_5  and  C_7
REMARK    2  A    between atoms: C_10  and  C_12
REMARK    3  A    between atoms: C_12  and  N_13
REMARK    4  A    between atoms: C_14  and  C_16
REMARK    5  A    between atoms: C_27  and  C_29
REMARK                            x       y       z     vdW  Elec       q    Type
REMARK                         _______ _______ _______ _____ _____    ______ ____
ROOT
ATOM      1  C   UNL     1      -0.336  -8.451   2.993  0.00  0.00    +0.100 C 
ATOM      2  C   UNL     1      -1.322  -7.548   3.767  0.00  0.00    +0.121 C 
ATOM      3  N   UNL     1      -2.629  -8.236   3.654  0.00  0.00    -0.300 N 
ATOM      4  C   UNL     1      -2.301  -9.675   3.791  0.00  0.00    +0.115 C 
ATOM      5  C   UNL     1      -0.980  -9.848   3.014  0.00  0.00    -0.004 C 
ATOM      6  C   UNL     1      -0.070 -10.839   3.733  0.00  0.00    -0.010 C 
ATOM      7  C   UNL     1      -0.705 -12.232   3.691  0.00  0.00    -0.082 C 
ATOM      8  N   UNL     1      -0.900 -12.640   2.294  0.00  0.00    +0.379 N 
ATOM      9  C   UNL     1      -1.850 -11.735   1.636  0.00  0.00    -0.082 C 
ATOM     10  C   UNL     1      -1.264 -10.321   1.592  0.00  0.00    -0.010 C 
ATOM     11  C   UNL     1      -3.842  -7.680   3.468  0.00  0.00    +0.219 C 
ATOM     12  O   UNL     1      -4.827  -8.383   3.395  0.00  0.00    -0.275 OA
ATOM     13  H   UNL     1      -0.016 -12.608   1.809  0.00  0.00    -0.086 HD
ATOM     14  H   UNL     1      -1.262 -13.582   2.268  0.00  0.00    -0.086 HD
ENDROOT
BRANCH  11  15
ATOM     15  C   UNL     1      -3.975  -6.183   3.350  0.00  0.00    +0.079 C 
ATOM     16  C   UNL     1      -3.468  -5.521   4.635  0.00  0.00    +0.041 C 
ATOM     17  C   UNL     1      -3.679  -4.008   4.538  0.00  0.00    +0.160 C 
ATOM     18  O   UNL     1      -5.064  -3.735   4.317  0.00  0.00    -0.380 OA
ATOM     19  C   UNL     1      -5.582  -4.290   3.106  0.00  0.00    +0.160 C 
ATOM     20  C   UNL     1      -5.447  -5.814   3.145  0.00  0.00    +0.041 C 
ENDBRANCH  11  15
BRANCH   1  22
ATOM     21  N   UNL     1       0.966  -8.191   0.906  0.00  0.00    -0.310 N 
ATOM     22  C   UNL     1      -0.182  -7.966   1.575  0.00  0.00    +0.218 C 
ATOM     23  O   UNL     1      -1.092  -7.374   1.034  0.00  0.00    -0.275 OA
ATOM     24  H   UNL     1       1.694  -8.664   1.338  0.00  0.00    +0.149 HD
BRANCH  21  25
ATOM     25  C   UNL     1       1.116  -7.719  -0.473  0.00  0.00    +0.146 C 
BRANCH  25  29
ATOM     26  C   UNL     1       5.061  -8.345  -1.734  0.00  0.00    +0.038 A 
ATOM     27  C   UNL     1       4.184  -9.359  -2.018  0.00  0.00    +0.018 A 
ATOM     28  C   UNL     1       2.870  -9.224  -1.634  0.00  0.00    +0.013 A 
ATOM     29  C   UNL     1       2.482  -8.095  -0.987  0.00  0.00    +0.007 A 
ATOM     30  S   UNL     1       4.008  -7.172  -0.896  0.00  0.00    -0.090 S 
BRANCH  26  35
ATOM     31  C   UNL     1       8.569  -7.042  -1.940  0.00  0.00    +0.004 A 
ATOM     32  C   UNL     1       9.162  -8.103  -2.611  0.00  0.00    +0.020 A 
ATOM     33  C   UNL     1       8.395  -9.196  -2.966  0.00  0.00    +0.111 A 
ATOM     34  N   UNL     1       7.110  -9.244  -2.677  0.00  0.00    -0.254 NA
ATOM     35  C   UNL     1       6.503  -8.250  -2.037  0.00  0.00    +0.078 A 
ATOM     36  C   UNL     1       7.220  -7.116  -1.649  0.00  0.00    +0.029 A 
ENDBRANCH  26  35
ENDBRANCH  25  29
ENDBRANCH  21  25
ENDBRANCH   1  22
TORSDOF 5
