REMARK  Name = ZINC65786991
REMARK  5 active torsions:
REMARK  status: ('A' for Active; 'I' for Inactive)
REMARK    1  A    between atoms: C_2  and  C_3
REMARK    2  A    between atoms: C_3  and  N_4
REMARK    3  A    between atoms: N_7  and  C_8
REMARK    4  A    between atoms: C_11  and  N_14
REMARK    5  A    between atoms: N_17  and  C_18
REMARK                            x       y       z     vdW  Elec       q    Type
REMARK                         _______ _______ _______ _____ _____    ______ ____
ROOT
ATOM      1  N   UNL     1      -7.059  -6.305  -3.189  0.00  0.00    -0.269 N 
ATOM      2  C   UNL     1      -6.981  -7.567  -3.654  0.00  0.00    +0.308 C 
ATOM      3  O   UNL     1      -5.904  -8.033  -3.974  0.00  0.00    -0.252 OA
ATOM      4  N   UNL     1      -8.097  -8.315  -3.764  0.00  0.00    -0.269 N 
ATOM      5  H   UNL     1      -7.924  -5.911  -2.997  0.00  0.00    +0.156 HD
ATOM      6  H   UNL     1      -8.965  -7.920  -3.584  0.00  0.00    +0.156 HD
ENDROOT
BRANCH   4   7
ATOM      7  C   UNL     1      -8.004  -9.661  -4.140  0.00  0.00    +0.036 A 
ATOM      8  C   UNL     1      -6.919 -10.427  -3.718  0.00  0.00    +0.027 A 
ATOM      9  C   UNL     1      -6.813 -11.752  -4.079  0.00  0.00    +0.049 A 
ATOM     10  C   UNL     1      -7.793 -12.339  -4.870  0.00  0.00    +0.139 A 
ATOM     11  C   UNL     1      -8.890 -11.571  -5.297  0.00  0.00    +0.019 A 
ATOM     12  C   UNL     1      -8.993 -10.228  -4.922  0.00  0.00    +0.035 A 
ATOM     13  C   UNL     1      -9.918 -12.202  -6.131  0.00  0.00    +0.018 A 
ATOM     14  C   UNL     1      -9.765 -13.510  -6.458  0.00  0.00    +0.092 A 
ATOM     15  C   UNL     1      -8.637 -14.221  -5.994  0.00  0.00    +0.337 A 
ATOM     16  O   UNL     1      -8.511 -15.395  -6.293  0.00  0.00    -0.245 OA
ATOM     17  O   UNL     1      -7.700 -13.637  -5.231  0.00  0.00    -0.422 OA
ENDBRANCH   4   7
BRANCH   1  21
ATOM     18  C   UNL     1      -3.578  -4.093  -2.573  0.00  0.00    +0.035 A 
ATOM     19  C   UNL     1      -4.661  -3.934  -1.719  0.00  0.00    +0.025 A 
ATOM     20  C   UNL     1      -5.813  -4.667  -1.923  0.00  0.00    +0.025 A 
ATOM     21  C   UNL     1      -5.889  -5.561  -2.982  0.00  0.00    +0.035 A 
ATOM     22  C   UNL     1      -4.806  -5.719  -3.837  0.00  0.00    +0.025 A 
ATOM     23  C   UNL     1      -3.655  -4.983  -3.636  0.00  0.00    +0.025 A 
BRANCH  18  27
ATOM     24  N   UNL     1      -0.616  -2.125  -3.226  0.00  0.00    -0.296 N 
ATOM     25  C   UNL     1      -1.688  -2.918  -3.421  0.00  0.00    +0.304 C 
ATOM     26  O   UNL     1      -2.006  -3.244  -4.548  0.00  0.00    -0.253 OA
ATOM     27  N   UNL     1      -2.408  -3.349  -2.366  0.00  0.00    -0.269 N 
ATOM     28  H   UNL     1      -0.362  -1.865  -2.327  0.00  0.00    +0.151 HD
ATOM     29  H   UNL     1      -2.116  -3.145  -1.464  0.00  0.00    +0.156 HD
BRANCH  24  30
ATOM     30  C   UNL     1       0.167  -1.657  -4.373  0.00  0.00    +0.132 C 
BRANCH  30  32
ATOM     31  C   UNL     1       2.535  -1.080  -4.226  0.00  0.00    +0.005 C 
ATOM     32  C   UNL     1       1.302  -0.793  -3.887  0.00  0.00    -0.016 C 
ENDBRANCH  30  32
ENDBRANCH  24  30
ENDBRANCH  18  27
ENDBRANCH   1  21
TORSDOF 5
