REMARK  Name = ZINC35629543
REMARK  10 active torsions:
REMARK  status: ('A' for Active; 'I' for Inactive)
REMARK    1  A    between atoms: C_1  and  C_2
REMARK    2  A    between atoms: C_5  and  O_13
REMARK    3  A    between atoms: C_6  and  C_8
REMARK    4  A    between atoms: C_8  and  C_10
REMARK    5  A    between atoms: C_8  and  N_11
REMARK    6  A    between atoms: N_11  and  C_12
REMARK    7  A    between atoms: O_13  and  C_14
REMARK    8  A    between atoms: C_14  and  C_16
REMARK    9  A    between atoms: C_14  and  C_17
REMARK   10  A    between atoms: N_22  and  C_23
REMARK                            x       y       z     vdW  Elec       q    Type
REMARK                         _______ _______ _______ _____ _____    ______ ____
ROOT
ATOM      1  C   UNL     1      -0.020   1.503   0.011  0.00  0.00    +0.044 C 
ATOM      2  C   UNL     1       0.001  -0.004   0.002  0.00  0.00    -0.050 A 
ATOM      3  C   UNL     1      -0.213  -0.691  -1.179  0.00  0.00    +0.007 A 
ATOM      4  C   UNL     1      -0.195  -2.072  -1.189  0.00  0.00    +0.046 A 
ATOM      5  C   UNL     1       0.039  -2.770  -0.013  0.00  0.00    +0.123 A 
ATOM      6  C   UNL     1       0.254  -2.079   1.170  0.00  0.00    -0.020 A 
ATOM      7  C   UNL     1       0.240  -0.698   1.174  0.00  0.00    +0.009 A 
ENDROOT
BRANCH   6   8
ATOM      8  C   UNL     1       0.509  -2.834   2.449  0.00  0.00    -0.041 C 
ATOM      9  C   UNL     1      -0.821  -3.327   3.024  0.00  0.00    -0.009 C 
BRANCH   8  10
ATOM     10  N   UNL     1       1.163  -1.947   3.420  0.00  0.00    +0.382 N 
ATOM     11  C   UNL     1       1.519  -2.714   4.621  0.00  0.00    -0.100 C 
ATOM     12  H   UNL     1       1.999  -1.558   3.010  0.00  0.00    -0.085 HD
ATOM     13  H   UNL     1       0.533  -1.201   3.672  0.00  0.00    -0.085 HD
ENDBRANCH   8  10
ENDBRANCH   6   8
BRANCH   5  14
ATOM     14  O   UNL     1       0.057  -4.129  -0.021  0.00  0.00    -0.480 OA
BRANCH  14  15
ATOM     15  C   UNL     1      -0.052  -4.772  -1.292  0.00  0.00    +0.256 C 
ATOM     16  C   UNL     1      -1.529  -4.909  -1.669  0.00  0.00    +0.062 C 
BRANCH  15  17
ATOM     17  C   UNL     1       0.576  -6.140  -1.219  0.00  0.00    +0.261 C 
ATOM     18  O   UNL     1       0.987  -6.562  -0.159  0.00  0.00    -0.271 OA
ATOM     19  N   UNL     1       0.681  -6.894  -2.331  0.00  0.00    -0.237 N 
ATOM     20  C   UNL     1       1.242  -8.117  -2.265  0.00  0.00    +0.306 C 
ATOM     21  O   UNL     1       1.655  -8.541  -1.203  0.00  0.00    -0.252 OA
ATOM     22  N   UNL     1       1.347  -8.871  -3.377  0.00  0.00    -0.302 N 
ATOM     23  C   UNL     1       1.958 -10.201  -3.306  0.00  0.00    +0.129 C 
ATOM     24  H   UNL     1       0.352  -6.556  -3.179  0.00  0.00    +0.159 HD
ATOM     25  H   UNL     1       1.018  -8.534  -4.225  0.00  0.00    +0.150 HD
ENDBRANCH  15  17
ENDBRANCH  14  15
ENDBRANCH   5  14
TORSDOF 5
