REMARK  Name = ZINC66195241
REMARK  10 active torsions:
REMARK  status: ('A' for Active; 'I' for Inactive)
REMARK    1  A    between atoms: C_1  and  C_2
REMARK    2  A    between atoms: C_2  and  C_3
REMARK    3  A    between atoms: C_3  and  C_5
REMARK    4  A    between atoms: C_3  and  N_6
REMARK    5  A    between atoms: N_6  and  C_7
REMARK    6  A    between atoms: N_6  and  C_8
REMARK    7  A    between atoms: C_8  and  C_9
REMARK    8  A    between atoms: C_9  and  N_10
REMARK    9  A    between atoms: N_13  and  C_14
REMARK   10  A    between atoms: C_14  and  C_15
REMARK                            x       y       z     vdW  Elec       q    Type
REMARK                         _______ _______ _______ _____ _____    ______ ____
ROOT
ATOM      1  N   UNL     1      -3.218   2.884   3.064  0.00  0.00    -0.301 N 
ATOM      2  C   UNL     1      -3.768   3.367   4.196  0.00  0.00    +0.300 C 
ATOM      3  O   UNL     1      -4.079   2.607   5.093  0.00  0.00    -0.253 OA
ATOM      4  N   UNL     1      -3.974   4.691   4.333  0.00  0.00    -0.295 N 
ATOM      5  H   UNL     1      -2.970   3.490   2.349  0.00  0.00    +0.150 HD
ATOM      6  H   UNL     1      -3.726   5.298   3.618  0.00  0.00    +0.151 HD
ENDROOT
BRANCH   1   7
ATOM      7  C   UNL     1      -2.995   1.444   2.914  0.00  0.00    +0.087 C 
BRANCH   7   8
ATOM      8  C   UNL     1      -2.364   1.165   1.548  0.00  0.00    -0.060 C 
BRANCH   8   9
ATOM      9  N   UNL     1      -2.140  -0.279   1.398  0.00  0.00    +0.381 N 
ATOM     10  C   UNL     1      -3.432  -0.977   1.394  0.00  0.00    -0.096 C 
ATOM     11  H   UNL     1      -1.579  -0.614   2.167  0.00  0.00    -0.082 HD
BRANCH   9  12
ATOM     12  C   UNL     1      -1.440  -0.537   0.132  0.00  0.00    -0.072 C 
ATOM     13  C   UNL     1      -2.349  -0.158  -1.039  0.00  0.00    -0.013 C 
BRANCH  12  15
ATOM     14  C   UNL     1      -0.111  -2.382   1.167  0.00  0.00    +0.002 C 
ATOM     15  C   UNL     1      -1.082  -2.021   0.041  0.00  0.00    -0.019 C 
ENDBRANCH  12  15
ENDBRANCH   9  12
ENDBRANCH   8   9
ENDBRANCH   7   8
ENDBRANCH   1   7
BRANCH   4  16
ATOM     16  C   UNL     1      -4.572   5.216   5.564  0.00  0.00    +0.144 C 
BRANCH  16  17
ATOM     17  C   UNL     1      -4.692   6.715   5.465  0.00  0.00    +0.014 A 
ATOM     18  C   UNL     1      -3.755   7.525   6.076  0.00  0.00    +0.047 A 
ATOM     19  C   UNL     1      -3.865   8.902   5.986  0.00  0.00    +0.124 A 
ATOM     20  C   UNL     1      -4.916   9.468   5.284  0.00  0.00    +0.047 A 
ATOM     21  C   UNL     1      -5.856   8.660   4.671  0.00  0.00    +0.023 A 
ATOM     22  C   UNL     1      -5.742   7.281   4.754  0.00  0.00    +0.134 A 
ATOM     23  O   UNL     1      -6.652   6.474   4.144  0.00  0.00    -0.465 OA
ATOM     24  C   UNL     1      -7.885   7.078   3.744  0.00  0.00    +0.394 C 
ATOM     25  O   UNL     1      -7.594   8.302   3.059  0.00  0.00    -0.339 OA
ATOM     26  C   UNL     1      -6.998   9.287   3.913  0.00  0.00    +0.202 C 
ATOM     27  F   UNL     1      -2.948   9.693   6.583  0.00  0.00    -0.205 F 
ENDBRANCH  16  17
ENDBRANCH   4  16
TORSDOF 7
