REMARK  Name = ZINC04974102
REMARK  2 active torsions:
REMARK  status: ('A' for Active; 'I' for Inactive)
REMARK    1  A    between atoms: C_3  and  C_9
REMARK    2  A    between atoms: N_10  and  N_11
REMARK                            x       y       z     vdW  Elec       q    Type
REMARK                         _______ _______ _______ _____ _____    ______ ____
ROOT
ATOM      1  N   UNL     1       2.411  -4.186  -0.044  0.00  0.00    -0.205 N 
ATOM      2  C   UNL     1       3.620  -4.854  -0.060  0.00  0.00    +0.241 A 
ATOM      3  N   UNL     1       4.759  -4.168  -0.072  0.00  0.00    -0.180 NA
ATOM      4  C   UNL     1       5.922  -4.811  -0.081  0.00  0.00    +0.224 A 
ATOM      5  N   UNL     1       5.947  -6.141  -0.089  0.00  0.00    -0.181 NA
ATOM      6  C   UNL     1       4.808  -6.827  -0.082  0.00  0.00    +0.224 A 
ATOM      7  N   UNL     1       3.644  -6.184  -0.068  0.00  0.00    -0.180 NA
ATOM      8  N   UNL     1       4.833  -8.207  -0.091  0.00  0.00    -0.299 N 
ATOM      9  C   UNL     1       5.493  -8.734   1.131  0.00  0.00    +0.108 C 
ATOM     10  C   UNL     1       4.975 -10.192   1.212  0.00  0.00    +0.020 C 
ATOM     11  C   UNL     1       3.509 -10.066   0.737  0.00  0.00    +0.020 C 
ATOM     12  C   UNL     1       3.463  -8.762  -0.081  0.00  0.00    +0.108 C 
ATOM     13  N   UNL     1       7.104  -4.099  -0.087  0.00  0.00    -0.299 N 
ATOM     14  C   UNL     1       7.878  -4.364  -1.327  0.00  0.00    +0.108 C 
ATOM     15  C   UNL     1       8.837  -3.150  -1.413  0.00  0.00    +0.020 C 
ATOM     16  C   UNL     1       7.959  -1.981  -0.910  0.00  0.00    +0.020 C 
ATOM     17  C   UNL     1       6.846  -2.643  -0.077  0.00  0.00    +0.108 C 
ATOM     18  H   UNL     1       1.581  -4.686  -0.040  0.00  0.00    +0.177 HD
ENDROOT
BRANCH   1  20
ATOM     19  C   UNL     1       1.250  -2.157  -0.022  0.00  0.00    +0.139 C 
ATOM     20  N   UNL     1       2.385  -2.785  -0.036  0.00  0.00    -0.187 NA
BRANCH  19  23
ATOM     21  C   UNL     1      -0.017   1.375   0.010  0.00  0.00    +0.021 A 
ATOM     22  C   UNL     1       0.002  -0.004   0.002  0.00  0.00    +0.012 A 
ATOM     23  C   UNL     1       1.222  -0.683  -0.013  0.00  0.00    +0.013 A 
ATOM     24  C   UNL     1       2.418   0.042  -0.021  0.00  0.00    +0.051 A 
ATOM     25  C   UNL     1       2.385   1.421  -0.013  0.00  0.00    +0.040 A 
ATOM     26  C   UNL     1       1.171   2.087   0.002  0.00  0.00    +0.042 A 
ATOM     27 CL   UNL     1       1.138   3.823   0.012  0.00  0.00    -0.083 Cl
ATOM     28 CL   UNL     1       3.941  -0.792  -0.041  0.00  0.00    -0.083 Cl
ENDBRANCH  19  23
ENDBRANCH   1  20
TORSDOF 2
