REMARK  Name = ZINC32994530
REMARK  12 active torsions:
REMARK  status: ('A' for Active; 'I' for Inactive)
REMARK    1  A    between atoms: C_1  and  C_2
REMARK    2  A    between atoms: C_2  and  C_3
REMARK    3  A    between atoms: C_2  and  C_4
REMARK    4  A    between atoms: C_4  and  N_5
REMARK    5  A    between atoms: C_6  and  N_38
REMARK    6  A    between atoms: C_7  and  N_14
REMARK    7  A    between atoms: N_14  and  C_15
REMARK    8  A    between atoms: C_15  and  C_16
REMARK    9  A    between atoms: C_16  and  O_17
REMARK   10  A    between atoms: O_17  and  C_18
REMARK   11  A    between atoms: C_19  and  C_21
REMARK   12  A    between atoms: C_24  and  N_27
REMARK                            x       y       z     vdW  Elec       q    Type
REMARK                         _______ _______ _______ _____ _____    ______ ____
ROOT
ATOM      1  N   UNL     1      -2.024  -4.708  -2.759  0.00  0.00    -0.258 N 
ATOM      2  C   UNL     1      -1.399  -4.032  -3.742  0.00  0.00    +0.251 C 
ATOM      3  O   UNL     1      -0.782  -4.636  -4.599  0.00  0.00    -0.270 OA
ENDROOT
BRANCH   1   6
ATOM      4  N   UNL     1      -2.863  -3.425   0.580  0.00  0.00    -0.280 N 
ATOM      5  C   UNL     1      -2.219  -4.123  -0.415  0.00  0.00    +0.127 A 
ATOM      6  C   UNL     1      -2.664  -4.007  -1.716  0.00  0.00    +0.140 A 
ATOM      7  C   UNL     1      -3.768  -3.175  -1.985  0.00  0.00    +0.277 A 
ATOM      8  O   UNL     1      -4.182  -3.054  -3.125  0.00  0.00    -0.266 OA
ATOM      9  N   UNL     1      -4.363  -2.514  -0.973  0.00  0.00    -0.273 N 
ATOM     10  H   UNL     1      -5.124  -1.940  -1.157  0.00  0.00    +0.173 HD
ATOM     11  C   UNL     1      -3.919  -2.643   0.289  0.00  0.00    +0.331 A 
ATOM     12  O   UNL     1      -4.478  -2.039   1.184  0.00  0.00    -0.246 OA
BRANCH   5  13
ATOM     13  N   UNL     1      -1.144  -4.926  -0.117  0.00  0.00    -0.343 N 
ATOM     14  H   UNL     1      -0.831  -4.997   0.798  0.00  0.00    +0.144 HD
ATOM     15  H   UNL     1      -0.698  -5.420  -0.823  0.00  0.00    +0.144 HD
ENDBRANCH   5  13
BRANCH   4  16
ATOM     16  C   UNL     1      -2.402  -3.540   1.966  0.00  0.00    +0.131 C 
BRANCH  16  18
ATOM     17  C   UNL     1      -2.557  -4.899   4.056  0.00  0.00    +0.009 C 
ATOM     18  C   UNL     1      -3.127  -4.700   2.651  0.00  0.00    +0.003 C 
ATOM     19  C   UNL     1      -4.620  -4.382   2.747  0.00  0.00    +0.009 C 
ENDBRANCH  16  18
ENDBRANCH   4  16
ENDBRANCH   1   6
BRANCH   2  20
ATOM     20  C   UNL     1      -1.462  -2.557  -3.779  0.00  0.00    +0.037 A 
ATOM     21  C   UNL     1      -1.602  -1.833  -2.592  0.00  0.00    +0.015 A 
ATOM     22  C   UNL     1      -1.660  -0.457  -2.630  0.00  0.00    +0.025 A 
ATOM     23  C   UNL     1      -1.579   0.210  -3.848  0.00  0.00    +0.045 A 
ATOM     24  C   UNL     1      -1.439  -0.508  -5.030  0.00  0.00    +0.025 A 
ATOM     25  C   UNL     1      -1.375  -1.883  -5.000  0.00  0.00    +0.015 A 
BRANCH  23  26
ATOM     26  N   UNL     1      -1.638   1.606  -3.882  0.00  0.00    -0.202 N 
ATOM     27  C   UNL     1      -1.767   2.390  -2.797  0.00  0.00    +0.258 C 
ATOM     28  O   UNL     1      -1.848   2.002  -1.649  0.00  0.00    -0.269 OA
ATOM     29  C   UNL     1      -1.792   3.801  -3.235  0.00  0.00    +0.050 A 
ATOM     30  C   UNL     1      -1.904   5.016  -2.578  0.00  0.00    +0.014 A 
ATOM     31  C   UNL     1      -1.894   6.195  -3.308  0.00  0.00    +0.001 A 
ATOM     32  C   UNL     1      -1.774   6.165  -4.685  0.00  0.00    +0.001 A 
ATOM     33  C   UNL     1      -1.662   4.957  -5.355  0.00  0.00    +0.014 A 
ATOM     34  C   UNL     1      -1.670   3.771  -4.639  0.00  0.00    +0.050 A 
ATOM     35  C   UNL     1      -1.569   2.343  -5.006  0.00  0.00    +0.258 C 
ATOM     36  O   UNL     1      -1.446   1.908  -6.133  0.00  0.00    -0.269 OA
ENDBRANCH  23  26
ENDBRANCH   2  20
BRANCH   1  37
ATOM     37  C   UNL     1      -2.040  -6.173  -2.773  0.00  0.00    +0.142 C 
BRANCH  37  38
ATOM     38  C   UNL     1      -3.333  -6.663  -3.426  0.00  0.00    +0.179 C 
BRANCH  38  39
ATOM     39  O   UNL     1      -3.351  -6.272  -4.800  0.00  0.00    -0.381 OA
ATOM     40  C   UNL     1      -4.524  -6.683  -5.506  0.00  0.00    +0.194 C 
ENDBRANCH  38  39
ENDBRANCH  37  38
ENDBRANCH   1  37
TORSDOF 9
