REMARK  Name = ZINC00803894
REMARK  7 active torsions:
REMARK  status: ('A' for Active; 'I' for Inactive)
REMARK    1  A    between atoms: C_1  and  C_2
REMARK    2  A    between atoms: C_9  and  C_17
REMARK    3  A    between atoms: C_11  and  C_15
REMARK    4  A    between atoms: C_12  and  N_14
REMARK    5  A    between atoms: C_20  and  O_23
REMARK    6  A    between atoms: O_23  and  C_24
REMARK    7  A    between atoms: C_24  and  C_25
REMARK                            x       y       z     vdW  Elec       q    Type
REMARK                         _______ _______ _______ _____ _____    ______ ____
ROOT
ATOM      1  C   UNL     1      -0.116  -8.303   4.717  0.00  0.00    +0.086 C 
ATOM      2  C   UNL     1       0.468  -7.716   3.458  0.00  0.00    +0.110 A 
ATOM      3  C   UNL     1      -0.188  -7.868   2.292  0.00  0.00    +0.088 A 
ATOM      4  C   UNL     1       0.355  -7.320   1.107  0.00  0.00    +0.144 A 
ATOM      5  C   UNL     1       1.551  -6.638   1.180  0.00  0.00    +0.092 A 
ATOM      6  C   UNL     1       2.187  -6.511   2.422  0.00  0.00    +0.345 A 
ATOM      7  O   UNL     1       3.246  -5.911   2.506  0.00  0.00    -0.245 OA
ATOM      8  O   UNL     1       1.631  -7.051   3.520  0.00  0.00    -0.427 OA
ATOM      9  C   UNL     1       2.169  -6.035  -0.051  0.00  0.00    +0.105 C 
ATOM     10  C   UNL     1       1.542  -6.622  -1.285  0.00  0.00    +0.098 C 
ATOM     11  C   UNL     1       0.367  -7.293  -1.224  0.00  0.00    +0.199 C 
ATOM     12  O   UNL     1      -0.294  -7.467  -0.066  0.00  0.00    -0.441 OA
ENDROOT
BRANCH   9  13
ATOM     13  C   UNL     1       1.952  -4.544  -0.041  0.00  0.00    -0.034 A 
ATOM     14  C   UNL     1       3.037  -3.688  -0.047  0.00  0.00    +0.008 A 
ATOM     15  C   UNL     1       2.840  -2.321  -0.037  0.00  0.00    +0.046 A 
ATOM     16  C   UNL     1       1.552  -1.807  -0.022  0.00  0.00    +0.121 A 
ATOM     17  C   UNL     1       0.464  -2.668  -0.011  0.00  0.00    +0.046 A 
ATOM     18  C   UNL     1       0.666  -4.034  -0.026  0.00  0.00    +0.008 A 
BRANCH  16  19
ATOM     19  O   UNL     1       1.356  -0.462  -0.013  0.00  0.00    -0.483 OA
BRANCH  19  20
ATOM     20  C   UNL     1       0.002  -0.004   0.002  0.00  0.00    +0.324 C 
BRANCH  20  21
ATOM     21  C   UNL     1      -0.018   1.503   0.010  0.00  0.00    +0.248 C 
ATOM     22  O   UNL     1       1.024   2.123   0.004  0.00  0.00    -0.272 OA
ATOM     23  N   UNL     1      -1.195   2.161   0.019  0.00  0.00    -0.327 N 
ATOM     24  H   UNL     1      -2.028   1.664   0.021  0.00  0.00    +0.145 HD
ATOM     25  H   UNL     1      -1.208   3.131   0.025  0.00  0.00    +0.145 HD
ENDBRANCH  20  21
ENDBRANCH  19  20
ENDBRANCH  16  19
ENDBRANCH   9  13
BRANCH  11  26
ATOM     26  N   UNL     1      -0.166  -7.810  -2.379  0.00  0.00    -0.328 N 
ATOM     27  H   UNL     1      -1.007  -8.292  -2.352  0.00  0.00    +0.145 HD
ATOM     28  H   UNL     1       0.299  -7.692  -3.222  0.00  0.00    +0.145 HD
ENDBRANCH  11  26
BRANCH  10  29
ATOM     29  C   UNL     1       2.198  -6.469  -2.548  0.00  0.00    +0.101 C 
ATOM     30  N   UNL     1       2.720  -6.348  -3.550  0.00  0.00    -0.191 NA
ENDBRANCH  10  29
TORSDOF 6
