REMARK  Name = ZINC35747663
REMARK  14 active torsions:
REMARK  status: ('A' for Active; 'I' for Inactive)
REMARK    1  A    between atoms: C_1  and  C_2
REMARK    2  A    between atoms: C_5  and  C_9
REMARK    3  A    between atoms: C_6  and  C_8
REMARK    4  A    between atoms: C_18  and  C_20
REMARK    5  A    between atoms: C_20  and  N_21
REMARK    6  A    between atoms: N_21  and  C_22
REMARK    7  A    between atoms: N_21  and  C_28
REMARK    8  A    between atoms: C_22  and  C_23
REMARK    9  A    between atoms: C_28  and  C_29
REMARK   10  A    between atoms: C_29  and  C_31
REMARK   11  A    between atoms: C_29  and  O_40
REMARK   12  A    between atoms: C_31  and  O_32
REMARK   13  A    between atoms: O_32  and  C_33
REMARK   14  A    between atoms: C_38  and  C_39
REMARK                            x       y       z     vdW  Elec       q    Type
REMARK                         _______ _______ _______ _____ _____    ______ ____
ROOT
ATOM      1  N   UNL     1      -3.291  -9.189   2.030  0.00  0.00    +0.391 N 
ATOM      2  H   UNL     1      -2.586  -9.554   2.654  0.00  0.00    -0.080 HD
ENDROOT
BRANCH   1   3
ATOM      3  C   UNL     1      -3.574  -7.790   2.376  0.00  0.00    -0.003 C 
BRANCH   3  13
ATOM      4  C   UNL     1      -4.766  -7.628   7.947  0.00  0.00    +0.004 A 
ATOM      5  C   UNL     1      -4.770  -8.859   8.513  0.00  0.00    +0.056 A 
ATOM      6  S   UNL     1      -4.374  -9.940   7.152  0.00  0.00    -0.076 S 
ATOM      7  C   UNL     1      -4.214  -8.726   5.868  0.00  0.00    +0.116 A 
ATOM      8  C   UNL     1      -4.477  -7.512   6.523  0.00  0.00    +0.080 A 
ATOM      9  C   UNL     1      -4.419  -6.340   5.703  0.00  0.00    +0.260 A 
ATOM     10  O   UNL     1      -4.628  -5.238   6.182  0.00  0.00    -0.267 OA
ATOM     11  N   UNL     1      -4.130  -6.472   4.395  0.00  0.00    -0.312 N 
ATOM     12  H   UNL     1      -4.090  -5.681   3.835  0.00  0.00    +0.170 HD
ATOM     13  C   UNL     1      -3.894  -7.691   3.845  0.00  0.00    +0.094 A 
ATOM     14  N   UNL     1      -3.929  -8.777   4.569  0.00  0.00    -0.229 NA
BRANCH   4  19
ATOM     15  C   UNL     1      -5.891  -2.945  11.103  0.00  0.00    +0.044 C 
ATOM     16  C   UNL     1      -5.597  -4.171  10.277  0.00  0.00    -0.050 A 
ATOM     17  C   UNL     1      -4.461  -4.918  10.534  0.00  0.00    +0.004 A 
ATOM     18  C   UNL     1      -4.187  -6.041   9.781  0.00  0.00    +0.009 A 
ATOM     19  C   UNL     1      -5.056  -6.423   8.760  0.00  0.00    -0.014 A 
ATOM     20  C   UNL     1      -6.199  -5.665   8.506  0.00  0.00    -0.042 A 
ATOM     21  C   UNL     1      -6.466  -4.547   9.269  0.00  0.00    +0.007 A 
ATOM     22  C   UNL     1      -7.143  -6.071   7.404  0.00  0.00    +0.044 C 
ENDBRANCH   4  19
ENDBRANCH   3  13
ENDBRANCH   1   3
BRANCH   1  23
ATOM     23  C   UNL     1      -2.804  -9.263   0.646  0.00  0.00    -0.002 C 
BRANCH  23  24
ATOM     24  C   UNL     1      -1.518  -8.487   0.523  0.00  0.00    +0.089 A 
ATOM     25  C   UNL     1      -0.278  -8.998   0.621  0.00  0.00    +0.042 A 
ATOM     26  C   UNL     1       0.624  -7.923   0.444  0.00  0.00    +0.041 A 
ATOM     27  C   UNL     1      -0.120  -6.819   0.250  0.00  0.00    +0.195 A 
ATOM     28  O   UNL     1      -1.416  -7.167   0.293  0.00  0.00    -0.470 OA
ENDBRANCH  23  24
ENDBRANCH   1  23
BRANCH   1  29
ATOM     29  C   UNL     1      -4.519  -9.984   2.160  0.00  0.00    -0.043 C 
BRANCH  29  30
ATOM     30  C   UNL     1      -4.189 -11.467   1.980  0.00  0.00    +0.135 C 
BRANCH  30  31
ATOM     31  O   UNL     1      -3.817 -11.711   0.623  0.00  0.00    -0.390 OA
ATOM     32  H   UNL     1      -4.506 -11.493  -0.019  0.00  0.00    +0.210 HD
ENDBRANCH  30  31
BRANCH  30  33
ATOM     33  C   UNL     1      -5.417 -12.309   2.332  0.00  0.00    +0.258 C 
BRANCH  33  34
ATOM     34  O   UNL     1      -5.075 -13.696   2.277  0.00  0.00    -0.489 OA
BRANCH  34  35
ATOM     35  C   UNL     1      -6.060 -14.586   2.565  0.00  0.00    +0.124 A 
ATOM     36  C   UNL     1      -7.332 -14.135   2.888  0.00  0.00    +0.046 A 
ATOM     37  C   UNL     1      -8.332 -15.042   3.180  0.00  0.00    +0.004 A 
ATOM     38  C   UNL     1      -8.067 -16.399   3.150  0.00  0.00    +0.000 A 
ATOM     39  C   UNL     1      -6.801 -16.851   2.829  0.00  0.00    +0.007 A 
ATOM     40  C   UNL     1      -5.798 -15.948   2.530  0.00  0.00    -0.009 A 
ATOM     41  C   UNL     1      -4.420 -16.442   2.175  0.00  0.00    +0.047 C 
ENDBRANCH  34  35
ENDBRANCH  33  34
ENDBRANCH  30  33
ENDBRANCH  29  30
ENDBRANCH   1  29
TORSDOF 11
