REMARK  Name = ZINC12155744
REMARK  6 active torsions:
REMARK  status: ('A' for Active; 'I' for Inactive)
REMARK    1  A    between atoms: C_1  and  C_2
REMARK    2  A    between atoms: C_6  and  C_28
REMARK    3  A    between atoms: C_16  and  N_54
REMARK    4  A    between atoms: C_20  and  C_22
REMARK    5  A    between atoms: C_20  and  C_23
REMARK    6  A    between atoms: C_20  and  N_54
REMARK                            x       y       z     vdW  Elec       q    Type
REMARK                         _______ _______ _______ _____ _____    ______ ____
ROOT
ATOM      1  C   UNL     1       0.616   3.970   0.594  0.00  0.00    +0.044 C 
ATOM      2  C   UNL     1       0.716   2.474   0.444  0.00  0.00    -0.048 A 
ATOM      3  C   UNL     1       1.970   1.880   0.313  0.00  0.00    +0.004 A 
ATOM      4  C   UNL     1       2.095   0.531   0.175  0.00  0.00    +0.012 A 
ATOM      5  C   UNL     1       0.946  -0.273   0.165  0.00  0.00    +0.022 A 
ATOM      6  C   UNL     1       1.013  -1.671   0.026  0.00  0.00    +0.051 A 
ATOM      7  N   UNL     1      -0.110  -2.357   0.025  0.00  0.00    -0.219 NA
ATOM      8  C   UNL     1      -1.293  -1.758   0.152  0.00  0.00    +0.219 A 
ATOM      9  N   UNL     1      -1.418  -0.452   0.286  0.00  0.00    -0.214 NA
ATOM     10  C   UNL     1      -0.331   0.331   0.298  0.00  0.00    +0.077 A 
ATOM     11  C   UNL     1      -0.421   1.723   0.438  0.00  0.00    +0.032 A 
ATOM     12  N   UNL     1      -2.436  -2.537   0.144  0.00  0.00    -0.300 N 
ATOM     13  C   UNL     1      -3.350  -2.103  -0.885  0.00  0.00    +0.108 C 
ATOM     14  C   UNL     1      -4.778  -2.140  -0.310  0.00  0.00    +0.017 C 
ATOM     15  C   UNL     1      -5.361  -3.477  -0.337  0.00  0.00    -0.014 C 
ATOM     16  C   UNL     1      -4.545  -4.471   0.520  0.00  0.00    -0.070 C 
ATOM     17  C   UNL     1      -3.310  -4.871  -0.241  0.00  0.00    +0.003 C 
ATOM     18  C   UNL     1      -2.098  -3.975   0.070  0.00  0.00    +0.106 C 
ATOM     19  C   UNL     1       2.341  -2.368  -0.120  0.00  0.00    +0.066 C 
ENDROOT
BRANCH  16  20
ATOM     20  N   UNL     1      -5.367  -5.666   0.793  0.00  0.00    +0.386 N 
ATOM     21  H   UNL     1      -5.261  -6.333   0.019  0.00  0.00    -0.085 HD
ATOM     22  H   UNL     1      -6.352  -5.388   0.874  0.00  0.00    -0.085 HD
BRANCH  20  23
ATOM     23  C   UNL     1      -4.936  -6.307   2.050  0.00  0.00    -0.037 C 
ATOM     24  C   UNL     1      -5.319  -7.788   2.015  0.00  0.00    -0.008 C 
BRANCH  23  25
ATOM     25  C   UNL     1      -5.621  -5.639   3.215  0.00  0.00    -0.024 A 
ATOM     26  C   UNL     1      -5.120  -5.331   4.436  0.00  0.00    +0.009 A 
ATOM     27  C   UNL     1      -5.940  -4.709   5.359  0.00  0.00    +0.008 A 
ATOM     28  C   UNL     1      -7.223  -4.435   5.019  0.00  0.00    +0.045 A 
ATOM     29  S   UNL     1      -7.303  -5.057   3.347  0.00  0.00    -0.103 S 
ENDBRANCH  23  25
ENDBRANCH  20  23
ENDBRANCH  16  20
TORSDOF 3
