REMARK  Name = ZINC32537300
REMARK  5 active torsions:
REMARK  status: ('A' for Active; 'I' for Inactive)
REMARK    1  A    between atoms: C_1  and  C_2
REMARK    2  A    between atoms: C_3  and  C_7
REMARK    3  A    between atoms: C_7  and  C_8
REMARK    4  A    between atoms: C_8  and  N_9
REMARK    5  A    between atoms: N_9  and  C_10
REMARK                            x       y       z     vdW  Elec       q    Type
REMARK                         _______ _______ _______ _____ _____    ______ ____
ROOT
ATOM      1  N   UNL     1       1.415   0.452  -4.457  0.00  0.00    -0.316 N 
ATOM      2  C   UNL     1       1.394   1.890  -4.734  0.00  0.00    +0.130 C 
ATOM      3  C   UNL     1       1.423  -0.455  -5.503  0.00  0.00    +0.152 A 
ATOM      4  C   UNL     1       1.416  -0.013  -6.837  0.00  0.00    +0.147 A 
ATOM      5  C   UNL     1       1.424  -0.980  -7.856  0.00  0.00    +0.163 A 
ATOM      6  N   UNL     1       1.414  -0.284  -9.038  0.00  0.00    -0.329 N 
ATOM      7  H   UNL     1       1.416  -0.666  -9.930  0.00  0.00    +0.168 HD
ATOM      8  C   UNL     1       1.400   1.044  -8.730  0.00  0.00    +0.198 A 
ATOM      9  N   UNL     1       1.401   1.201  -7.439  0.00  0.00    -0.231 NA
ATOM     10  N   UNL     1       1.439  -2.267  -7.525  0.00  0.00    -0.216 NA
ATOM     11  C   UNL     1       1.445  -2.635  -6.261  0.00  0.00    +0.225 A 
ATOM     12  N   UNL     1       1.442  -1.762  -5.269  0.00  0.00    -0.218 NA
ENDROOT
BRANCH   1  13
ATOM     13  C   UNL     1       1.429  -0.028  -3.072  0.00  0.00    +0.111 C 
BRANCH  13  14
ATOM     14  C   UNL     1      -0.008  -0.215  -2.583  0.00  0.00    +0.063 C 
BRANCH  14  17
ATOM     15  C   UNL     1      -0.018   1.503   0.010  0.00  0.00    +0.066 C 
ATOM     16  C   UNL     1       0.002  -0.004   0.002  0.00  0.00    +0.049 A 
ATOM     17  C   UNL     1       0.006  -0.708  -1.159  0.00  0.00    +0.014 A 
ATOM     18  S   UNL     1       0.032  -2.379  -0.531  0.00  0.00    -0.080 S 
ATOM     19  C   UNL     1       0.036  -2.009   1.111  0.00  0.00    +0.156 A 
ATOM     20  N   UNL     1       0.023  -0.699   1.122  0.00  0.00    -0.252 NA
ENDBRANCH  14  17
ENDBRANCH  13  14
ENDBRANCH   1  13
TORSDOF 3
