REMARK  Name = ZINC64316487
REMARK  3 active torsions:
REMARK  status: ('A' for Active; 'I' for Inactive)
REMARK    1  A    between atoms: C_8  and  C_22
REMARK    2  A    between atoms: C_11  and  C_13
REMARK    3  A    between atoms: C_14  and  C_15
REMARK                            x       y       z     vdW  Elec       q    Type
REMARK                         _______ _______ _______ _____ _____    ______ ____
ROOT
ATOM      1  C   UNL     1      -0.017   1.378   0.021  0.00  0.00    +0.000 A 
ATOM      2  C   UNL     1       1.174   2.082   0.016  0.00  0.00    +0.002 A 
ATOM      3  C   UNL     1       2.377   1.411  -0.003  0.00  0.00    +0.024 A 
ATOM      4  C   UNL     1       2.404   0.014  -0.017  0.00  0.00    +0.041 A 
ATOM      5  C   UNL     1       1.206  -0.682  -0.011  0.00  0.00    -0.024 A 
ATOM      6  C   UNL     1       0.002  -0.004   0.008  0.00  0.00    +0.005 A 
ATOM      7  C   UNL     1       1.510  -2.163  -0.029  0.00  0.00    +0.069 C 
ATOM      8  C   UNL     1       3.046  -2.242  -0.046  0.00  0.00    +0.171 C 
ATOM      9  N   UNL     1       3.502  -0.850  -0.037  0.00  0.00    -0.255 N 
ATOM     10  C   UNL     1       4.792  -0.460  -0.048  0.00  0.00    +0.244 C 
ATOM     11  O   UNL     1       5.070   0.722  -0.137  0.00  0.00    -0.270 OA
ENDROOT
BRANCH   8  12
ATOM     12  C   UNL     1       3.519  -2.942  -1.294  0.00  0.00    +0.232 C 
ATOM     13  O   UNL     1       3.924  -2.294  -2.236  0.00  0.00    -0.274 OA
ATOM     14  N   UNL     1       3.493  -4.288  -1.363  0.00  0.00    -0.328 N 
ATOM     15  H   UNL     1       3.169  -4.806  -0.609  0.00  0.00    +0.145 HD
ATOM     16  H   UNL     1       3.797  -4.738  -2.166  0.00  0.00    +0.145 HD
ENDBRANCH   8  12
BRANCH  10  17
ATOM     17  C   UNL     1       5.859  -1.457   0.046  0.00  0.00    +0.068 C 
ATOM     18  C   UNL     1       7.145  -1.062   0.137  0.00  0.00    +0.013 C 
BRANCH  18  19
ATOM     19  C   UNL     1       8.218  -2.064   0.232  0.00  0.00    -0.025 A 
ATOM     20  C   UNL     1       7.907  -3.428   0.223  0.00  0.00    +0.011 A 
ATOM     21  C   UNL     1       8.916  -4.362   0.312  0.00  0.00    +0.039 A 
ATOM     22  C   UNL     1      10.238  -3.953   0.411  0.00  0.00    +0.123 A 
ATOM     23  C   UNL     1      10.552  -2.602   0.421  0.00  0.00    +0.039 A 
ATOM     24  C   UNL     1       9.553  -1.658   0.326  0.00  0.00    +0.011 A 
ATOM     25  F   UNL     1      11.222  -4.873   0.498  0.00  0.00    -0.205 F 
ENDBRANCH  18  19
ENDBRANCH  10  17
TORSDOF 3
