REMARK  Name = ZINC16185426
REMARK  12 active torsions:
REMARK  status: ('A' for Active; 'I' for Inactive)
REMARK    1  A    between atoms: C_1  and  C_2
REMARK    2  A    between atoms: C_2  and  N_3
REMARK    3  A    between atoms: N_3  and  C_4
REMARK    4  A    between atoms: N_3  and  S_6
REMARK    5  A    between atoms: C_4  and  C_5
REMARK    6  A    between atoms: S_6  and  C_9
REMARK    7  A    between atoms: C_12  and  C_28
REMARK    8  A    between atoms: C_13  and  N_15
REMARK    9  A    between atoms: N_15  and  C_16
REMARK   10  A    between atoms: C_16  and  N_18
REMARK   11  A    between atoms: N_18  and  C_19
REMARK   12  A    between atoms: C_22  and  N_26
REMARK                            x       y       z     vdW  Elec       q    Type
REMARK                         _______ _______ _______ _____ _____    ______ ____
ROOT
ATOM      1  N   UNL     1      -6.070   2.189   1.453  0.00  0.00    -0.296 N 
ATOM      2  H   UNL     1      -6.420   3.062   1.692  0.00  0.00    +0.154 HD
ENDROOT
BRANCH   1   7
ATOM      3  C   UNL     1      -2.735   1.002   0.458  0.00  0.00    +0.107 A 
ATOM      4  C   UNL     1      -1.959   1.516   1.480  0.00  0.00    +0.029 A 
ATOM      5  C   UNL     1      -2.544   2.253   2.493  0.00  0.00    +0.007 A 
ATOM      6  C   UNL     1      -3.907   2.478   2.487  0.00  0.00    -0.029 A 
ATOM      7  C   UNL     1      -4.689   1.964   1.462  0.00  0.00    +0.037 A 
ATOM      8  C   UNL     1      -4.098   1.228   0.443  0.00  0.00    +0.052 A 
ATOM      9  C   UNL     1      -4.543   3.282   3.592  0.00  0.00    +0.045 C 
BRANCH   3  10
ATOM     10  S   UNL     1      -1.985   0.063  -0.830  0.00  0.00    +0.061 S 
ATOM     11  O   UNL     1      -3.004  -0.762  -1.378  0.00  0.00    -0.153 OA
ATOM     12  O   UNL     1      -0.779  -0.467  -0.297  0.00  0.00    -0.153 OA
BRANCH  10  13
ATOM     13  N   UNL     1      -1.547   1.128  -2.021  0.00  0.00    -0.177 NA
BRANCH  13  15
ATOM     14  C   UNL     1      -0.310   3.115  -1.313  0.00  0.00    +0.022 C 
ATOM     15  C   UNL     1      -0.221   1.749  -1.997  0.00  0.00    +0.106 C 
ENDBRANCH  13  15
BRANCH  13  16
ATOM     16  C   UNL     1      -2.487   1.449  -3.098  0.00  0.00    +0.106 C 
ATOM     17  C   UNL     1      -2.206   0.551  -4.304  0.00  0.00    +0.022 C 
ENDBRANCH  13  16
ENDBRANCH  10  13
ENDBRANCH   3  10
ENDBRANCH   1   7
BRANCH   1  18
ATOM     18  C   UNL     1      -6.913   1.195   1.112  0.00  0.00    +0.139 C 
ATOM     19  S   UNL     1      -6.298  -0.358   0.738  0.00  0.00    -0.018 S 
BRANCH  18  20
ATOM     20  N   UNL     1      -8.240   1.423   1.065  0.00  0.00    -0.297 N 
ATOM     21  H   UNL     1      -8.584   2.318   1.217  0.00  0.00    +0.154 HD
BRANCH  20  22
ATOM     22  C   UNL     1      -9.124   0.369   0.799  0.00  0.00    +0.035 A 
ATOM     23  C   UNL     1     -10.272   0.215   1.563  0.00  0.00    +0.045 A 
ATOM     24  C   UNL     1     -11.144  -0.825   1.301  0.00  0.00    +0.065 A 
ATOM     25  C   UNL     1     -10.870  -1.717   0.271  0.00  0.00    +0.062 A 
ATOM     26  C   UNL     1      -9.721  -1.562  -0.494  0.00  0.00    +0.065 A 
ATOM     27  C   UNL     1      -8.853  -0.519  -0.234  0.00  0.00    +0.045 A 
ATOM     28 CL   UNL     1      -9.378  -2.677  -1.780  0.00  0.00    -0.082 Cl
ATOM     29 CL   UNL     1     -12.579  -1.017   2.258  0.00  0.00    -0.082 Cl
BRANCH  25  30
ATOM     30  N   UNL     1     -11.753  -2.771   0.005  0.00  0.00    -0.356 N 
ATOM     31  H   UNL     1     -12.555  -2.879   0.540  0.00  0.00    +0.142 HD
ATOM     32  H   UNL     1     -11.562  -3.394  -0.714  0.00  0.00    +0.142 HD
ENDBRANCH  25  30
ENDBRANCH  20  22
ENDBRANCH  18  20
ENDBRANCH   1  18
TORSDOF 9
