REMARK  Name = ZINC37052959
REMARK  5 active torsions:
REMARK  status: ('A' for Active; 'I' for Inactive)
REMARK    1  A    between atoms: C_1  and  N_2
REMARK    2  A    between atoms: N_2  and  C_3
REMARK    3  A    between atoms: N_2  and  S_9
REMARK    4  A    between atoms: S_9  and  C_12
REMARK    5  A    between atoms: C_13  and  N_20
REMARK                            x       y       z     vdW  Elec       q    Type
REMARK                         _______ _______ _______ _____ _____    ______ ____
ROOT
ATOM      1  S   UNL     1      -0.107  -0.888  -1.324  0.00  0.00    +0.078 S 
ATOM      2  O   UNL     1      -0.949  -2.033  -1.308  0.00  0.00    -0.150 OA
ATOM      3  O   UNL     1      -0.410   0.270  -2.090  0.00  0.00    -0.150 OA
ENDROOT
BRANCH   1   4
ATOM      4  C   UNL     1       1.482  -1.439  -1.851  0.00  0.00    +0.147 A 
ATOM      5  C   UNL     1       2.512  -0.523  -2.025  0.00  0.00    +0.054 A 
ATOM      6  C   UNL     1       3.763  -0.961  -2.440  0.00  0.00    +0.044 A 
ATOM      7  C   UNL     1       3.980  -2.305  -2.678  0.00  0.00    +0.044 A 
ATOM      8  C   UNL     1       2.952  -3.215  -2.504  0.00  0.00    +0.042 A 
ATOM      9  C   UNL     1       1.705  -2.782  -2.086  0.00  0.00    +0.071 A 
ATOM     10 CL   UNL     1       0.420  -3.928  -1.861  0.00  0.00    -0.081 Cl
ATOM     11 CL   UNL     1       5.543  -2.853  -3.197  0.00  0.00    -0.083 Cl
BRANCH   5  12
ATOM     12  N   UNL     1       2.290   0.834  -1.784  0.00  0.00    -0.356 N 
ATOM     13  H   UNL     1       1.393   1.154  -1.601  0.00  0.00    +0.142 HD
ATOM     14  H   UNL     1       3.033   1.458  -1.800  0.00  0.00    +0.142 HD
ENDBRANCH   5  12
ENDBRANCH   1   4
BRANCH   1  16
ATOM     15  C   UNL     1       0.236   1.031   0.550  0.00  0.00    +0.157 C 
ATOM     16  N   UNL     1       0.044  -0.390   0.248  0.00  0.00    -0.206 N 
BRANCH  16  17
ATOM     17  C   UNL     1      -0.012  -1.323   1.285  0.00  0.00    +0.051 A 
ATOM     18  C   UNL     1       0.366  -2.640   1.057  0.00  0.00    +0.025 A 
ATOM     19  C   UNL     1       0.310  -3.561   2.085  0.00  0.00    +0.002 A 
ATOM     20  C   UNL     1      -0.123  -3.173   3.340  0.00  0.00    +0.000 A 
ATOM     21  C   UNL     1      -0.500  -1.863   3.570  0.00  0.00    +0.002 A 
ATOM     22  C   UNL     1      -0.441  -0.936   2.548  0.00  0.00    +0.025 A 
ENDBRANCH  16  17
ENDBRANCH   1  16
TORSDOF 4
