REMARK  Name = ZINC15760214
REMARK  14 active torsions:
REMARK  status: ('A' for Active; 'I' for Inactive)
REMARK    1  A    between atoms: C_1  and  C_2
REMARK    2  A    between atoms: C_2  and  C_3
REMARK    3  A    between atoms: C_2  and  C_4
REMARK    4  A    between atoms: C_2  and  C_5
REMARK    5  A    between atoms: C_12  and  C_14
REMARK    6  A    between atoms: N_16  and  N_17
REMARK    7  A    between atoms: C_18  and  C_20
REMARK    8  A    between atoms: C_22  and  O_33
REMARK    9  A    between atoms: C_23  and  O_28
REMARK   10  A    between atoms: C_24  and  O_26
REMARK   11  A    between atoms: O_26  and  C_27
REMARK   12  A    between atoms: O_28  and  C_29
REMARK   13  A    between atoms: C_29  and  C_30
REMARK   14  A    between atoms: O_33  and  C_34
REMARK                            x       y       z     vdW  Elec       q    Type
REMARK                         _______ _______ _______ _____ _____    ______ ____
ROOT
ATOM      1  N   UNL     1      -2.394   1.154   0.020  0.00  0.00    -0.230 N 
ATOM      2  C   UNL     1      -3.571   1.812   0.029  0.00  0.00    +0.260 C 
ATOM      3  O   UNL     1      -3.587   3.027   0.035  0.00  0.00    -0.269 OA
ATOM      4  H   UNL     1      -2.381   0.184   0.014  0.00  0.00    +0.173 HD
ENDROOT
BRANCH   2   5
ATOM      5  C   UNL     1      -4.839   1.056   0.031  0.00  0.00    +0.045 A 
ATOM      6  C   UNL     1      -4.821  -0.340   0.017  0.00  0.00    +0.062 A 
ATOM      7  C   UNL     1      -6.010  -1.046   0.025  0.00  0.00    +0.166 A 
ATOM      8  C   UNL     1      -7.225  -0.365   0.034  0.00  0.00    +0.204 A 
ATOM      9  C   UNL     1      -7.245   1.028   0.042  0.00  0.00    +0.166 A 
ATOM     10  C   UNL     1      -6.059   1.737   0.040  0.00  0.00    +0.062 A 
BRANCH   9  11
ATOM     11  O   UNL     1      -8.433   1.690   0.051  0.00  0.00    -0.491 OA
ATOM     12  C   UNL     1      -8.379   3.118   0.058  0.00  0.00    +0.277 C 
ENDBRANCH   9  11
BRANCH   7  13
ATOM     13  O   UNL     1      -5.994  -2.405   0.017  0.00  0.00    -0.491 OA
ATOM     14  C   UNL     1      -4.713  -3.039   0.008  0.00  0.00    +0.277 C 
ENDBRANCH   7  13
BRANCH   8  15
ATOM     15  O   UNL     1      -8.392  -1.060   0.037  0.00  0.00    -0.476 OA
BRANCH  15  16
ATOM     16  C   UNL     1      -8.956  -1.385  -1.236  0.00  0.00    +0.324 C 
BRANCH  16  17
ATOM     17  C   UNL     1     -10.239  -2.151  -1.036  0.00  0.00    +0.248 C 
ATOM     18  O   UNL     1     -10.631  -2.394   0.086  0.00  0.00    -0.272 OA
ATOM     19  N   UNL     1     -10.950  -2.565  -2.103  0.00  0.00    -0.327 N 
ATOM     20  H   UNL     1     -10.636  -2.370  -3.000  0.00  0.00    +0.145 HD
ATOM     21  H   UNL     1     -11.775  -3.058  -1.974  0.00  0.00    +0.145 HD
ENDBRANCH  16  17
ENDBRANCH  15  16
ENDBRANCH   8  15
ENDBRANCH   2   5
BRANCH   1  24
ATOM     22  C   UNL     1      -0.014   1.213   0.009  0.00  0.00    +0.267 C 
ATOM     23  O   UNL     1       0.002  -0.004   0.002  0.00  0.00    -0.268 OA
ATOM     24  N   UNL     1      -1.191   1.871   0.018  0.00  0.00    -0.230 N 
ATOM     25  H   UNL     1      -1.204   2.841   0.023  0.00  0.00    +0.173 HD
BRANCH  22  32
ATOM     26  C   UNL     1       5.886   3.191  -0.501  0.00  0.00    -0.001 C 
ATOM     27  C   UNL     1       5.558   4.422   0.349  0.00  0.00    +0.009 C 
ATOM     28  C   UNL     1       4.147   4.909  -0.010  0.00  0.00    +0.043 C 
ATOM     29  C   UNL     1       3.225   3.729  -0.008  0.00  0.00    -0.006 A 
ATOM     30  C   UNL     1       3.578   2.409  -0.019  0.00  0.00    -0.036 A 
ATOM     31  C   UNL     1       2.543   1.487  -0.014  0.00  0.00    +0.024 A 
ATOM     32  C   UNL     1       1.245   1.963   0.001  0.00  0.00    +0.076 A 
ATOM     33  S   UNL     1       1.503   3.729  -0.000  0.00  0.00    -0.088 S 
ATOM     34  C   UNL     1       5.048   1.999  -0.037  0.00  0.00    +0.040 C 
BRANCH  26  36
ATOM     35  C   UNL     1       7.703   1.632  -1.215  0.00  0.00    +0.011 C 
ATOM     36  C   UNL     1       7.371   2.855  -0.357  0.00  0.00    -0.035 C 
ATOM     37  C   UNL     1       8.211   4.046  -0.820  0.00  0.00    +0.011 C 
ATOM     38  C   UNL     1       7.685   2.549   1.109  0.00  0.00    +0.011 C 
ENDBRANCH  26  36
ENDBRANCH  22  32
ENDBRANCH   1  24
TORSDOF 9
