REMARK  Name = ZINC64959816
REMARK  5 active torsions:
REMARK  status: ('A' for Active; 'I' for Inactive)
REMARK    1  A    between atoms: C_1  and  C_2
REMARK    2  A    between atoms: C_9  and  C_15
REMARK    3  A    between atoms: N_17  and  C_18
REMARK    4  A    between atoms: C_22  and  C_25
REMARK    5  A    between atoms: C_23  and  C_24
REMARK                            x       y       z     vdW  Elec       q    Type
REMARK                         _______ _______ _______ _____ _____    ______ ____
ROOT
ATOM      1  C   UNL     1      -0.017   1.505   0.018  0.00  0.00    +0.044 C 
ATOM      2  C   UNL     1       0.008  -0.001   0.012  0.00  0.00    -0.049 A 
ATOM      3  C   UNL     1       0.022  -0.685  -1.190  0.00  0.00    +0.005 A 
ATOM      4  C   UNL     1       0.037  -2.068  -1.195  0.00  0.00    +0.030 A 
ATOM      5  C   UNL     1       0.043  -2.763  -0.004  0.00  0.00    +0.126 A 
ATOM      6  C   UNL     1       0.042  -2.087   1.209  0.00  0.00    +0.056 A 
ATOM      7  C   UNL     1       0.022  -0.693   1.205  0.00  0.00    +0.028 A 
ATOM      8  N   UNL     1       0.088  -2.754   2.429  0.00  0.00    -0.319 N 
ATOM      9  C   UNL     1      -0.321  -4.146   2.600  0.00  0.00    +0.247 C 
ATOM     10  N   UNL     1       0.344  -4.965   1.567  0.00  0.00    -0.161 NA
ATOM     11  S   UNL     1       0.042  -4.530  -0.015  0.00  0.00    +0.062 S 
ATOM     12  O   UNL     1       1.167  -4.941  -0.781  0.00  0.00    -0.153 OA
ATOM     13  O   UNL     1      -1.284  -4.943  -0.313  0.00  0.00    -0.153 OA
ATOM     14  H   UNL     1       0.410  -2.271   3.207  0.00  0.00    +0.148 HD
ATOM     15  H   UNL     1       0.922  -5.711   1.794  0.00  0.00    +0.151 HD
ENDROOT
BRANCH   9  16
ATOM     16  C   UNL     1      -1.817  -4.255   2.449  0.00  0.00    +0.254 C 
ATOM     17  O   UNL     1      -2.445  -3.340   1.960  0.00  0.00    -0.272 OA
ATOM     18  N   UNL     1      -2.456  -5.369   2.858  0.00  0.00    -0.283 N 
ATOM     19  H   UNL     1      -1.947  -6.131   3.175  0.00  0.00    +0.155 HD
BRANCH  18  20
ATOM     20  C   UNL     1      -3.854  -5.425   2.826  0.00  0.00    +0.037 A 
ATOM     21  C   UNL     1      -4.599  -4.254   2.884  0.00  0.00    +0.023 A 
ATOM     22  C   UNL     1      -5.978  -4.313   2.852  0.00  0.00    +0.002 A 
ATOM     23  C   UNL     1      -6.618  -5.536   2.763  0.00  0.00    +0.004 A 
ATOM     24  C   UNL     1      -5.879  -6.703   2.706  0.00  0.00    -0.046 A 
ATOM     25  C   UNL     1      -4.499  -6.651   2.731  0.00  0.00    -0.026 A 
ATOM     26  C   UNL     1      -3.694  -7.923   2.661  0.00  0.00    +0.046 C 
ATOM     27  C   UNL     1      -6.580  -8.034   2.610  0.00  0.00    +0.044 C 
ENDBRANCH  18  20
ENDBRANCH   9  16
TORSDOF 2
