REMARK  Name = ZINC40167695
REMARK  5 active torsions:
REMARK  status: ('A' for Active; 'I' for Inactive)
REMARK    1  A    between atoms: C_3  and  N_8
REMARK    2  A    between atoms: C_6  and  N_7
REMARK    3  A    between atoms: N_8  and  C_9
REMARK    4  A    between atoms: C_9  and  N_11
REMARK    5  A    between atoms: N_11  and  C_12
REMARK                            x       y       z     vdW  Elec       q    Type
REMARK                         _______ _______ _______ _____ _____    ______ ____
ROOT
ATOM      1  C   UNL     1       4.760   1.476   0.064  0.00  0.00    +0.135 C 
ATOM      2  S   UNL     1       4.789  -0.236   0.056  0.00  0.00    -0.019 S 
ENDROOT
BRANCH   1   3
ATOM      3  N   UNL     1       3.585   2.131  -0.022  0.00  0.00    -0.297 N 
ATOM      4  H   UNL     1       3.573   3.097  -0.098  0.00  0.00    +0.154 HD
BRANCH   3   7
ATOM      5  C   UNL     1       1.030  -0.350   0.902  0.00  0.00    +0.024 A 
ATOM      6  C   UNL     1       2.217   0.356   0.882  0.00  0.00    +0.025 A 
ATOM      7  C   UNL     1       2.381   1.414  -0.002  0.00  0.00    +0.033 A 
ATOM      8  C   UNL     1       1.351   1.763  -0.866  0.00  0.00    +0.025 A 
ATOM      9  C   UNL     1       0.164   1.058  -0.846  0.00  0.00    +0.024 A 
ATOM     10  C   UNL     1       0.001  -0.001   0.038  0.00  0.00    +0.025 A 
BRANCH  10  11
ATOM     11  N   UNL     1      -1.202  -0.716   0.058  0.00  0.00    -0.358 N 
ATOM     12  H   UNL     1      -1.316  -1.455   0.676  0.00  0.00    +0.142 HD
ATOM     13  H   UNL     1      -1.921  -0.472  -0.545  0.00  0.00    +0.142 HD
ENDBRANCH  10  11
ENDBRANCH   3   7
ENDBRANCH   1   3
BRANCH   1  14
ATOM     14  N   UNL     1       5.912   2.169   0.158  0.00  0.00    -0.320 N 
ATOM     15  H   UNL     1       5.896   3.139   0.163  0.00  0.00    +0.148 HD
BRANCH  14  16
ATOM     16  C   UNL     1       7.189   1.458   0.252  0.00  0.00    +0.112 C 
ATOM     17  C   UNL     1       7.653   1.085  -1.174  0.00  0.00    +0.189 C 
ATOM     18  S   UNL     1       8.865   2.432  -1.523  0.00  0.00    -0.028 S 
ATOM     19  O   UNL     1       9.929   1.916  -2.312  0.00  0.00    -0.174 OA
ATOM     20  O   UNL     1       8.168   3.593  -1.953  0.00  0.00    -0.174 OA
ATOM     21  C   UNL     1       9.452   2.676   0.210  0.00  0.00    +0.187 C 
ATOM     22  C   UNL     1       8.178   2.332   1.008  0.00  0.00    +0.123 C 
ATOM     23 CL   UNL     1       8.664   1.478   2.519  0.00  0.00    -0.118 Cl
ENDBRANCH  14  16
ENDBRANCH   1  14
TORSDOF 5
