REMARK  Name = ZINC21689048
REMARK  9 active torsions:
REMARK  status: ('A' for Active; 'I' for Inactive)
REMARK    1  A    between atoms: C_1  and  C_2
REMARK    2  A    between atoms: C_10  and  C_11
REMARK    3  A    between atoms: C_11  and  C_12
REMARK    4  A    between atoms: C_12  and  O_14
REMARK    5  A    between atoms: O_14  and  C_15
REMARK    6  A    between atoms: C_15  and  C_17
REMARK    7  A    between atoms: C_15  and  C_18
REMARK    8  A    between atoms: N_20  and  C_21
REMARK    9  A    between atoms: C_24  and  N_27
REMARK                            x       y       z     vdW  Elec       q    Type
REMARK                         _______ _______ _______ _____ _____    ______ ____
ROOT
ATOM      1  C   UNL     1       1.279   2.115  -0.006  0.00  0.00    +0.259 C 
ATOM      2  C   UNL     1       2.006   1.860  -1.327  0.00  0.00    +0.062 C 
ENDROOT
BRANCH   1   3
ATOM      3  C   UNL     1      -0.016   1.343   0.011  0.00  0.00    +0.258 C 
ATOM      4  O   UNL     1      -1.074   1.936   0.028  0.00  0.00    -0.271 OA
ATOM      5  N   UNL     1       0.002  -0.004   0.002  0.00  0.00    -0.282 N 
ATOM      6  H   UNL     1       0.958  -0.541  -0.094  0.00  0.00    +0.155 HD
BRANCH   5   7
ATOM      7  C   UNL     1      -1.194  -0.721   0.115  0.00  0.00    +0.034 A 
ATOM      8  C   UNL     1      -1.220  -1.928   0.800  0.00  0.00    +0.025 A 
ATOM      9  C   UNL     1      -2.404  -2.631   0.914  0.00  0.00    +0.034 A 
ATOM     10  C   UNL     1      -3.560  -2.138   0.338  0.00  0.00    +0.126 A 
ATOM     11  C   UNL     1      -3.537  -0.938  -0.349  0.00  0.00    +0.034 A 
ATOM     12  C   UNL     1      -2.357  -0.229  -0.462  0.00  0.00    +0.025 A 
BRANCH  10  13
ATOM     13  N   UNL     1      -4.826  -2.896   0.458  0.00  0.00    +0.056 N 
ATOM     14  O   UNL     1      -5.845  -2.463  -0.049  0.00  0.00    -0.126 OA
ATOM     15  O   UNL     1      -4.848  -3.953   1.063  0.00  0.00    -0.126 OA
ENDBRANCH  10  13
ENDBRANCH   5   7
ENDBRANCH   1   3
BRANCH   1  16
ATOM     16  O   UNL     1       0.999   3.533   0.127  0.00  0.00    -0.452 OA
BRANCH  16  17
ATOM     17  C   UNL     1       1.933   4.284   0.732  0.00  0.00    +0.312 C 
ATOM     18  O   UNL     1       2.950   3.773   1.137  0.00  0.00    -0.250 OA
BRANCH  17  19
ATOM     19  C   UNL     1       1.712   5.765   0.906  0.00  0.00    +0.159 C 
BRANCH  19  29
ATOM     20  C   UNL     1       8.042   8.387   0.192  0.00  0.00    +0.044 C 
ATOM     21  C   UNL     1       6.669   7.838   0.482  0.00  0.00    -0.047 A 
ATOM     22  C   UNL     1       5.886   7.361  -0.560  0.00  0.00    +0.004 A 
ATOM     23  C   UNL     1       4.638   6.858  -0.315  0.00  0.00    +0.012 A 
ATOM     24  C   UNL     1       4.151   6.825   0.991  0.00  0.00    +0.024 A 
ATOM     25  C   UNL     1       4.938   7.309   2.050  0.00  0.00    +0.135 A 
ATOM     26  C   UNL     1       6.201   7.820   1.778  0.00  0.00    +0.050 A 
ATOM     27  O   UNL     1       4.226   7.149   3.183  0.00  0.00    -0.463 OA
ATOM     28  C   UNL     1       3.027   6.597   2.923  0.00  0.00    +0.200 A 
ATOM     29  C   UNL     1       2.900   6.371   1.609  0.00  0.00    +0.009 A 
ENDBRANCH  19  29
ENDBRANCH  17  19
ENDBRANCH  16  17
ENDBRANCH   1  16
TORSDOF 7
