REMARK  Name = ZINC35953998
REMARK  12 active torsions:
REMARK  status: ('A' for Active; 'I' for Inactive)
REMARK    1  A    between atoms: C_1  and  C_2
REMARK    2  A    between atoms: C_5  and  C_8
REMARK    3  A    between atoms: C_10  and  C_21
REMARK    4  A    between atoms: C_15  and  C_17
REMARK    5  A    between atoms: C_17  and  C_18
REMARK    6  A    between atoms: C_17  and  C_19
REMARK    7  A    between atoms: C_17  and  C_20
REMARK    8  A    between atoms: N_23  and  C_24
REMARK    9  A    between atoms: C_24  and  C_26
REMARK   10  A    between atoms: C_24  and  C_27
REMARK   11  A    between atoms: C_27  and  C_28
REMARK   12  A    between atoms: C_27  and  C_29
REMARK                            x       y       z     vdW  Elec       q    Type
REMARK                         _______ _______ _______ _____ _____    ______ ____
ROOT
ATOM      1  C   UNL     1       0.060  -4.254  -0.021  0.00  0.00    +0.076 A 
ATOM      2  C   UNL     1       0.070  -4.965   1.199  0.00  0.00    +0.061 A 
ATOM      3  C   UNL     1       0.087  -6.330   1.174  0.00  0.00    +0.131 A 
ATOM      4  N   UNL     1       0.095  -6.974  -0.044  0.00  0.00    -0.209 N 
ATOM      5  C   UNL     1       0.085  -6.240  -1.205  0.00  0.00    +0.157 A 
ATOM      6  N   UNL     1       0.062  -4.906  -1.169  0.00  0.00    -0.228 NA
ATOM      7  C   UNL     1       0.096  -7.152  -2.257  0.00  0.00    +0.073 A 
ATOM      8  C   UNL     1       0.113  -8.424  -1.710  0.00  0.00    +0.071 A 
ATOM      9  N   UNL     1       0.112  -8.328  -0.398  0.00  0.00    -0.169 NA
ENDROOT
BRANCH   1  14
ATOM     10  C   UNL     1      -0.018   1.503   0.010  0.00  0.00    +0.044 C 
ATOM     11  C   UNL     1       0.002  -0.004   0.002  0.00  0.00    -0.050 A 
ATOM     12  C   UNL     1       0.006  -0.686  -1.202  0.00  0.00    +0.004 A 
ATOM     13  C   UNL     1       0.024  -2.066  -1.216  0.00  0.00    +0.010 A 
ATOM     14  C   UNL     1       0.040  -2.773  -0.013  0.00  0.00    +0.001 A 
ATOM     15  C   UNL     1       0.037  -2.079   1.197  0.00  0.00    +0.010 A 
ATOM     16  C   UNL     1       0.023  -0.699   1.198  0.00  0.00    +0.004 A 
ENDBRANCH   1  14
BRANCH   8  17
ATOM     17  C   UNL     1       0.128  -9.712  -2.492  0.00  0.00    +0.006 C 
ATOM     18  C   UNL     1       1.524  -9.937  -3.077  0.00  0.00    +0.017 C 
ATOM     19  C   UNL     1      -0.230 -10.876  -1.565  0.00  0.00    +0.017 C 
ATOM     20  C   UNL     1      -0.894  -9.632  -3.627  0.00  0.00    +0.017 C 
ENDBRANCH   8  17
BRANCH   3  21
ATOM     21  C   UNL     1       0.099  -7.103   2.431  0.00  0.00    +0.263 C 
ATOM     22  O   UNL     1       0.092  -6.525   3.500  0.00  0.00    -0.269 OA
ATOM     23  N   UNL     1       0.116  -8.450   2.393  0.00  0.00    -0.307 N 
ATOM     24  H   UNL     1       0.121  -8.912   1.540  0.00  0.00    +0.149 HD
BRANCH  23  25
ATOM     25  C   UNL     1       0.127  -9.218   3.641  0.00  0.00    +0.073 C 
ATOM     26  C   UNL     1       1.566  -9.359   4.140  0.00  0.00    +0.028 C 
BRANCH  25  27
ATOM     27  C   UNL     1      -0.465 -10.606   3.391  0.00  0.00    +0.003 C 
ATOM     28  C   UNL     1       0.440 -11.381   2.431  0.00  0.00    +0.009 C 
ATOM     29  C   UNL     1      -0.569 -11.363   4.717  0.00  0.00    +0.009 C 
ENDBRANCH  25  27
ENDBRANCH  23  25
ENDBRANCH   3  21
TORSDOF 5
