REMARK  Name = ZINC64024238
REMARK  4 active torsions:
REMARK  status: ('A' for Active; 'I' for Inactive)
REMARK    1  A    between atoms: C_1  and  C_2
REMARK    2  A    between atoms: C_7  and  C_8
REMARK    3  A    between atoms: C_23  and  C_25
REMARK    4  A    between atoms: N_31  and  C_33
REMARK                            x       y       z     vdW  Elec       q    Type
REMARK                         _______ _______ _______ _____ _____    ______ ____
ROOT
ATOM      1  C   UNL     1       0.102  -0.126   2.594  0.00  0.00    +0.133 C 
ATOM      2  C   UNL     1      -1.340   0.020   3.095  0.00  0.00    +0.131 C 
ATOM      3  C   UNL     1      -1.253   0.385   4.571  0.00  0.00    -0.035 C 
ATOM      4  C   UNL     1      -1.927   1.520   4.717  0.00  0.00    -0.001 A 
ATOM      5  C   UNL     1      -2.252   2.319   5.909  0.00  0.00    +0.010 A 
ATOM      6  C   UNL     1      -2.965   3.456   5.692  0.00  0.00    +0.001 A 
ATOM      7  C   UNL     1      -3.382   3.872   4.424  0.00  0.00    +0.002 A 
ATOM      8  C   UNL     1      -3.131   3.197   3.274  0.00  0.00    +0.026 A 
ATOM      9  C   UNL     1      -2.393   1.982   3.374  0.00  0.00    +0.043 A 
ATOM     10  N   UNL     1      -2.036   1.125   2.433  0.00  0.00    -0.375 N 
ATOM     11  C   UNL     1      -0.453  -0.426   5.561  0.00  0.00    +0.052 C 
ATOM     12  C   UNL     1       0.950  -0.609   4.953  0.00  0.00    +0.113 C 
ATOM     13  N   UNL     1       0.824  -0.989   3.542  0.00  0.00    -0.290 N 
ATOM     14  C   UNL     1       1.374  -2.141   3.110  0.00  0.00    +0.239 C 
ATOM     15  O   UNL     1       1.324  -2.433   1.934  0.00  0.00    -0.273 OA
ATOM     16  H   UNL     1      -2.195   1.206   1.480  0.00  0.00    +0.160 HD
ENDROOT
BRANCH  14  17
ATOM     17  C   UNL     1       2.052  -3.066   4.088  0.00  0.00    +0.182 C 
ATOM     18  C   UNL     1       3.192  -2.340   4.756  0.00  0.00    +0.007 C 
ATOM     19  C   UNL     1       4.384  -2.325   4.154  0.00  0.00    +0.066 C 
ATOM     20  C   UNL     1       4.510  -3.029   2.863  0.00  0.00    +0.252 C 
ATOM     21  O   UNL     1       5.441  -2.791   2.117  0.00  0.00    -0.269 OA
ATOM     22  N   UNL     1       3.576  -3.941   2.525  0.00  0.00    -0.236 N 
ATOM     23  N   UNL     1       2.558  -4.241   3.375  0.00  0.00    -0.222 NA
ATOM     24  C   UNL     1       3.659  -4.615   1.227  0.00  0.00    +0.153 C 
ATOM     25  H   UNL     1       2.829  -4.967   4.021  0.00  0.00    +0.146 HD
ENDBRANCH  14  17
BRANCH   1  32
ATOM     26  C   UNL     1       2.396   0.186   0.866  0.00  0.00    +0.044 C 
ATOM     27  C   UNL     1       1.203  -0.608   0.399  0.00  0.00    -0.045 A 
ATOM     28  C   UNL     1       1.208  -1.191  -0.855  0.00  0.00    +0.004 A 
ATOM     29  C   UNL     1       0.114  -1.919  -1.283  0.00  0.00    +0.000 A 
ATOM     30  C   UNL     1      -0.986  -2.063  -0.458  0.00  0.00    +0.000 A 
ATOM     31  C   UNL     1      -0.991  -1.481   0.795  0.00  0.00    +0.006 A 
ATOM     32  C   UNL     1       0.105  -0.757   1.226  0.00  0.00    -0.022 A 
ENDBRANCH   1  32
TORSDOF 2
