REMARK  Name = ZINC21008043
REMARK  3 active torsions:
REMARK  status: ('A' for Active; 'I' for Inactive)
REMARK    1  A    between atoms: C_9  and  C_11
REMARK    2  A    between atoms: N_13  and  N_14
REMARK    3  A    between atoms: C_15  and  C_17
REMARK                            x       y       z     vdW  Elec       q    Type
REMARK                         _______ _______ _______ _____ _____    ______ ____
ROOT
ATOM      1  C   UNL     1      -1.187   1.624   0.017  0.00  0.00    +0.278 C 
ATOM      2  O   UNL     1      -1.204   2.839   0.023  0.00  0.00    -0.267 OA
ATOM      3  N   UNL     1      -0.011   0.966   0.007  0.00  0.00    -0.229 N 
ATOM      4  H   UNL     1       0.004  -0.134   0.006  0.00  0.00    +0.173 HD
ENDROOT
BRANCH   1  13
ATOM      5  C   UNL     1      -5.897  -2.656   0.015  0.00  0.00    +0.001 A 
ATOM      6  C   UNL     1      -4.659  -3.296   0.005  0.00  0.00    +0.002 A 
ATOM      7  C   UNL     1      -3.500  -2.584   0.005  0.00  0.00    +0.028 A 
ATOM      8  C   UNL     1      -3.545  -1.176   0.012  0.00  0.00    +0.072 A 
ATOM      9  C   UNL     1      -4.808  -0.527   0.022  0.00  0.00    +0.000 A 
ATOM     10  C   UNL     1      -5.982  -1.297   0.023  0.00  0.00    +0.010 A 
ATOM     11  C   UNL     1      -4.856   0.879   0.030  0.00  0.00    +0.012 A 
ATOM     12  C   UNL     1      -3.676   1.566   0.028  0.00  0.00    +0.034 A 
ATOM     13  C   UNL     1      -2.461   0.865   0.018  0.00  0.00    +0.127 A 
ATOM     14  N   UNL     1      -2.426  -0.454   0.006  0.00  0.00    -0.242 NA
ENDBRANCH   1  13
BRANCH   3  15
ATOM     15  N   UNL     1       1.193   1.683  -0.000  0.00  0.00    -0.230 N 
ATOM     16  C   UNL     1       2.369   1.025  -0.015  0.00  0.00    +0.267 C 
ATOM     17  O   UNL     1       2.385  -0.192  -0.022  0.00  0.00    -0.268 OA
ATOM     18  H   UNL     1       1.178   2.783   0.006  0.00  0.00    +0.173 HD
BRANCH  16  19
ATOM     19  C   UNL     1       3.627   1.774  -0.023  0.00  0.00    +0.077 A 
ATOM     20  C   UNL     1       4.929   1.297  -0.038  0.00  0.00    +0.022 A 
ATOM     21  C   UNL     1       5.936   2.228  -0.043  0.00  0.00    +0.028 A 
ATOM     22  C   UNL     1       5.618   3.550  -0.033  0.00  0.00    +0.079 A 
ATOM     23  S   UNL     1       3.884   3.540  -0.024  0.00  0.00    -0.072 S 
ATOM     24 CL   UNL     1       6.688   4.918  -0.036  0.00  0.00    -0.076 Cl
ENDBRANCH  16  19
ENDBRANCH   3  15
TORSDOF 3
