REMARK  Name = ZINC39957834
REMARK  3 active torsions:
REMARK  status: ('A' for Active; 'I' for Inactive)
REMARK    1  A    between atoms: C_4  and  C_7
REMARK    2  A    between atoms: C_9  and  C_24
REMARK    3  A    between atoms: C_12  and  C_18
REMARK                            x       y       z     vdW  Elec       q    Type
REMARK                         _______ _______ _______ _____ _____    ______ ____
ROOT
ATOM      1  C   UNL     1       3.711  -0.707  -0.038  0.00  0.00    +0.134 C 
ATOM      2  C   UNL     1       3.789  -1.580  -1.264  0.00  0.00    +0.083 C 
ATOM      3  N   UNL     1       3.302  -2.780  -1.365  0.00  0.00    -0.179 NA
ATOM      4  N   UNL     1       2.726  -3.449  -0.440  0.00  0.00    -0.176 N 
ATOM      5  C   UNL     1       1.865  -4.629  -0.537  0.00  0.00    +0.228 C 
ATOM      6  N   UNL     1       1.448  -4.884   0.854  0.00  0.00    -0.242 N 
ATOM      7  N   UNL     1       2.088  -3.913   1.639  0.00  0.00    -0.161 NA
ATOM      8  C   UNL     1       2.801  -3.131   0.921  0.00  0.00    +0.196 C 
ATOM      9  S   UNL     1       3.837  -1.780   1.436  0.00  0.00    -0.073 S 
ATOM     10  H   UNL     1       0.851  -5.583   1.165  0.00  0.00    +0.170 HD
ENDROOT
BRANCH   2  11
ATOM     11  C   UNL     1       4.438  -1.057  -2.383  0.00  0.00    +0.005 C 
ATOM     12  C   UNL     1       4.624  -1.680  -3.621  0.00  0.00    +0.005 A 
ATOM     13  C   UNL     1       4.248  -2.945  -4.117  0.00  0.00    +0.010 A 
ATOM     14  C   UNL     1       4.569  -3.292  -5.391  0.00  0.00    +0.001 A 
ATOM     15  C   UNL     1       5.267  -2.423  -6.231  0.00  0.00    +0.002 A 
ATOM     16  C   UNL     1       5.660  -1.192  -5.819  0.00  0.00    +0.026 A 
ATOM     17  C   UNL     1       5.360  -0.760  -4.502  0.00  0.00    +0.043 A 
ATOM     18  N   UNL     1       5.625   0.369  -3.873  0.00  0.00    -0.380 N 
ATOM     19  C   UNL     1       5.082   0.306  -2.513  0.00  0.00    +0.150 C 
ATOM     20  H   UNL     1       6.101   1.125  -4.252  0.00  0.00    +0.160 HD
ENDBRANCH   2  11
BRANCH   1  24
ATOM     21  C   UNL     1      -0.017   1.378   0.010  0.00  0.00    +0.000 A 
ATOM     22  C   UNL     1       1.171   2.086   0.002  0.00  0.00    +0.000 A 
ATOM     23  C   UNL     1       2.377   1.411  -0.013  0.00  0.00    +0.005 A 
ATOM     24  C   UNL     1       2.396   0.029  -0.020  0.00  0.00    -0.028 A 
ATOM     25  C   UNL     1       1.208  -0.679  -0.012  0.00  0.00    +0.005 A 
ATOM     26  C   UNL     1       0.002  -0.004   0.002  0.00  0.00    +0.000 A 
ENDBRANCH   1  24
BRANCH   5  27
ATOM     27  C   UNL     1       2.649  -5.820  -1.092  0.00  0.00    +0.160 C 
ATOM     28  C   UNL     1       1.700  -7.020  -1.302  0.00  0.00    +0.037 C 
ATOM     29  C   UNL     1       2.579  -8.218  -0.850  0.00  0.00    +0.031 C 
ATOM     30  C   UNL     1       3.403  -7.566   0.288  0.00  0.00    +0.160 C 
ATOM     31  O   UNL     1       3.654  -6.220  -0.153  0.00  0.00    -0.373 OA
ENDBRANCH   5  27
TORSDOF 3
