REMARK  Name = ZINC12402070
REMARK  5 active torsions:
REMARK  status: ('A' for Active; 'I' for Inactive)
REMARK    1  A    between atoms: C_1  and  C_2
REMARK    2  A    between atoms: C_2  and  C_30
REMARK    3  A    between atoms: C_7  and  C_10
REMARK    4  A    between atoms: C_15  and  O_16
REMARK    5  A    between atoms: N_20  and  C_23
REMARK                            x       y       z     vdW  Elec       q    Type
REMARK                         _______ _______ _______ _____ _____    ______ ____
ROOT
ATOM      1  C   UNL     1       0.007   1.533  -0.056  0.00  0.00    +0.002 C 
ATOM      2  C   UNL     1       0.027   0.004  -0.079  0.00  0.00    +0.045 C 
ATOM      3  C   UNL     1       0.782  -0.507  -1.302  0.00  0.00    +0.086 C 
ATOM      4  C   UNL     1       2.234  -0.181  -0.786  0.00  0.00    +0.077 C 
ATOM      5  C   UNL     1       2.246  -0.732   0.575  0.00  0.00    -0.023 C 
ATOM      6  N   UNL     1       0.833  -0.533   1.066  0.00  0.00    +0.395 N 
ATOM      7  C   UNL     1       3.003  -0.230  -2.006  0.00  0.00    +0.229 C 
ATOM      8  O   UNL     1       4.151  -0.597  -2.141  0.00  0.00    -0.275 OA
ATOM      9  N   UNL     1       2.153   0.230  -2.980  0.00  0.00    -0.210 N 
ATOM     10  C   UNL     1       0.839   0.294  -2.564  0.00  0.00    +0.229 C 
ATOM     11  O   UNL     1      -0.079   0.878  -3.099  0.00  0.00    -0.275 OA
ATOM     12  H   UNL     1       0.818   0.123   1.832  0.00  0.00    -0.083 HD
ATOM     13  H   UNL     1       0.455  -1.419   1.365  0.00  0.00    -0.083 HD
ENDROOT
BRANCH   5  14
ATOM     14  C   UNL     1       2.618  -2.192   0.548  0.00  0.00    -0.018 A 
ATOM     15  C   UNL     1       1.631  -3.156   0.476  0.00  0.00    +0.020 A 
ATOM     16  C   UNL     1       1.973  -4.496   0.451  0.00  0.00    +0.018 A 
ATOM     17  C   UNL     1       3.303  -4.874   0.499  0.00  0.00    +0.019 A 
ATOM     18  C   UNL     1       4.293  -3.913   0.571  0.00  0.00    +0.047 A 
ATOM     19  C   UNL     1       3.953  -2.568   0.591  0.00  0.00    +0.119 A 
ATOM     20 BR   UNL     1       0.620  -5.813   0.352  0.00  0.00    -0.050 Br
BRANCH  19  21
ATOM     21  O   UNL     1       4.925  -1.621   0.657  0.00  0.00    -0.507 OA
ATOM     22  H   UNL     1       5.171  -1.372   1.558  0.00  0.00    +0.292 HD
ENDBRANCH  19  21
ENDBRANCH   5  14
BRANCH   9  23
ATOM     23  C   UNL     1       2.570   0.587  -4.270  0.00  0.00    +0.045 A 
ATOM     24  C   UNL     1       1.646   1.050  -5.197  0.00  0.00    +0.024 A 
ATOM     25  C   UNL     1       2.060   1.402  -6.467  0.00  0.00    +0.003 A 
ATOM     26  C   UNL     1       3.393   1.294  -6.816  0.00  0.00    +0.020 A 
ATOM     27  C   UNL     1       4.317   0.833  -5.895  0.00  0.00    +0.043 A 
ATOM     28  C   UNL     1       3.909   0.484  -4.621  0.00  0.00    +0.044 A 
ATOM     29 CL   UNL     1       5.990   0.697  -6.337  0.00  0.00    -0.083 Cl
ENDBRANCH   9  23
BRANCH   2  30
ATOM     30  C   UNL     1      -1.376  -0.546  -0.046  0.00  0.00    +0.346 C 
ATOM     31  O   UNL     1      -2.158  -0.274  -0.941  0.00  0.00    -0.248 OA
ATOM     32  O   UNL     1      -1.728  -1.263   0.875  0.00  0.00    -0.248 OA
ENDBRANCH   2  30
TORSDOF 4
