REMARK  Name = ZINC28788080
REMARK  8 active torsions:
REMARK  status: ('A' for Active; 'I' for Inactive)
REMARK    1  A    between atoms: C_1  and  C_2
REMARK    2  A    between atoms: C_9  and  C_13
REMARK    3  A    between atoms: C_10  and  C_12
REMARK    4  A    between atoms: N_15  and  N_16
REMARK    5  A    between atoms: C_17  and  C_19
REMARK    6  A    between atoms: C_19  and  O_20
REMARK    7  A    between atoms: O_20  and  C_21
REMARK    8  A    between atoms: C_26  and  C_27
REMARK                            x       y       z     vdW  Elec       q    Type
REMARK                         _______ _______ _______ _____ _____    ______ ____
ROOT
ATOM      1  C   UNL     1      -4.239   7.328  -0.440  0.00  0.00    +0.262 C 
ATOM      2  O   UNL     1      -3.298   8.097  -0.459  0.00  0.00    -0.269 OA
ATOM      3  N   UNL     1      -4.039   6.013  -0.660  0.00  0.00    -0.230 N 
ATOM      4  H   UNL     1      -4.890   5.316  -0.643  0.00  0.00    +0.173 HD
ENDROOT
BRANCH   1  13
ATOM      5  C   UNL     1     -11.580   6.410   0.068  0.00  0.00    +0.044 C 
ATOM      6  C   UNL     1     -10.343   7.266   0.159  0.00  0.00    -0.050 A 
ATOM      7  C   UNL     1     -10.461   8.609   0.510  0.00  0.00    +0.005 A 
ATOM      8  C   UNL     1      -9.364   9.410   0.602  0.00  0.00    +0.028 A 
ATOM      9  C   UNL     1      -8.089   8.882   0.340  0.00  0.00    +0.071 A 
ATOM     10  C   UNL     1      -7.971   7.515  -0.018  0.00  0.00    +0.001 A 
ATOM     11  C   UNL     1      -9.125   6.717  -0.103  0.00  0.00    +0.013 A 
ATOM     12  C   UNL     1      -6.697   6.983  -0.281  0.00  0.00    +0.025 A 
ATOM     13  C   UNL     1      -5.602   7.833  -0.175  0.00  0.00    +0.060 A 
ATOM     14  C   UNL     1      -5.801   9.175   0.191  0.00  0.00    +0.051 A 
ATOM     15  N   UNL     1      -6.997   9.650   0.426  0.00  0.00    -0.251 NA
ATOM     16  C   UNL     1      -4.609  10.090   0.310  0.00  0.00    +0.066 C 
ENDBRANCH   1  13
BRANCH   3  17
ATOM     17  N   UNL     1      -2.746   5.534  -0.911  0.00  0.00    -0.231 N 
ATOM     18  C   UNL     1      -2.546   4.219  -1.131  0.00  0.00    +0.267 C 
ATOM     19  O   UNL     1      -3.484   3.451  -1.112  0.00  0.00    -0.271 OA
ATOM     20  H   UNL     1      -1.895   6.231  -0.928  0.00  0.00    +0.173 HD
BRANCH  18  21
ATOM     21  C   UNL     1      -1.156   3.704  -1.401  0.00  0.00    +0.326 C 
BRANCH  21  22
ATOM     22  O   UNL     1      -1.203   2.290  -1.601  0.00  0.00    -0.481 OA
BRANCH  22  23
ATOM     23  C   UNL     1      -0.026   1.664  -1.858  0.00  0.00    +0.138 A 
ATOM     24  C   UNL     1       1.151   2.394  -1.922  0.00  0.00    +0.047 A 
ATOM     25  C   UNL     1       2.347   1.758  -2.188  0.00  0.00    +0.004 A 
ATOM     26  C   UNL     1       2.382   0.388  -2.393  0.00  0.00    +0.001 A 
ATOM     27  C   UNL     1       1.221  -0.353  -2.333  0.00  0.00    +0.022 A 
ATOM     28  C   UNL     1       0.004   0.279  -2.065  0.00  0.00    +0.093 A 
BRANCH  28  29
ATOM     29  C   UNL     1      -1.205  -0.486  -2.001  0.00  0.00    +0.103 C 
ATOM     30  N   UNL     1      -2.164  -1.092  -1.951  0.00  0.00    -0.191 NA
ENDBRANCH  28  29
ENDBRANCH  22  23
ENDBRANCH  21  22
ENDBRANCH  18  21
ENDBRANCH   3  17
TORSDOF 6
