REMARK  Name = ZINC39205288
REMARK  9 active torsions:
REMARK  status: ('A' for Active; 'I' for Inactive)
REMARK    1  A    between atoms: C_1  and  C_2
REMARK    2  A    between atoms: C_2  and  O_3
REMARK    3  A    between atoms: O_3  and  C_4
REMARK    4  A    between atoms: C_4  and  C_6
REMARK    5  A    between atoms: C_8  and  C_19
REMARK    6  A    between atoms: C_19  and  S_20
REMARK    7  A    between atoms: S_20  and  C_21
REMARK    8  A    between atoms: C_26  and  O_31
REMARK    9  A    between atoms: O_31  and  C_32
REMARK                            x       y       z     vdW  Elec       q    Type
REMARK                         _______ _______ _______ _____ _____    ______ ____
ROOT
ATOM      1  C   UNL     1      -2.881  -2.427   0.017  0.00  0.00    +0.202 C 
ATOM      2  C   UNL     1      -3.444  -2.494   1.456  0.00  0.00    +0.133 C 
ATOM      3  N   UNL     1      -4.117  -3.803   1.537  0.00  0.00    -0.226 N 
ATOM      4  N   UNL     1      -4.036  -4.408   0.307  0.00  0.00    -0.173 NA
ATOM      5  N   UNL     1      -2.845  -3.868  -0.363  0.00  0.00    -0.225 NA
ATOM      6  C   UNL     1      -4.728  -4.335   2.667  0.00  0.00    +0.222 A 
ATOM      7  C   UNL     1      -5.392  -5.641   2.751  0.00  0.00    +0.203 A 
ATOM      8  N   UNL     1      -5.844  -5.794   3.964  0.00  0.00    -0.032 NA
ATOM      9  O   UNL     1      -5.506  -4.634   4.703  0.00  0.00    -0.239 OA
ATOM     10  N   UNL     1      -4.804  -3.761   3.836  0.00  0.00    -0.030 NA
ATOM     11  N   UNL     1      -5.518  -6.558   1.713  0.00  0.00    -0.338 N 
ATOM     12  H   UNL     1      -4.867  -4.234  -0.237  0.00  0.00    +0.164 HD
ATOM     13  H   UNL     1      -2.911  -3.980  -1.363  0.00  0.00    +0.143 HD
ATOM     14  H   UNL     1      -5.148  -6.356   0.839  0.00  0.00    +0.144 HD
ATOM     15  H   UNL     1      -5.976  -7.400   1.863  0.00  0.00    +0.144 HD
ENDROOT
BRANCH   1  16
ATOM     16  C   UNL     1      -1.496  -1.832   0.006  0.00  0.00    +0.328 C 
ATOM     17  O   UNL     1      -0.528  -2.555  -0.007  0.00  0.00    -0.249 OA
BRANCH  16  18
ATOM     18  O   UNL     1      -1.339  -0.499   0.012  0.00  0.00    -0.464 OA
BRANCH  18  20
ATOM     19  C   UNL     1      -0.019   1.526   0.010  0.00  0.00    +0.048 C 
ATOM     20  C   UNL     1       0.002  -0.004   0.002  0.00  0.00    +0.229 C 
ENDBRANCH  18  20
ENDBRANCH  16  18
ENDBRANCH   1  16
BRANCH   2  21
ATOM     21  C   UNL     1      -4.448  -1.363   1.688  0.00  0.00    +0.103 C 
BRANCH  21  22
ATOM     22  S   UNL     1      -4.981  -1.374   3.422  0.00  0.00    -0.086 S 
BRANCH  22  23
ATOM     23  C   UNL     1      -6.118  -0.032   3.527  0.00  0.00    +0.167 A 
ATOM     24  N   UNL     1      -6.780   0.350   4.661  0.00  0.00    -0.333 N 
ATOM     25  H   UNL     1      -6.708  -0.063   5.535  0.00  0.00    +0.168 HD
ATOM     26  C   UNL     1      -7.572   1.437   4.327  0.00  0.00    +0.070 A 
ATOM     27  C   UNL     1      -8.451   2.239   5.040  0.00  0.00    +0.073 A 
ATOM     28  C   UNL     1      -9.108   3.275   4.401  0.00  0.00    +0.122 A 
ATOM     29  C   UNL     1      -8.892   3.516   3.047  0.00  0.00    +0.048 A 
ATOM     30  C   UNL     1      -8.022   2.727   2.329  0.00  0.00    +0.033 A 
ATOM     31  C   UNL     1      -7.351   1.677   2.962  0.00  0.00    +0.090 A 
ATOM     32  N   UNL     1      -6.451   0.752   2.532  0.00  0.00    -0.222 NA
BRANCH  28  33
ATOM     33  O   UNL     1      -9.971   4.061   5.098  0.00  0.00    -0.495 OA
ATOM     34  C   UNL     1     -10.617   5.114   4.378  0.00  0.00    +0.277 C 
ENDBRANCH  28  33
ENDBRANCH  22  23
ENDBRANCH  21  22
ENDBRANCH   2  21
TORSDOF 7
