REMARK  Name = ZINC44452616
REMARK  6 active torsions:
REMARK  status: ('A' for Active; 'I' for Inactive)
REMARK    1  A    between atoms: C_4  and  O_7
REMARK    2  A    between atoms: O_7  and  C_8
REMARK    3  A    between atoms: C_8  and  C_9
REMARK    4  A    between atoms: C_9  and  C_10
REMARK    5  A    between atoms: N_12  and  C_13
REMARK    6  A    between atoms: C_14  and  C_21
REMARK                            x       y       z     vdW  Elec       q    Type
REMARK                         _______ _______ _______ _____ _____    ______ ____
ROOT
ATOM      1  C   UNL     1       5.985  -6.232  -0.091  0.00  0.00    +0.084 A 
ATOM      2  C   UNL     1       7.043  -7.124  -0.101  0.00  0.00    +0.069 A 
ATOM      3  C   UNL     1       6.717  -8.549  -0.107  0.00  0.00    -0.023 A 
ATOM      4  C   UNL     1       5.398  -8.811  -0.103  0.00  0.00    -0.004 A 
ATOM      5  S   UNL     1       4.625  -7.213  -0.082  0.00  0.00    -0.077 S 
ATOM      6  C   UNL     1       5.119 -10.289  -0.114  0.00  0.00    +0.043 C 
ATOM      7  C   UNL     1       6.450 -10.934  -0.558  0.00  0.00    +0.010 C 
ATOM      8  C   UNL     1       7.478  -9.874  -0.114  0.00  0.00    +0.037 C 
ENDROOT
BRANCH   2   9
ATOM      9  C   UNL     1       8.432  -6.659  -0.106  0.00  0.00    +0.254 C 
ATOM     10  O   UNL     1       9.015  -6.471   0.945  0.00  0.00    -0.270 OA
ATOM     11  N   UNL     1       9.065  -6.439  -1.276  0.00  0.00    -0.236 N 
ATOM     12  C   UNL     1      10.343  -6.011  -1.281  0.00  0.00    +0.304 C 
ATOM     13  O   UNL     1      10.925  -5.824  -0.230  0.00  0.00    -0.253 OA
ATOM     14  N   UNL     1      10.975  -5.791  -2.450  0.00  0.00    -0.313 N 
ATOM     15  H   UNL     1       8.600  -6.588  -2.114  0.00  0.00    +0.159 HD
ATOM     16  H   UNL     1      10.511  -5.940  -3.289  0.00  0.00    +0.146 HD
ATOM     17  H   UNL     1      11.895  -5.483  -2.454  0.00  0.00    +0.146 HD
ENDBRANCH   2   9
BRANCH   1  20
ATOM     18  C   UNL     1       4.897  -4.130  -0.069  0.00  0.00    +0.221 C 
ATOM     19  O   UNL     1       3.824  -4.696  -0.061  0.00  0.00    -0.275 OA
ATOM     20  N   UNL     1       6.037  -4.847  -0.085  0.00  0.00    -0.279 N 
ATOM     21  H   UNL     1       6.895  -4.394  -0.091  0.00  0.00    +0.155 HD
BRANCH  18  22
ATOM     22  C   UNL     1       4.954  -2.624  -0.061  0.00  0.00    +0.137 C 
BRANCH  22  23
ATOM     23  C   UNL     1       3.531  -2.060  -0.044  0.00  0.00    +0.238 C 
BRANCH  23  24
ATOM     24  O   UNL     1       3.586  -0.632  -0.037  0.00  0.00    -0.491 OA
BRANCH  24  28
ATOM     25  C   UNL     1      -0.017   1.378   0.010  0.00  0.00    +0.000 A 
ATOM     26  C   UNL     1       1.170   2.088   0.002  0.00  0.00    +0.004 A 
ATOM     27  C   UNL     1       2.377   1.417  -0.013  0.00  0.00    +0.045 A 
ATOM     28  C   UNL     1       2.399   0.030  -0.021  0.00  0.00    +0.121 A 
ATOM     29  C   UNL     1       1.207  -0.680  -0.013  0.00  0.00    +0.045 A 
ATOM     30  C   UNL     1       0.002  -0.004   0.002  0.00  0.00    +0.004 A 
ENDBRANCH  24  28
ENDBRANCH  23  24
ENDBRANCH  22  23
ENDBRANCH  18  22
ENDBRANCH   1  20
TORSDOF 6
