REMARK  Name = ZINC63127821
REMARK  5 active torsions:
REMARK  status: ('A' for Active; 'I' for Inactive)
REMARK    1  A    between atoms: C_1  and  N_2
REMARK    2  A    between atoms: C_6  and  C_7
REMARK    3  A    between atoms: C_11  and  C_19
REMARK    4  A    between atoms: C_19  and  C_20
REMARK    5  A    between atoms: C_20  and  N_21
REMARK                            x       y       z     vdW  Elec       q    Type
REMARK                         _______ _______ _______ _____ _____    ______ ____
ROOT
ATOM      1  C   UNL     1      -0.188  -0.372   2.523  0.00  0.00    +0.267 C 
ATOM      2  O   UNL     1      -0.549  -0.748   1.423  0.00  0.00    -0.268 OA
ATOM      3  N   UNL     1      -0.126   0.947   2.797  0.00  0.00    -0.265 N 
ATOM      4  C   UNL     1       0.190   1.517   4.109  0.00  0.00    +0.122 C 
ATOM      5  C   UNL     1       0.136   3.041   3.909  0.00  0.00    +0.037 C 
ATOM      6  C   UNL     1      -0.218   3.221   2.450  0.00  0.00    -0.021 A 
ATOM      7  C   UNL     1      -0.348   1.969   1.871  0.00  0.00    +0.040 A 
ATOM      8  C   UNL     1      -0.670   1.880   0.515  0.00  0.00    +0.024 A 
ATOM      9  C   UNL     1      -0.849   3.024  -0.234  0.00  0.00    +0.002 A 
ATOM     10  C   UNL     1      -0.713   4.268   0.354  0.00  0.00    +0.000 A 
ATOM     11  C   UNL     1      -0.403   4.364   1.698  0.00  0.00    +0.006 A 
ENDROOT
BRANCH   1  17
ATOM     12  C   UNL     1      -1.950  -1.264   4.908  0.00  0.00    +0.149 C 
ATOM     13  N   UNL     1      -0.601  -1.751   4.610  0.00  0.00    -0.345 N 
ATOM     14  C   UNL     1       0.084  -2.673   5.330  0.00  0.00    +0.101 A 
ATOM     15  C   UNL     1       1.294  -2.869   4.753  0.00  0.00    +0.036 A 
ATOM     16  C   UNL     1       1.372  -2.040   3.629  0.00  0.00    +0.047 A 
ATOM     17  C   UNL     1       0.180  -1.352   3.549  0.00  0.00    +0.106 A 
ATOM     18 BR   UNL     1       2.639  -4.053   5.359  0.00  0.00    -0.049 Br
ENDBRANCH   1  17
BRANCH   5  19
ATOM     19  C   UNL     1      -0.941   3.659   4.803  0.00  0.00    -0.010 C 
BRANCH  19  20
ATOM     20  C   UNL     1      -0.892   5.183   4.681  0.00  0.00    -0.086 C 
BRANCH  20  21
ATOM     21  N   UNL     1      -1.926   5.776   5.539  0.00  0.00    +0.378 N 
ATOM     22  H   UNL     1      -1.894   6.782   5.459  0.00  0.00    -0.090 HD
ATOM     23  H   UNL     1      -2.834   5.445   5.250  0.00  0.00    -0.090 HD
ATOM     24  H   UNL     1      -1.761   5.510   6.498  0.00  0.00    -0.090 HD
ENDBRANCH  20  21
ENDBRANCH  19  20
ENDBRANCH   5  19
TORSDOF 4
