REMARK  Name = ZINC24758907
REMARK  15 active torsions:
REMARK  status: ('A' for Active; 'I' for Inactive)
REMARK    1  A    between atoms: C_1  and  C_2
REMARK    2  A    between atoms: C_2  and  C_3
REMARK    3  A    between atoms: C_3  and  C_4
REMARK    4  A    between atoms: C_4  and  N_5
REMARK    5  A    between atoms: C_6  and  N_33
REMARK    6  A    between atoms: C_7  and  N_14
REMARK    7  A    between atoms: N_14  and  C_15
REMARK    8  A    between atoms: C_15  and  C_16
REMARK    9  A    between atoms: C_16  and  C_17
REMARK   10  A    between atoms: C_16  and  C_18
REMARK   11  A    between atoms: C_19  and  C_21
REMARK   12  A    between atoms: C_21  and  C_22
REMARK   13  A    between atoms: C_22  and  C_23
REMARK   14  A    between atoms: C_28  and  C_32
REMARK   15  A    between atoms: C_29  and  C_31
REMARK                            x       y       z     vdW  Elec       q    Type
REMARK                         _______ _______ _______ _____ _____    ______ ____
ROOT
ATOM      1  N   UNL     1      -1.219  -4.931  -2.238  0.00  0.00    -0.264 N 
ATOM      2  C   UNL     1      -1.324  -4.298  -3.425  0.00  0.00    +0.220 C 
ATOM      3  O   UNL     1      -1.357  -3.086  -3.464  0.00  0.00    -0.275 OA
ENDROOT
BRANCH   1   6
ATOM      4  N   UNL     1      -0.238  -3.457   0.981  0.00  0.00    -0.280 N 
ATOM      5  C   UNL     1      -0.171  -4.184  -0.185  0.00  0.00    +0.127 A 
ATOM      6  C   UNL     1      -1.256  -4.191  -1.038  0.00  0.00    +0.140 A 
ATOM      7  C   UNL     1      -2.397  -3.443  -0.692  0.00  0.00    +0.277 A 
ATOM      8  O   UNL     1      -3.367  -3.428  -1.430  0.00  0.00    -0.266 OA
ATOM      9  N   UNL     1      -2.409  -2.744   0.460  0.00  0.00    -0.273 N 
ATOM     10  H   UNL     1      -3.297  -2.157   0.737  0.00  0.00    +0.173 HD
ATOM     11  C   UNL     1      -1.345  -2.753   1.281  0.00  0.00    +0.331 A 
ATOM     12  O   UNL     1      -1.383  -2.113   2.315  0.00  0.00    -0.246 OA
BRANCH   5  13
ATOM     13  N   UNL     1       0.962  -4.899  -0.494  0.00  0.00    -0.343 N 
ATOM     14  H   UNL     1       1.009  -5.478  -1.428  0.00  0.00    +0.144 HD
ATOM     15  H   UNL     1       1.821  -4.891   0.193  0.00  0.00    +0.144 HD
ENDBRANCH   5  13
BRANCH   4  16
ATOM     16  C   UNL     1       0.904  -3.445   1.899  0.00  0.00    +0.128 C 
BRANCH  16  17
ATOM     17  C   UNL     1       0.759  -4.586   2.908  0.00  0.00    +0.021 C 
BRANCH  17  19
ATOM     18  C   UNL     1       1.807  -5.715   4.875  0.00  0.00    +0.004 C 
ATOM     19  C   UNL     1       1.952  -4.574   3.866  0.00  0.00    -0.002 C 
ENDBRANCH  17  19
ENDBRANCH  16  17
ENDBRANCH   4  16
ENDBRANCH   1   6
BRANCH   1  20
ATOM     20  C   UNL     1      -1.067  -6.388  -2.197  0.00  0.00    +0.117 C 
BRANCH  20  21
ATOM     21  C   UNL     1      -2.446  -7.047  -2.271  0.00  0.00    +0.001 C 
ATOM     22  C   UNL     1      -2.281  -8.565  -2.369  0.00  0.00    +0.009 C 
ATOM     23  C   UNL     1      -3.245  -6.701  -1.012  0.00  0.00    +0.009 C 
ENDBRANCH  20  21
ENDBRANCH   1  20
BRANCH   2  24
ATOM     24  C   UNL     1      -1.401  -5.096  -4.701  0.00  0.00    +0.105 C 
BRANCH  24  25
ATOM     25  C   UNL     1      -1.514  -4.142  -5.892  0.00  0.00    +0.105 C 
BRANCH  25  26
ATOM     26  C   UNL     1      -1.591  -4.940  -7.169  0.00  0.00    +0.219 C 
ATOM     27  O   UNL     1      -1.558  -6.152  -7.129  0.00  0.00    -0.275 OA
ATOM     28  N   UNL     1      -1.696  -4.307  -8.354  0.00  0.00    -0.265 N 
ATOM     29  C   UNL     1      -1.766  -5.043  -9.531  0.00  0.00    +0.165 A 
ATOM     30  N   UNL     1      -1.740  -6.352  -9.693  0.00  0.00    -0.230 NA
ATOM     31  C   UNL     1      -1.823  -6.894 -10.892  0.00  0.00    +0.050 A 
ATOM     32  C   UNL     1      -1.925  -6.073 -11.966  0.00  0.00    +0.011 A 
ATOM     33  S   UNL     1      -1.904  -4.475 -11.166  0.00  0.00    -0.057 S 
ATOM     34  C   UNL     1      -2.026  -6.414 -13.431  0.00  0.00    +0.053 C 
ATOM     35  C   UNL     1      -1.799  -8.390 -11.065  0.00  0.00    +0.066 C 
ATOM     36  H   UNL     1      -1.726  -3.208  -8.390  0.00  0.00    +0.157 HD
ENDBRANCH  25  26
ENDBRANCH  24  25
ENDBRANCH   2  24
TORSDOF 10
