REMARK  Name = ZINC40061820
REMARK  8 active torsions:
REMARK  status: ('A' for Active; 'I' for Inactive)
REMARK    1  A    between atoms: C_1  and  C_2
REMARK    2  A    between atoms: C_2  and  C_4
REMARK    3  A    between atoms: C_2  and  N_7
REMARK    4  A    between atoms: C_4  and  C_5
REMARK    5  A    between atoms: C_4  and  C_6
REMARK    6  A    between atoms: C_8  and  C_10
REMARK    7  A    between atoms: C_10  and  S_11
REMARK    8  A    between atoms: S_11  and  C_12
REMARK                            x       y       z     vdW  Elec       q    Type
REMARK                         _______ _______ _______ _____ _____    ______ ____
ROOT
ATOM      1  C   UNL     1      -5.736  -1.894   2.741  0.00  0.00    +0.290 C 
ATOM      2  N   UNL     1      -6.717  -0.835   3.025  0.00  0.00    -0.147 NA
ATOM      3  N   UNL     1      -7.389  -1.175   4.000  0.00  0.00    -0.112 NA
ATOM      4  C   UNL     1      -7.040  -2.391   4.512  0.00  0.00    +0.253 A 
ATOM      5  N   UNL     1      -6.003  -2.908   3.768  0.00  0.00    -0.274 N 
ATOM      6  C   UNL     1      -5.668  -4.128   4.296  0.00  0.00    +0.073 A 
ATOM      7  C   UNL     1      -4.723  -5.096   3.982  0.00  0.00    +0.028 A 
ATOM      8  C   UNL     1      -4.644  -6.247   4.735  0.00  0.00    +0.002 A 
ATOM      9  C   UNL     1      -5.503  -6.447   5.808  0.00  0.00    +0.002 A 
ATOM     10  C   UNL     1      -6.439  -5.510   6.135  0.00  0.00    +0.030 A 
ATOM     11  C   UNL     1      -6.540  -4.332   5.385  0.00  0.00    +0.091 A 
ATOM     12  N   UNL     1      -7.345  -3.246   5.465  0.00  0.00    -0.209 NA
ENDROOT
BRANCH   1  13
ATOM     13  S   UNL     1      -4.045  -1.255   2.901  0.00  0.00    -0.102 S 
BRANCH  13  14
ATOM     14  C   UNL     1      -3.442  -1.177   1.191  0.00  0.00    +0.168 C 
BRANCH  14  16
ATOM     15  N   UNL     1      -1.372  -0.511   0.012  0.00  0.00    -0.312 N 
ATOM     16  C   UNL     1      -2.029  -0.655   1.181  0.00  0.00    +0.223 C 
ATOM     17  O   UNL     1      -1.481  -0.365   2.224  0.00  0.00    -0.275 OA
ATOM     18  H   UNL     1      -1.810  -0.743  -0.822  0.00  0.00    +0.149 HD
BRANCH  15  20
ATOM     19  C   UNL     1      -0.019   1.526   0.010  0.00  0.00    +0.028 C 
ATOM     20  C   UNL     1       0.002  -0.004   0.002  0.00  0.00    +0.072 C 
BRANCH  20  21
ATOM     21  C   UNL     1       0.718  -0.497  -1.257  0.00  0.00    +0.003 C 
ATOM     22  C   UNL     1       0.053   0.110  -2.493  0.00  0.00    +0.009 C 
ATOM     23  C   UNL     1       2.187  -0.073  -1.207  0.00  0.00    +0.009 C 
ENDBRANCH  20  21
ENDBRANCH  15  20
ENDBRANCH  14  16
ENDBRANCH  13  14
ENDBRANCH   1  13
TORSDOF 5
