REMARK  Name = ZINC32462102
REMARK  8 active torsions:
REMARK  status: ('A' for Active; 'I' for Inactive)
REMARK    1  A    between atoms: C_5  and  C_7
REMARK    2  A    between atoms: C_7  and  C_9
REMARK    3  A    between atoms: C_7  and  N_28
REMARK    4  A    between atoms: C_9  and  C_10
REMARK    5  A    between atoms: N_12  and  C_13
REMARK    6  A    between atoms: C_13  and  C_14
REMARK    7  A    between atoms: C_17  and  O_20
REMARK    8  A    between atoms: O_20  and  C_21
REMARK                            x       y       z     vdW  Elec       q    Type
REMARK                         _______ _______ _______ _____ _____    ______ ____
ROOT
ATOM      1  C   UNL     1       4.302   5.038  -1.405  0.00  0.00    +0.215 C 
ATOM      2  O   UNL     1       4.718   5.381  -0.319  0.00  0.00    -0.276 OA
ATOM      3  N   UNL     1       4.953   5.412  -2.525  0.00  0.00    -0.311 N 
ATOM      4  H   UNL     1       4.576   5.101  -3.510  0.00  0.00    +0.149 HD
ENDROOT
BRANCH   1   5
ATOM      5  C   UNL     1       3.058   4.194  -1.504  0.00  0.00    +0.123 C 
BRANCH   5   6
ATOM      6  C   UNL     1       2.520   3.912  -0.099  0.00  0.00    +0.116 C 
BRANCH   6  11
ATOM      7  C   UNL     1      -0.349   1.885  -1.483  0.00  0.00    +0.000 A 
ATOM      8  C   UNL     1      -1.196   1.823  -0.392  0.00  0.00    +0.003 A 
ATOM      9  C   UNL     1      -0.838   2.428   0.797  0.00  0.00    +0.039 A 
ATOM     10  C   UNL     1       0.365   3.107   0.893  0.00  0.00    +0.128 A 
ATOM     11  C   UNL     1       1.210   3.174  -0.202  0.00  0.00    +0.008 A 
ATOM     12  C   UNL     1       0.852   2.562  -1.389  0.00  0.00    +0.008 A 
ATOM     13  F   UNL     1       0.714   3.704   2.054  0.00  0.00    -0.205 F 
ENDBRANCH   6  11
BRANCH   6  14
ATOM     14  N   UNL     1       3.486   3.094   0.639  0.00  0.00    -0.292 N 
ATOM     15  C   UNL     1       3.845   1.885   0.165  0.00  0.00    +0.298 C 
ATOM     16  O   UNL     1       3.445   1.514  -0.921  0.00  0.00    -0.253 OA
ATOM     17  N   UNL     1       4.649   1.087   0.895  0.00  0.00    -0.313 N 
ATOM     18  H   UNL     1       3.917   3.467   1.579  0.00  0.00    +0.151 HD
ATOM     19  H   UNL     1       4.943   0.100   0.509  0.00  0.00    +0.146 HD
ATOM     20  H   UNL     1       5.012   1.423   1.878  0.00  0.00    +0.146 HD
ENDBRANCH   6  14
ENDBRANCH   5   6
ENDBRANCH   1   5
BRANCH   3  21
ATOM     21  C   UNL     1       6.163   6.233  -2.429  0.00  0.00    +0.139 C 
BRANCH  21  22
ATOM     22  C   UNL     1       6.693   6.510  -3.812  0.00  0.00    -0.030 A 
ATOM     23  C   UNL     1       7.608   5.647  -4.386  0.00  0.00    +0.009 A 
ATOM     24  C   UNL     1       8.091   5.896  -5.656  0.00  0.00    +0.046 A 
ATOM     25  C   UNL     1       7.665   7.019  -6.352  0.00  0.00    +0.128 A 
ATOM     26  C   UNL     1       6.750   7.886  -5.771  0.00  0.00    +0.046 A 
ATOM     27  C   UNL     1       6.266   7.629  -4.503  0.00  0.00    +0.009 A 
BRANCH  25  28
ATOM     28  O   UNL     1       8.142   7.268  -7.599  0.00  0.00    -0.456 OA
BRANCH  28  29
ATOM     29  C   UNL     1       9.084   8.238  -7.740  0.00  0.00    +0.129 A 
ATOM     30  C   UNL     1       9.457   9.007  -6.648  0.00  0.00    +0.049 A 
ATOM     31  C   UNL     1      10.419   9.988  -6.791  0.00  0.00    +0.042 A 
ATOM     32  C   UNL     1      11.001  10.213  -8.027  0.00  0.00    +0.124 A 
ATOM     33  C   UNL     1      10.625   9.450  -9.120  0.00  0.00    +0.042 A 
ATOM     34  C   UNL     1       9.668   8.464  -8.978  0.00  0.00    +0.049 A 
ATOM     35  F   UNL     1      11.938  11.176  -8.167  0.00  0.00    -0.205 F 
ENDBRANCH  28  29
ENDBRANCH  25  28
ENDBRANCH  21  22
ENDBRANCH   3  21
TORSDOF 8
