REMARK  Name = ZINC06760086
REMARK  6 active torsions:
REMARK  status: ('A' for Active; 'I' for Inactive)
REMARK    1  A    between atoms: C_1  and  C_2
REMARK    2  A    between atoms: N_7  and  C_8
REMARK    3  A    between atoms: C_8  and  C_25
REMARK    4  A    between atoms: N_11  and  C_19
REMARK    5  A    between atoms: C_12  and  C_13
REMARK    6  A    between atoms: C_19  and  C_20
REMARK                            x       y       z     vdW  Elec       q    Type
REMARK                         _______ _______ _______ _____ _____    ______ ____
ROOT
ATOM      1  C   UNL     1      -1.122   5.846   0.028  0.00  0.00    +0.281 C 
ATOM      2  C   UNL     1      -2.240   5.602  -0.965  0.00  0.00    +0.274 C 
ATOM      3  O   UNL     1      -2.783   4.548  -1.219  0.00  0.00    -0.270 OA
ATOM      4  N   UNL     1      -2.497   6.815  -1.506  0.00  0.00    -0.246 N 
ATOM      5  C   UNL     1      -1.673   7.773  -0.963  0.00  0.00    +0.111 C 
ATOM      6  N   UNL     1      -0.868   7.284  -0.083  0.00  0.00    -0.337 N 
ATOM      7  H   UNL     1      -0.167   7.813   0.449  0.00  0.00    +0.164 HD
ENDROOT
BRANCH   1  14
ATOM      8  C   UNL     1       2.834   8.093   2.392  0.00  0.00    +0.044 C 
ATOM      9  C   UNL     1       2.664   6.877   1.518  0.00  0.00    -0.046 A 
ATOM     10  C   UNL     1       3.746   6.059   1.222  0.00  0.00    +0.021 A 
ATOM     11  C   UNL     1       3.556   4.949   0.423  0.00  0.00    +0.084 A 
ATOM     12  C   UNL     1       1.309   5.420   0.192  0.00  0.00    +0.099 A 
ATOM     13  C   UNL     1       1.428   6.554   0.990  0.00  0.00    +0.045 A 
ATOM     14  N   UNL     1       0.071   5.080  -0.341  0.00  0.00    -0.294 N 
ATOM     15  H   UNL     1      -0.004   4.334  -0.957  0.00  0.00    +0.150 HD
ATOM     16  N   UNL     1       2.355   4.598  -0.109  0.00  0.00    -0.350 N 
ATOM     17  H   UNL     1       2.243   3.766  -0.700  0.00  0.00    +0.166 HD
ENDBRANCH   1  14
BRANCH   5  18
ATOM     18  C   UNL     1      -1.713   9.202  -1.348  0.00  0.00    +0.013 A 
ATOM     19  C   UNL     1      -0.525   9.906  -1.548  0.00  0.00    +0.011 A 
ATOM     20  C   UNL     1      -0.569  11.236  -1.912  0.00  0.00    +0.001 A 
ATOM     21  C   UNL     1      -1.786  11.874  -2.068  0.00  0.00    +0.000 A 
ATOM     22  C   UNL     1      -2.967  11.183  -1.866  0.00  0.00    +0.001 A 
ATOM     23  C   UNL     1      -2.937   9.851  -1.507  0.00  0.00    +0.011 A 
ENDBRANCH   5  18
BRANCH   1  24
ATOM     24  C   UNL     1      -1.573   5.485   1.445  0.00  0.00    +0.438 C 
ATOM     25  F   UNL     1      -0.593   5.878   2.362  0.00  0.00    -0.166 F 
ATOM     26  F   UNL     1      -2.773   6.143   1.734  0.00  0.00    -0.166 F 
ATOM     27  F   UNL     1      -1.767   4.102   1.534  0.00  0.00    -0.166 F 
ENDBRANCH   1  24
BRANCH   4  28
ATOM     28  C   UNL     1      -3.514   7.072  -2.530  0.00  0.00    +0.189 C 
BRANCH  28  29
ATOM     29  C   UNL     1      -2.933   6.799  -3.894  0.00  0.00    +0.122 A 
ATOM     30  C   UNL     1      -2.961   5.619  -4.539  0.00  0.00    +0.046 A 
ATOM     31  C   UNL     1      -2.307   5.814  -5.777  0.00  0.00    +0.041 A 
ATOM     32  C   UNL     1      -1.919   7.101  -5.815  0.00  0.00    +0.195 A 
ATOM     33  O   UNL     1      -2.306   7.695  -4.674  0.00  0.00    -0.466 OA
ENDBRANCH  28  29
ENDBRANCH   4  28
TORSDOF 5
