REMARK  Name = ZINC50077810
REMARK  10 active torsions:
REMARK  status: ('A' for Active; 'I' for Inactive)
REMARK    1  A    between atoms: C_1  and  C_2
REMARK    2  A    between atoms: N_5  and  C_8
REMARK    3  A    between atoms: C_8  and  C_10
REMARK    4  A    between atoms: C_8  and  C_27
REMARK    5  A    between atoms: C_10  and  N_11
REMARK    6  A    between atoms: N_14  and  C_15
REMARK    7  A    between atoms: N_21  and  C_26
REMARK    8  A    between atoms: N_24  and  C_25
REMARK    9  A    between atoms: C_27  and  C_28
REMARK   10  A    between atoms: C_27  and  C_29
REMARK                            x       y       z     vdW  Elec       q    Type
REMARK                         _______ _______ _______ _____ _____    ______ ____
ROOT
ATOM      1  N   UNL     1       2.021  -3.708   2.358  0.00  0.00    -0.301 N 
ATOM      2  C   UNL     1       2.568  -4.072   3.534  0.00  0.00    +0.304 C 
ATOM      3  O   UNL     1       3.699  -4.518   3.566  0.00  0.00    -0.253 OA
ATOM      4  N   UNL     1       1.863  -3.943   4.675  0.00  0.00    -0.269 N 
ATOM      5  H   UNL     1       1.119  -3.352   2.333  0.00  0.00    +0.150 HD
ATOM      6  H   UNL     1       0.939  -3.650   4.644  0.00  0.00    +0.156 HD
ENDROOT
BRANCH   4   7
ATOM      7  C   UNL     1       2.465  -4.230   5.908  0.00  0.00    +0.037 A 
ATOM      8  C   UNL     1       2.171  -3.451   7.021  0.00  0.00    +0.025 A 
ATOM      9  C   UNL     1       2.760  -3.729   8.238  0.00  0.00    +0.030 A 
ATOM     10  C   UNL     1       3.648  -4.789   8.351  0.00  0.00    +0.070 A 
ATOM     11  C   UNL     1       3.944  -5.573   7.235  0.00  0.00    +0.071 A 
ATOM     12  C   UNL     1       3.347  -5.294   6.016  0.00  0.00    +0.051 A 
ATOM     13  N   UNL     1       4.851  -6.544   7.654  0.00  0.00    -0.295 N 
ATOM     14  C   UNL     1       5.096  -6.359   8.964  0.00  0.00    +0.330 A 
ATOM     15  O   UNL     1       5.846  -7.040   9.640  0.00  0.00    -0.246 OA
ATOM     16  N   UNL     1       4.385  -5.309   9.415  0.00  0.00    -0.295 N 
ATOM     17  C   UNL     1       4.386  -4.798  10.789  0.00  0.00    +0.154 C 
ATOM     18  C   UNL     1       5.439  -7.588   6.811  0.00  0.00    +0.154 C 
ENDBRANCH   4   7
BRANCH   1  19
ATOM     19  C   UNL     1       2.788  -3.849   1.118  0.00  0.00    +0.091 C 
BRANCH  19  20
ATOM     20  C   UNL     1       2.017  -3.201  -0.034  0.00  0.00    -0.048 C 
BRANCH  20  25
ATOM     21  C   UNL     1       2.521   2.221   1.661  0.00  0.00    +0.007 C 
ATOM     22  C   UNL     1       2.592   0.694   1.596  0.00  0.00    -0.018 C 
ATOM     23  C   UNL     1       1.176   0.119   1.501  0.00  0.00    -0.016 C 
ATOM     24  C   UNL     1       1.258  -1.402   1.357  0.00  0.00    -0.078 C 
ATOM     25  N   UNL     1       2.008  -1.742   0.142  0.00  0.00    +0.383 N 
ATOM     26  C   UNL     1       3.388  -1.256   0.257  0.00  0.00    -0.078 C 
ATOM     27  C   UNL     1       3.389   0.271   0.359  0.00  0.00    -0.016 C 
ATOM     28  H   UNL     1       1.567  -1.312  -0.657  0.00  0.00    -0.081 HD
ENDBRANCH  20  25
BRANCH  20  29
ATOM     29  C   UNL     1       2.695  -3.550  -1.361  0.00  0.00    -0.029 C 
ATOM     30  C   UNL     1       2.592  -5.057  -1.605  0.00  0.00    +0.005 C 
ATOM     31  C   UNL     1       2.002  -2.800  -2.501  0.00  0.00    +0.005 C 
ENDBRANCH  20  29
ENDBRANCH  19  20
ENDBRANCH   1  19
TORSDOF 5
