REMARK  Name = ZINC00679985
REMARK  5 active torsions:
REMARK  status: ('A' for Active; 'I' for Inactive)
REMARK    1  A    between atoms: C_4  and  C_7
REMARK    2  A    between atoms: C_12  and  C_26
REMARK    3  A    between atoms: C_14  and  C_24
REMARK    4  A    between atoms: C_15  and  N_23
REMARK    5  A    between atoms: N_16  and  C_17
REMARK                            x       y       z     vdW  Elec       q    Type
REMARK                         _______ _______ _______ _____ _____    ______ ____
ROOT
ATOM      1  C   UNL     1      -1.719   8.794  -2.753  0.00  0.00    +0.032 C 
ATOM      2  C   UNL     1      -2.736   7.859  -2.096  0.00  0.00    +0.060 C 
ATOM      3  C   UNL     1      -2.036   6.976  -1.091  0.00  0.00    +0.025 C 
ATOM      4  C   UNL     1      -0.753   6.600  -1.272  0.00  0.00    +0.025 C 
ATOM      5  C   UNL     1      -0.062   5.701  -0.278  0.00  0.00    +0.097 C 
ATOM      6  C   UNL     1      -0.789   5.684   1.035  0.00  0.00    +0.077 C 
ATOM      7  C   UNL     1      -2.077   6.104   1.128  0.00  0.00    +0.107 C 
ATOM      8  N   UNL     1      -2.738   6.561   0.011  0.00  0.00    -0.259 N 
ATOM      9  C   UNL     1      -0.020   7.035  -2.390  0.00  0.00    +0.162 C 
ATOM     10  O   UNL     1       1.132   6.673  -2.526  0.00  0.00    -0.292 OA
ATOM     11  C   UNL     1      -0.635   7.942  -3.421  0.00  0.00    +0.088 C 
ENDROOT
BRANCH   5  12
ATOM     12  C   UNL     1      -0.009   4.300  -0.831  0.00  0.00    -0.035 A 
ATOM     13  C   UNL     1       1.212   3.696  -1.068  0.00  0.00    +0.007 A 
ATOM     14  C   UNL     1       1.261   2.412  -1.576  0.00  0.00    +0.038 A 
ATOM     15  C   UNL     1       0.087   1.730  -1.848  0.00  0.00    +0.123 A 
ATOM     16  C   UNL     1      -1.135   2.338  -1.615  0.00  0.00    +0.038 A 
ATOM     17  C   UNL     1      -1.182   3.620  -1.102  0.00  0.00    +0.007 A 
ATOM     18  F   UNL     1       0.134   0.475  -2.345  0.00  0.00    -0.205 F 
ENDBRANCH   5  12
BRANCH   1  22
ATOM     19  C   UNL     1      -3.671  11.197  -5.697  0.00  0.00    +0.000 A 
ATOM     20  C   UNL     1      -3.034  11.797  -4.627  0.00  0.00    +0.000 A 
ATOM     21  C   UNL     1      -2.402  11.019  -3.674  0.00  0.00    +0.004 A 
ATOM     22  C   UNL     1      -2.408   9.642  -3.791  0.00  0.00    -0.044 A 
ATOM     23  C   UNL     1      -3.041   9.042  -4.864  0.00  0.00    +0.004 A 
ATOM     24  C   UNL     1      -3.677   9.819  -5.814  0.00  0.00    +0.000 A 
ENDBRANCH   1  22
BRANCH   8  25
ATOM     25  C   UNL     1      -4.137   6.603  -0.001  0.00  0.00    +0.058 A 
ATOM     26  C   UNL     1      -4.814   7.715   0.494  0.00  0.00    +0.027 A 
ATOM     27  C   UNL     1      -6.199   7.710   0.462  0.00  0.00    +0.021 A 
ATOM     28  C   UNL     1      -6.858   6.611  -0.057  0.00  0.00    +0.111 A 
ATOM     29  N   UNL     1      -6.187   5.573  -0.518  0.00  0.00    -0.261 NA
ATOM     30  C   UNL     1      -4.870   5.540  -0.511  0.00  0.00    +0.134 A 
ENDBRANCH   8  25
BRANCH   7  31
ATOM     31  N   UNL     1      -2.723   6.072   2.341  0.00  0.00    -0.345 N 
ATOM     32  H   UNL     1      -2.290   5.669   3.110  0.00  0.00    +0.144 HD
ATOM     33  H   UNL     1      -3.611   6.451   2.428  0.00  0.00    +0.144 HD
ENDBRANCH   7  31
BRANCH   6  34
ATOM     34  C   UNL     1      -0.113   5.219   2.208  0.00  0.00    +0.099 C 
ATOM     35  N   UNL     1       0.423   4.850   3.139  0.00  0.00    -0.191 NA
ENDBRANCH   6  34
TORSDOF 5
