REMARK  Name = ZINC39930041
REMARK  10 active torsions:
REMARK  status: ('A' for Active; 'I' for Inactive)
REMARK    1  A    between atoms: C_1  and  C_2
REMARK    2  A    between atoms: C_2  and  C_26
REMARK    3  A    between atoms: N_3  and  N_4
REMARK    4  A    between atoms: N_4  and  C_5
REMARK    5  A    between atoms: C_8  and  N_15
REMARK    6  A    between atoms: N_15  and  N_16
REMARK    7  A    between atoms: C_17  and  C_18
REMARK    8  A    between atoms: C_17  and  C_25
REMARK    9  A    between atoms: C_19  and  O_24
REMARK   10  A    between atoms: C_27  and  O_32
REMARK                            x       y       z     vdW  Elec       q    Type
REMARK                         _______ _______ _______ _____ _____    ______ ____
ROOT
ATOM      1  C   UNL     1       0.045  -0.665   3.538  0.00  0.00    +0.168 A 
ATOM      2  N   UNL     1       0.068  -1.986   3.543  0.00  0.00    -0.130 NA
ATOM      3  N   UNL     1       0.088  -2.686   4.615  0.00  0.00    -0.130 NA
ATOM      4  C   UNL     1       0.087  -2.160   5.826  0.00  0.00    +0.168 A 
ATOM      5  C   UNL     1       0.063  -0.751   5.960  0.00  0.00    +0.029 A 
ATOM      6  C   UNL     1       0.047   0.024   4.773  0.00  0.00    +0.029 A 
ATOM      7  C   UNL     1       0.028   1.419   4.861  0.00  0.00    +0.012 A 
ATOM      8  C   UNL     1       0.031   2.014   6.089  0.00  0.00    +0.001 A 
ATOM      9  C   UNL     1       0.053   1.252   7.254  0.00  0.00    +0.001 A 
ATOM     10  C   UNL     1       0.060  -0.111   7.203  0.00  0.00    +0.012 A 
ENDROOT
BRANCH   1  11
ATOM     11  N   UNL     1       0.024   0.035   2.340  0.00  0.00    -0.219 N 
ATOM     12  H   UNL     1       0.011   1.004   2.345  0.00  0.00    +0.176 HD
BRANCH  11  15
ATOM     13  C   UNL     1      -0.018   1.503   0.010  0.00  0.00    +0.068 C 
ATOM     14  C   UNL     1       0.002  -0.004   0.002  0.00  0.00    +0.067 C 
ATOM     15  N   UNL     1       0.022  -0.659   1.123  0.00  0.00    -0.185 NA
BRANCH  14  16
ATOM     16  C   UNL     1      -0.000  -0.734  -1.278  0.00  0.00    +0.039 A 
ATOM     17  C   UNL     1       0.013  -2.136  -1.290  0.00  0.00    +0.126 A 
ATOM     18  C   UNL     1       0.010  -2.812  -2.499  0.00  0.00    +0.046 A 
ATOM     19  C   UNL     1      -0.005  -2.107  -3.688  0.00  0.00    +0.004 A 
ATOM     20  C   UNL     1      -0.018  -0.723  -3.681  0.00  0.00    +0.001 A 
ATOM     21  C   UNL     1      -0.021  -0.033  -2.486  0.00  0.00    +0.013 A 
BRANCH  17  22
ATOM     22  O   UNL     1       0.029  -2.828  -0.122  0.00  0.00    -0.506 OA
ATOM     23  H   UNL     1      -0.850  -3.037   0.224  0.00  0.00    +0.292 HD
ENDBRANCH  17  22
ENDBRANCH  14  16
ENDBRANCH  11  15
ENDBRANCH   1  11
BRANCH   4  24
ATOM     24  N   UNL     1       0.109  -2.975   6.948  0.00  0.00    -0.219 N 
ATOM     25  H   UNL     1       0.108  -2.580   7.834  0.00  0.00    +0.176 HD
BRANCH  24  26
ATOM     26  N   UNL     1       0.133  -4.368   6.802  0.00  0.00    -0.185 NA
ATOM     27  C   UNL     1       0.153  -5.131   7.853  0.00  0.00    +0.067 C 
ATOM     28  C   UNL     1       0.152  -4.518   9.229  0.00  0.00    +0.068 C 
BRANCH  27  29
ATOM     29  C   UNL     1       0.177  -6.596   7.699  0.00  0.00    +0.039 A 
ATOM     30  C   UNL     1       0.185  -7.171   6.420  0.00  0.00    +0.126 A 
ATOM     31  C   UNL     1       0.208  -8.549   6.287  0.00  0.00    +0.046 A 
ATOM     32  C   UNL     1       0.225  -9.354   7.411  0.00  0.00    +0.004 A 
ATOM     33  C   UNL     1       0.218  -8.791   8.675  0.00  0.00    +0.001 A 
ATOM     34  C   UNL     1       0.200  -7.420   8.826  0.00  0.00    +0.013 A 
BRANCH  30  35
ATOM     35  O   UNL     1       0.168  -6.379   5.317  0.00  0.00    -0.506 OA
ATOM     36  H   UNL     1       1.046  -6.134   4.995  0.00  0.00    +0.292 HD
ENDBRANCH  30  35
ENDBRANCH  27  29
ENDBRANCH  24  26
ENDBRANCH   4  24
TORSDOF 8
