REMARK  Name = ZINC49043242
REMARK  4 active torsions:
REMARK  status: ('A' for Active; 'I' for Inactive)
REMARK    1  A    between atoms: C_4  and  C_7
REMARK    2  A    between atoms: C_7  and  S_8
REMARK    3  A    between atoms: S_8  and  N_11
REMARK    4  A    between atoms: N_11  and  C_12
REMARK                            x       y       z     vdW  Elec       q    Type
REMARK                         _______ _______ _______ _____ _____    ______ ____
ROOT
ATOM      1  N   UNL     1       3.808  -2.675  -3.866  0.00  0.00    -0.191 NA
ATOM      2  H   UNL     1       3.353  -3.207  -4.538  0.00  0.00    +0.148 HD
ENDROOT
BRANCH   1   3
ATOM      3  C   UNL     1       5.186  -2.233  -4.091  0.00  0.00    +0.076 C 
ATOM      4  C   UNL     1       6.159  -3.342  -3.672  0.00  0.00    +0.020 C 
ATOM      5  C   UNL     1       7.582  -2.809  -3.830  0.00  0.00    +0.003 C 
ATOM      6  C   UNL     1       7.866  -2.386  -5.248  0.00  0.00    -0.027 C 
ATOM      7  C   UNL     1       7.841  -3.560  -6.243  0.00  0.00    -0.079 C 
ATOM      8  N   UNL     1       7.678  -2.909  -7.565  0.00  0.00    +0.379 N 
ATOM      9  C   UNL     1       7.062  -1.583  -7.362  0.00  0.00    -0.079 C 
ATOM     10  C   UNL     1       6.805  -1.441  -5.842  0.00  0.00    -0.025 C 
ATOM     11  C   UNL     1       5.397  -1.941  -5.574  0.00  0.00    +0.022 C 
ATOM     12  H   UNL     1       8.580  -2.800  -8.003  0.00  0.00    -0.086 HD
ATOM     13  H   UNL     1       7.082  -3.474  -8.151  0.00  0.00    -0.086 HD
ENDBRANCH   1   3
BRANCH   1  14
ATOM     14  S   UNL     1       3.025  -2.268  -2.465  0.00  0.00    +0.030 S 
ATOM     15  O   UNL     1       3.919  -2.647  -1.427  0.00  0.00    -0.158 OA
ATOM     16  O   UNL     1       1.744  -2.873  -2.575  0.00  0.00    -0.158 OA
BRANCH  14  17
ATOM     17  C   UNL     1       2.870  -0.461  -2.526  0.00  0.00    +0.188 C 
BRANCH  17  21
ATOM     18  C   UNL     1      -0.019   1.526   0.010  0.00  0.00    +0.000 C 
ATOM     19  C   UNL     1       1.417   2.055  -0.000  0.00  0.00    +0.000 C 
ATOM     20  C   UNL     1       2.133   1.562  -1.259  0.00  0.00    +0.005 C 
ATOM     21  C   UNL     1       2.154   0.032  -1.268  0.00  0.00    +0.012 C 
ATOM     22  C   UNL     1       0.718  -0.497  -1.257  0.00  0.00    +0.005 C 
ATOM     23  C   UNL     1       0.002  -0.004   0.002  0.00  0.00    +0.000 C 
ENDBRANCH  17  21
ENDBRANCH  14  17
ENDBRANCH   1  14
TORSDOF 4
