REMARK  Name = ZINC13736667
REMARK  6 active torsions:
REMARK  status: ('A' for Active; 'I' for Inactive)
REMARK    1  A    between atoms: C_1  and  C_2
REMARK    2  A    between atoms: N_10  and  C_20
REMARK    3  A    between atoms: C_11  and  C_13
REMARK    4  A    between atoms: C_16  and  O_19
REMARK    5  A    between atoms: C_20  and  C_21
REMARK    6  A    between atoms: C_21  and  C_22
REMARK                            x       y       z     vdW  Elec       q    Type
REMARK                         _______ _______ _______ _____ _____    ______ ____
ROOT
ATOM      1  C   UNL     1      -0.018   1.503   0.010  0.00  0.00    +0.068 C 
ATOM      2  C   UNL     1       0.002  -0.004   0.002  0.00  0.00    +0.066 A 
ATOM      3  C   UNL     1       0.008  -0.817  -1.124  0.00  0.00    +0.030 A 
ATOM      4  C   UNL     1       0.028  -2.118  -0.651  0.00  0.00    +0.126 A 
ATOM      5  N   UNL     1       0.033  -2.021   0.711  0.00  0.00    -0.272 N 
ATOM      6  H   UNL     1       0.046  -2.773   1.324  0.00  0.00    +0.189 HD
ATOM      7  N   UNL     1       0.023  -0.783   1.056  0.00  0.00    -0.178 NA
ATOM      8  C   UNL     1       0.035  -3.031  -1.798  0.00  0.00    +0.265 C 
ATOM      9  O   UNL     1       0.052  -4.245  -1.719  0.00  0.00    -0.268 OA
ATOM     10  N   UNL     1       0.021  -2.337  -2.950  0.00  0.00    -0.285 N 
ATOM     11  C   UNL     1       0.002  -0.904  -2.626  0.00  0.00    +0.141 C 
ENDROOT
BRANCH  11  12
ATOM     12  C   UNL     1      -1.245  -0.263  -3.178  0.00  0.00    -0.022 A 
ATOM     13  C   UNL     1      -2.446  -0.947  -3.142  0.00  0.00    +0.009 A 
ATOM     14  C   UNL     1      -3.591  -0.361  -3.647  0.00  0.00    +0.046 A 
ATOM     15  C   UNL     1      -3.534   0.914  -4.191  0.00  0.00    +0.117 A 
ATOM     16  C   UNL     1      -2.328   1.598  -4.225  0.00  0.00    +0.046 A 
ATOM     17  C   UNL     1      -1.187   1.010  -3.713  0.00  0.00    +0.009 A 
BRANCH  15  18
ATOM     18  O   UNL     1      -4.659   1.492  -4.689  0.00  0.00    -0.507 OA
ATOM     19  H   UNL     1      -5.158   2.005  -4.040  0.00  0.00    +0.292 HD
ENDBRANCH  15  18
ENDBRANCH  11  12
BRANCH  10  20
ATOM     20  C   UNL     1       0.024  -2.911  -4.298  0.00  0.00    +0.114 C 
BRANCH  20  21
ATOM     21  C   UNL     1      -1.418  -3.130  -4.761  0.00  0.00    +0.056 C 
BRANCH  21  22
ATOM     22  C   UNL     1      -1.416  -3.721  -6.148  0.00  0.00    -0.021 A 
ATOM     23  C   UNL     1      -1.518  -3.046  -7.303  0.00  0.00    +0.087 A 
ATOM     24  N   UNL     1      -1.478  -3.917  -8.358  0.00  0.00    -0.360 N 
ATOM     25  H   UNL     1      -1.534  -3.664  -9.293  0.00  0.00    +0.165 HD
ATOM     26  C   UNL     1      -1.347  -5.207  -7.894  0.00  0.00    +0.047 A 
ATOM     27  C   UNL     1      -1.295  -5.140  -6.490  0.00  0.00    +0.003 A 
ATOM     28  C   UNL     1      -1.157  -6.311  -5.742  0.00  0.00    +0.010 A 
ATOM     29  C   UNL     1      -1.068  -7.516  -6.378  0.00  0.00    +0.001 A 
ATOM     30  C   UNL     1      -1.114  -7.587  -7.763  0.00  0.00    +0.002 A 
ATOM     31  C   UNL     1      -1.260  -6.446  -8.521  0.00  0.00    +0.026 A 
ENDBRANCH  21  22
ENDBRANCH  20  21
ENDBRANCH  10  20
TORSDOF 5
