REMARK  Name = ZINC14157968
REMARK  12 active torsions:
REMARK  status: ('A' for Active; 'I' for Inactive)
REMARK    1  A    between atoms: C_1  and  C_2
REMARK    2  A    between atoms: C_5  and  N_9
REMARK    3  A    between atoms: C_7  and  C_8
REMARK    4  A    between atoms: N_9  and  C_10
REMARK    5  A    between atoms: C_10  and  N_12
REMARK    6  A    between atoms: C_17  and  C_22
REMARK    7  A    between atoms: C_19  and  C_21
REMARK    8  A    between atoms: N_23  and  C_24
REMARK    9  A    between atoms: C_26  and  C_32
REMARK   10  A    between atoms: C_26  and  C_33
REMARK   11  A    between atoms: C_28  and  C_30
REMARK   12  A    between atoms: C_28  and  C_31
REMARK                            x       y       z     vdW  Elec       q    Type
REMARK                         _______ _______ _______ _____ _____    ______ ____
ROOT
ATOM      1  N   UNL     1      -0.396  -6.722  -1.446  0.00  0.00    -0.159 NA
ATOM      2  C   UNL     1       0.669  -6.479  -2.190  0.00  0.00    +0.196 C 
ATOM      3  N   UNL     1       0.525  -5.894  -3.420  0.00  0.00    -0.297 N 
ATOM      4  C   UNL     1       0.596  -4.513  -3.544  0.00  0.00    +0.231 A 
ATOM      5  N   UNL     1       0.853  -3.780  -2.472  0.00  0.00    -0.217 NA
ATOM      6  C   UNL     1       0.927  -2.462  -2.555  0.00  0.00    +0.044 A 
ATOM      7  C   UNL     1       0.732  -1.851  -3.784  0.00  0.00    +0.046 A 
ATOM      8  C   UNL     1       0.465  -2.648  -4.886  0.00  0.00    +0.044 A 
ATOM      9  N   UNL     1       0.410  -3.961  -4.733  0.00  0.00    -0.217 NA
ATOM     10  C   UNL     1       0.246  -2.028  -6.241  0.00  0.00    +0.066 C 
ATOM     11  C   UNL     1       1.219  -1.635  -1.329  0.00  0.00    +0.066 C 
ATOM     12  N   UNL     1       1.912  -6.811  -1.733  0.00  0.00    -0.355 N 
ATOM     13  H   UNL     1       0.375  -6.445  -4.204  0.00  0.00    +0.171 HD
ATOM     14  H   UNL     1       2.009  -7.284  -0.892  0.00  0.00    +0.163 HD
ENDROOT
BRANCH  12  15
ATOM     15  C   UNL     1       3.102  -6.450  -2.514  0.00  0.00    +0.079 C 
ATOM     16  C   UNL     1       3.347  -7.521  -3.580  0.00  0.00    +0.011 C 
ATOM     17  C   UNL     1       4.590  -7.166  -4.394  0.00  0.00    -0.071 C 
ATOM     18  N   UNL     1       5.754  -6.943  -3.549  0.00  0.00    +0.386 N 
ATOM     19  C   UNL     1       5.586  -6.098  -2.378  0.00  0.00    -0.071 C 
ATOM     20  C   UNL     1       4.318  -6.407  -1.590  0.00  0.00    +0.011 C 
ATOM     21  C   UNL     1       6.786  -6.364  -1.437  0.00  0.00    -0.010 C 
ATOM     22  C   UNL     1       5.626  -4.611  -2.742  0.00  0.00    -0.010 C 
ATOM     23  C   UNL     1       4.303  -5.973  -5.305  0.00  0.00    -0.010 C 
ATOM     24  C   UNL     1       4.901  -8.375  -5.307  0.00  0.00    -0.010 C 
ATOM     25  H   UNL     1       6.106  -7.853  -3.241  0.00  0.00    -0.084 HD
ATOM     26  H   UNL     1       6.500  -6.549  -4.127  0.00  0.00    -0.084 HD
ENDBRANCH  12  15
BRANCH   1  27
ATOM     27  C   UNL     1      -1.624  -6.550  -1.956  0.00  0.00    +0.161 C 
ATOM     28  S   UNL     1      -1.815  -6.135  -3.605  0.00  0.00    -0.016 S 
BRANCH  27  29
ATOM     29  N   UNL     1      -2.707  -6.703  -1.169  0.00  0.00    -0.295 N 
ATOM     30  H   UNL     1      -2.598  -6.906  -0.227  0.00  0.00    +0.154 HD
BRANCH  29  35
ATOM     31  C   UNL     1      -7.908  -6.167  -3.369  0.00  0.00    +0.044 C 
ATOM     32  C   UNL     1      -6.526  -6.309  -2.784  0.00  0.00    -0.047 A 
ATOM     33  C   UNL     1      -5.554  -7.011  -3.474  0.00  0.00    +0.005 A 
ATOM     34  C   UNL     1      -4.287  -7.143  -2.942  0.00  0.00    +0.023 A 
ATOM     35  C   UNL     1      -3.990  -6.571  -1.712  0.00  0.00    +0.033 A 
ATOM     36  C   UNL     1      -4.968  -5.867  -1.021  0.00  0.00    +0.027 A 
ATOM     37  C   UNL     1      -6.232  -5.734  -1.562  0.00  0.00    -0.046 A 
ATOM     38  C   UNL     1      -7.292  -4.965  -0.817  0.00  0.00    +0.044 C 
ENDBRANCH  29  35
ENDBRANCH  27  29
ENDBRANCH   1  27
TORSDOF 4
