REMARK  Name = ZINC60208406
REMARK  6 active torsions:
REMARK  status: ('A' for Active; 'I' for Inactive)
REMARK    1  A    between atoms: C_1  and  C_2
REMARK    2  A    between atoms: C_7  and  C_9
REMARK    3  A    between atoms: C_7  and  C_10
REMARK    4  A    between atoms: N_13  and  C_17
REMARK    5  A    between atoms: C_17  and  C_18
REMARK    6  A    between atoms: N_20  and  C_21
REMARK                            x       y       z     vdW  Elec       q    Type
REMARK                         _______ _______ _______ _____ _____    ______ ____
ROOT
ATOM      1  C   UNL     1      -0.191  -3.442  -4.537  0.00  0.00    +0.214 C 
ENDROOT
BRANCH   1  13
ATOM      2  C   UNL     1       0.100   1.611   0.425  0.00  0.00    +0.007 C 
ATOM      3  C   UNL     1      -0.052   0.096   0.276  0.00  0.00    -0.011 C 
ATOM      4  C   UNL     1       0.486  -0.339  -1.090  0.00  0.00    +0.038 C 
ATOM      5  C   UNL     1       0.355  -1.851  -1.232  0.00  0.00    +0.113 C 
ATOM      6  C   UNL     1       1.120  -2.565  -0.123  0.00  0.00    +0.041 C 
ATOM      7  C   UNL     1       0.579  -2.123   1.239  0.00  0.00    -0.032 C 
ATOM      8  C   UNL     1       0.737  -0.607   1.381  0.00  0.00    +0.009 C 
ATOM      9  C   UNL     1      -0.902  -2.493   1.345  0.00  0.00    +0.011 C 
ATOM     10  C   UNL     1       1.361  -2.824   2.351  0.00  0.00    +0.011 C 
ATOM     11  C   UNL     1       0.849  -2.299  -2.587  0.00  0.00    +0.247 C 
ATOM     12  O   UNL     1       1.968  -2.177  -3.038  0.00  0.00    -0.273 OA
ATOM     13  N   UNL     1      -0.217  -2.865  -3.191  0.00  0.00    -0.215 N 
ATOM     14  C   UNL     1      -1.301  -2.833  -2.407  0.00  0.00    +0.310 C 
ATOM     15  O   UNL     1      -2.383  -3.282  -2.731  0.00  0.00    -0.252 OA
ATOM     16  N   UNL     1      -1.059  -2.248  -1.218  0.00  0.00    -0.285 N 
ATOM     17  H   UNL     1      -1.693  -2.114  -0.496  0.00  0.00    +0.151 HD
ENDBRANCH   1  13
BRANCH   1  18
ATOM     18  C   UNL     1       0.177  -4.900  -4.452  0.00  0.00    +0.235 C 
ATOM     19  O   UNL     1       0.396  -5.408  -3.372  0.00  0.00    -0.274 OA
ATOM     20  N   UNL     1       0.263  -5.641  -5.574  0.00  0.00    -0.284 N 
ATOM     21  H   UNL     1       0.163  -5.219  -6.442  0.00  0.00    +0.155 HD
BRANCH  20  22
ATOM     22  C   UNL     1       0.496  -7.018  -5.488  0.00  0.00    +0.034 A 
ATOM     23  C   UNL     1      -0.028  -7.744  -4.419  0.00  0.00    +0.025 A 
ATOM     24  C   UNL     1       0.185  -9.089  -4.313  0.00  0.00    +0.030 A 
ATOM     25  C   UNL     1       0.936  -9.754  -5.285  0.00  0.00    +0.078 A 
ATOM     26  C   UNL     1       1.468  -9.023  -6.371  0.00  0.00    +0.066 A 
ATOM     27  C   UNL     1       1.239  -7.653  -6.469  0.00  0.00    +0.038 A 
ATOM     28  C   UNL     1       2.254  -9.754  -7.376  0.00  0.00    +0.259 A 
ATOM     29  O   UNL     1       2.740  -9.184  -8.336  0.00  0.00    -0.267 OA
ATOM     30  N   UNL     1       2.416 -11.085  -7.193  0.00  0.00    -0.313 N 
ATOM     31  H   UNL     1       2.929 -11.600  -7.836  0.00  0.00    +0.170 HD
ATOM     32  C   UNL     1       1.867 -11.707  -6.116  0.00  0.00    +0.199 A 
ATOM     33  N   UNL     1       1.169 -11.089  -5.213  0.00  0.00    -0.237 NA
ENDBRANCH  20  22
ENDBRANCH   1  18
TORSDOF 3
