REMARK  Name = ZINC01117368
REMARK  14 active torsions:
REMARK  status: ('A' for Active; 'I' for Inactive)
REMARK    1  A    between atoms: C_1  and  C_2
REMARK    2  A    between atoms: C_6  and  O_9
REMARK    3  A    between atoms: C_7  and  C_8
REMARK    4  A    between atoms: O_9  and  C_10
REMARK    5  A    between atoms: C_10  and  C_11
REMARK    6  A    between atoms: N_13  and  C_14
REMARK    7  A    between atoms: C_14  and  N_16
REMARK    8  A    between atoms: N_16  and  C_17
REMARK    9  A    between atoms: C_20  and  N_25
REMARK   10  A    between atoms: C_21  and  O_23
REMARK   11  A    between atoms: O_23  and  C_24
REMARK   12  A    between atoms: C_26  and  C_28
REMARK   13  A    between atoms: C_28  and  C_29
REMARK   14  A    between atoms: C_28  and  C_30
REMARK                            x       y       z     vdW  Elec       q    Type
REMARK                         _______ _______ _______ _____ _____    ______ ____
ROOT
ATOM      1  N   UNL     1       0.855  -6.220  -1.417  0.00  0.00    -0.296 N 
ATOM      2  H   UNL     1       1.365  -6.631  -2.132  0.00  0.00    +0.154 HD
ENDROOT
BRANCH   1   3
ATOM      3  C   UNL     1       0.814  -4.825  -1.300  0.00  0.00    +0.036 A 
ATOM      4  C   UNL     1       0.950  -4.228  -0.054  0.00  0.00    +0.025 A 
ATOM      5  C   UNL     1       0.910  -2.852   0.063  0.00  0.00    +0.029 A 
ATOM      6  C   UNL     1       0.732  -2.064  -1.064  0.00  0.00    +0.076 A 
ATOM      7  C   UNL     1       0.589  -2.660  -2.315  0.00  0.00    +0.143 A 
ATOM      8  C   UNL     1       0.636  -4.039  -2.431  0.00  0.00    +0.070 A 
BRANCH   6   9
ATOM      9  N   UNL     1       0.690  -0.666  -0.944  0.00  0.00    -0.282 N 
ATOM     10  C   UNL     1       1.401  -0.051   0.021  0.00  0.00    +0.220 C 
ATOM     11  O   UNL     1       2.037  -0.709   0.818  0.00  0.00    -0.275 OA
ATOM     12  H   UNL     1       0.149  -0.143  -1.556  0.00  0.00    +0.155 HD
BRANCH  10  13
ATOM     13  C   UNL     1       1.406   1.453   0.112  0.00  0.00    +0.069 C 
ATOM     14  C   UNL     1      -0.023   1.956   0.327  0.00  0.00    +0.017 C 
ATOM     15  C   UNL     1       2.283   1.891   1.286  0.00  0.00    +0.017 C 
ENDBRANCH  10  13
ENDBRANCH   6   9
BRANCH   7  16
ATOM     16  O   UNL     1       0.409  -1.889  -3.420  0.00  0.00    -0.493 OA
ATOM     17  C   UNL     1       0.270  -2.569  -4.670  0.00  0.00    +0.277 C 
ENDBRANCH   7  16
ENDBRANCH   1   3
BRANCH   1  18
ATOM     18  C   UNL     1       0.189  -6.989  -0.534  0.00  0.00    +0.141 C 
ATOM     19  S   UNL     1      -0.635  -6.267   0.781  0.00  0.00    -0.018 S 
BRANCH  18  22
ATOM     20  C   UNL     1      -0.497  -9.098   0.195  0.00  0.00    +0.256 C 
ATOM     21  O   UNL     1      -1.080  -8.587   1.127  0.00  0.00    -0.272 OA
ATOM     22  N   UNL     1       0.170  -8.328  -0.688  0.00  0.00    -0.265 N 
ATOM     23  H   UNL     1       0.636  -8.738  -1.433  0.00  0.00    +0.157 HD
BRANCH  20  24
ATOM     24  C   UNL     1      -0.518 -10.596   0.023  0.00  0.00    +0.325 C 
BRANCH  24  25
ATOM     25  O   UNL     1      -1.284 -11.185   1.076  0.00  0.00    -0.482 OA
BRANCH  25  31
ATOM     26  C   UNL     1      -3.043 -15.248   3.131  0.00  0.00    +0.044 C 
ATOM     27  C   UNL     1      -2.252 -14.553   2.053  0.00  0.00    -0.044 A 
ATOM     28  C   UNL     1      -1.645 -15.294   1.055  0.00  0.00    +0.004 A 
ATOM     29  C   UNL     1      -0.918 -14.661   0.065  0.00  0.00    +0.004 A 
ATOM     30  C   UNL     1      -0.795 -13.284   0.070  0.00  0.00    +0.046 A 
ATOM     31  C   UNL     1      -1.403 -12.539   1.069  0.00  0.00    +0.124 A 
ATOM     32  C   UNL     1      -2.127 -13.178   2.065  0.00  0.00    -0.006 A 
ATOM     33  C   UNL     1      -2.783 -12.371   3.156  0.00  0.00    +0.048 C 
ENDBRANCH  25  31
ENDBRANCH  24  25
ENDBRANCH  20  24
ENDBRANCH  18  22
ENDBRANCH   1  18
TORSDOF 9
