REMARK  Name = ZINC63960625
REMARK  10 active torsions:
REMARK  status: ('A' for Active; 'I' for Inactive)
REMARK    1  A    between atoms: C_1  and  C_2
REMARK    2  A    between atoms: C_5  and  C_8
REMARK    3  A    between atoms: N_10  and  C_11
REMARK    4  A    between atoms: C_11  and  C_12
REMARK    5  A    between atoms: C_11  and  C_15
REMARK    6  A    between atoms: C_12  and  C_13
REMARK    7  A    between atoms: C_12  and  C_14
REMARK    8  A    between atoms: N_17  and  C_18
REMARK    9  A    between atoms: C_20  and  C_25
REMARK   10  A    between atoms: C_23  and  C_24
REMARK                            x       y       z     vdW  Elec       q    Type
REMARK                         _______ _______ _______ _____ _____    ______ ____
ROOT
ATOM      1  C   UNL     1       0.591  -7.094   0.571  0.00  0.00    +0.162 C 
ENDROOT
BRANCH   1   4
ATOM      2  C   UNL     1       1.653  -6.159  -1.413  0.00  0.00    +0.245 C 
ATOM      3  O   UNL     1       0.799  -6.699  -2.088  0.00  0.00    -0.270 OA
ATOM      4  N   UNL     1       1.637  -6.295  -0.072  0.00  0.00    -0.300 N 
ATOM      5  H   UNL     1       2.319  -5.865   0.468  0.00  0.00    +0.150 HD
BRANCH   2  10
ATOM      6  C   UNL     1       5.764  -3.021  -3.937  0.00  0.00    +0.044 C 
ATOM      7  C   UNL     1       4.688  -3.843  -3.276  0.00  0.00    -0.050 A 
ATOM      8  C   UNL     1       3.717  -4.456  -4.048  0.00  0.00    +0.004 A 
ATOM      9  C   UNL     1       2.729  -5.210  -3.449  0.00  0.00    +0.013 A 
ATOM     10  C   UNL     1       2.710  -5.353  -2.061  0.00  0.00    +0.037 A 
ATOM     11  C   UNL     1       3.692  -4.732  -1.288  0.00  0.00    +0.013 A 
ATOM     12  C   UNL     1       4.678  -3.986  -1.900  0.00  0.00    +0.004 A 
ENDBRANCH   2  10
ENDBRANCH   1   4
BRANCH   1  13
ATOM     13  C   UNL     1       1.091  -7.602   1.899  0.00  0.00    +0.238 C 
ATOM     14  O   UNL     1       2.025  -7.054   2.445  0.00  0.00    -0.273 OA
ATOM     15  N   UNL     1       0.500  -8.665   2.479  0.00  0.00    -0.284 N 
ATOM     16  H   UNL     1      -0.297  -9.053   2.084  0.00  0.00    +0.155 HD
BRANCH  15  17
ATOM     17  C   UNL     1       1.035  -9.210   3.651  0.00  0.00    +0.038 A 
ATOM     18  C   UNL     1       1.555  -8.376   4.629  0.00  0.00    +0.042 A 
ATOM     19  C   UNL     1       2.087  -8.924   5.796  0.00  0.00    +0.054 A 
ATOM     20  C   UNL     1       2.093 -10.309   5.972  0.00  0.00    +0.019 A 
ATOM     21  C   UNL     1       1.574 -11.131   4.992  0.00  0.00    +0.006 A 
ATOM     22  C   UNL     1       1.041 -10.587   3.838  0.00  0.00    -0.029 A 
ATOM     23  C   UNL     1       0.470 -11.491   2.776  0.00  0.00    +0.045 C 
BRANCH  19  24
ATOM     24  C   UNL     1       2.626  -8.069   6.811  0.00  0.00    +0.099 C 
ATOM     25  N   UNL     1       3.054  -7.390   7.616  0.00  0.00    -0.191 NA
ENDBRANCH  19  24
ENDBRANCH  15  17
ENDBRANCH   1  13
BRANCH   1  26
ATOM     26  C   UNL     1      -0.650  -6.226   0.791  0.00  0.00    +0.012 C 
ATOM     27  C   UNL     1      -0.276  -5.007   1.637  0.00  0.00    +0.009 C 
ATOM     28  C   UNL     1      -1.194  -5.761  -0.561  0.00  0.00    +0.009 C 
ENDBRANCH   1  26
TORSDOF 6
