REMARK  Name = ZINC04150870
REMARK  5 active torsions:
REMARK  status: ('A' for Active; 'I' for Inactive)
REMARK    1  A    between atoms: C_1  and  C_2
REMARK    2  A    between atoms: C_7  and  C_17
REMARK    3  A    between atoms: C_28  and  C_30
REMARK    4  A    between atoms: C_30  and  O_32
REMARK    5  A    between atoms: O_32  and  C_33
REMARK                            x       y       z     vdW  Elec       q    Type
REMARK                         _______ _______ _______ _____ _____    ______ ____
ROOT
ATOM      1  C   UNL     1      -0.847   3.455   2.071  0.00  0.00    +0.009 C 
ATOM      2  C   UNL     1      -1.244   3.665   0.608  0.00  0.00    +0.013 C 
ATOM      3  C   UNL     1      -1.363   2.314  -0.094  0.00  0.00    +0.055 C 
ATOM      4  C   UNL     1      -0.034   1.579  -0.036  0.00  0.00    +0.017 C 
ATOM      5  C   UNL     1       1.122   2.264  -0.048  0.00  0.00    +0.037 C 
ATOM      6  C   UNL     1       2.508   1.664   0.006  0.00  0.00    +0.136 C 
ATOM      7  N   UNL     1       2.547   0.230  -0.188  0.00  0.00    -0.331 N 
ATOM      8  C   UNL     1       1.951  -0.632   0.728  0.00  0.00    +0.049 A 
ATOM      9  C   UNL     1       2.710  -1.490   1.510  0.00  0.00    +0.025 A 
ATOM     10  C   UNL     1       2.085  -2.271   2.466  0.00  0.00    +0.002 A 
ATOM     11  C   UNL     1       0.715  -2.202   2.643  0.00  0.00    +0.002 A 
ATOM     12  C   UNL     1      -0.049  -1.365   1.847  0.00  0.00    +0.025 A 
ATOM     13  C   UNL     1       0.573  -0.598   0.878  0.00  0.00    +0.052 A 
ATOM     14  N   UNL     1      -0.137   0.226   0.010  0.00  0.00    -0.316 N 
ATOM     15  C   UNL     1       1.114   3.678  -0.101  0.00  0.00    +0.177 C 
ATOM     16  O   UNL     1       2.175   4.269  -0.137  0.00  0.00    -0.291 OA
ATOM     17  C   UNL     1      -0.158   4.472  -0.114  0.00  0.00    +0.171 C 
ATOM     18  H   UNL     1       2.994  -0.135  -0.968  0.00  0.00    +0.147 HD
ATOM     19  H   UNL     1      -0.751  -0.198  -0.609  0.00  0.00    +0.152 HD
ENDROOT
BRANCH   6  20
ATOM     20  C   UNL     1       3.111   1.981   1.350  0.00  0.00    -0.019 A 
ATOM     21  C   UNL     1       4.217   2.807   1.432  0.00  0.00    +0.009 A 
ATOM     22  C   UNL     1       4.773   3.101   2.663  0.00  0.00    +0.050 A 
ATOM     23  C   UNL     1       4.224   2.568   3.818  0.00  0.00    +0.166 A 
ATOM     24  C   UNL     1       3.110   1.736   3.735  0.00  0.00    +0.167 A 
ATOM     25  C   UNL     1       2.554   1.450   2.498  0.00  0.00    +0.055 A 
ATOM     26  O   UNL     1       2.763   1.345   4.995  0.00  0.00    -0.453 OA
ATOM     27  C   UNL     1       3.917   1.614   5.813  0.00  0.00    +0.466 C 
ATOM     28  O   UNL     1       4.574   2.698   5.130  0.00  0.00    -0.453 OA
ENDBRANCH   6  20
BRANCH  17  29
ATOM     29  C   UNL     1       0.058   5.785   0.594  0.00  0.00    +0.318 C 
ATOM     30  O   UNL     1      -0.600   6.061   1.569  0.00  0.00    -0.250 OA
BRANCH  29  31
ATOM     31  O   UNL     1       0.981   6.647   0.141  0.00  0.00    -0.467 OA
ATOM     32  C   UNL     1       1.134   7.893   0.872  0.00  0.00    +0.280 C 
ENDBRANCH  29  31
ENDBRANCH  17  29
TORSDOF 3
