REMARK  Name = ZINC35851991
REMARK  10 active torsions:
REMARK  status: ('A' for Active; 'I' for Inactive)
REMARK    1  A    between atoms: C_1  and  C_2
REMARK    2  A    between atoms: C_2  and  O_3
REMARK    3  A    between atoms: O_3  and  C_4
REMARK    4  A    between atoms: C_6  and  C_11
REMARK    5  A    between atoms: C_9  and  O_10
REMARK    6  A    between atoms: C_19  and  O_34
REMARK    7  A    between atoms: N_22  and  C_23
REMARK    8  A    between atoms: C_23  and  C_24
REMARK    9  A    between atoms: N_26  and  C_27
REMARK   10  A    between atoms: C_27  and  C_28
REMARK                            x       y       z     vdW  Elec       q    Type
REMARK                         _______ _______ _______ _____ _____    ______ ____
ROOT
ATOM      1  C   UNL     1      -0.251  -4.980   0.548  0.00  0.00    -0.031 C 
ATOM      2  C   UNL     1      -1.654  -5.410   0.118  0.00  0.00    +0.011 C 
ATOM      3  C   UNL     1      -2.583  -4.197   0.061  0.00  0.00    +0.005 C 
ATOM      4  C   UNL     1      -3.982  -4.655  -0.360  0.00  0.00    +0.000 C 
ATOM      5  C   UNL     1      -3.916  -5.319  -1.736  0.00  0.00    +0.003 C 
ATOM      6  C   UNL     1      -2.973  -6.524  -1.683  0.00  0.00    +0.035 C 
ATOM      7  C   UNL     1      -1.579  -6.051  -1.271  0.00  0.00    +0.066 C 
ATOM      8  C   UNL     1      -0.616  -7.239  -1.219  0.00  0.00    +0.016 C 
ATOM      9  C   UNL     1       0.752  -6.751  -0.735  0.00  0.00    -0.075 C 
ATOM     10  N   UNL     1       0.625  -6.157   0.601  0.00  0.00    +0.390 N 
ATOM     11  H   UNL     1       0.233  -6.838   1.234  0.00  0.00    -0.080 HD
ENDROOT
BRANCH   1  14
ATOM     12  C   UNL     1       0.125  -1.894  -1.599  0.00  0.00    +0.162 A 
ATOM     13  C   UNL     1      -0.378  -2.806  -0.686  0.00  0.00    +0.051 A 
ATOM     14  C   UNL     1       0.297  -3.989  -0.446  0.00  0.00    -0.057 A 
ATOM     15  C   UNL     1       1.475  -4.264  -1.116  0.00  0.00    +0.006 A 
ATOM     16  C   UNL     1       1.983  -3.358  -2.028  0.00  0.00    +0.049 A 
ATOM     17  C   UNL     1       1.308  -2.174  -2.278  0.00  0.00    +0.158 A 
BRANCH  17  18
ATOM     18  O   UNL     1       1.802  -1.284  -3.180  0.00  0.00    -0.503 OA
ATOM     19  H   UNL     1       2.407  -0.633  -2.798  0.00  0.00    +0.292 HD
ENDBRANCH  17  18
BRANCH  12  20
ATOM     20  O   UNL     1      -0.538  -0.731  -1.837  0.00  0.00    -0.489 OA
BRANCH  20  22
ATOM     21  C   UNL     1      -2.344   0.839  -1.502  0.00  0.00    +0.048 C 
ATOM     22  C   UNL     1      -1.745  -0.511  -1.104  0.00  0.00    +0.226 C 
ENDBRANCH  20  22
ENDBRANCH  12  20
ENDBRANCH   1  14
BRANCH   7  23
ATOM     23  O   UNL     1      -1.101  -5.090  -2.215  0.00  0.00    -0.388 OA
ATOM     24  H   UNL     1      -1.028  -5.428  -3.118  0.00  0.00    +0.210 HD
ENDBRANCH   7  23
BRANCH  10  25
ATOM     25  C   UNL     1       1.953  -5.754   1.084  0.00  0.00    +0.019 C 
BRANCH  25  26
ATOM     26  C   UNL     1       2.832  -6.972   1.211  0.00  0.00    +0.197 C 
ATOM     27  O   UNL     1       2.395  -8.067   0.928  0.00  0.00    -0.278 OA
ATOM     28  N   UNL     1       4.103  -6.844   1.640  0.00  0.00    -0.313 N 
ATOM     29  H   UNL     1       4.452  -5.968   1.867  0.00  0.00    +0.149 HD
BRANCH  28  30
ATOM     30  C   UNL     1       4.957  -8.027   1.764  0.00  0.00    +0.139 C 
BRANCH  30  31
ATOM     31  C   UNL     1       6.319  -7.614   2.260  0.00  0.00    -0.030 A 
ATOM     32  C   UNL     1       7.309  -7.273   1.357  0.00  0.00    +0.005 A 
ATOM     33  C   UNL     1       8.558  -6.894   1.811  0.00  0.00    +0.000 A 
ATOM     34  C   UNL     1       8.818  -6.856   3.168  0.00  0.00    +0.000 A 
ATOM     35  C   UNL     1       7.828  -7.197   4.071  0.00  0.00    +0.000 A 
ATOM     36  C   UNL     1       6.577  -7.571   3.617  0.00  0.00    +0.005 A 
ENDBRANCH  30  31
ENDBRANCH  28  30
ENDBRANCH  25  26
ENDBRANCH  10  25
TORSDOF 9
