REMARK  Name = ZINC58986269
REMARK  7 active torsions:
REMARK  status: ('A' for Active; 'I' for Inactive)
REMARK    1  A    between atoms: C_1  and  C_2
REMARK    2  A    between atoms: C_5  and  C_8
REMARK    3  A    between atoms: C_11  and  S_14
REMARK    4  A    between atoms: N_12  and  N_13
REMARK    5  A    between atoms: S_14  and  C_15
REMARK    6  A    between atoms: C_15  and  C_17
REMARK    7  A    between atoms: C_15  and  C_18
REMARK                            x       y       z     vdW  Elec       q    Type
REMARK                         _______ _______ _______ _____ _____    ______ ____
ROOT
ATOM      1  S   UNL     1       0.514  -7.829   1.481  0.00  0.00    -0.072 S 
ENDROOT
BRANCH   1   5
ATOM      2  C   UNL     1       0.058  -4.251  -0.021  0.00  0.00    +0.182 A 
ATOM      3  N   UNL     1      -0.205  -5.029  -1.045  0.00  0.00    -0.127 NA
ATOM      4  N   UNL     1      -0.094  -6.262  -0.700  0.00  0.00    -0.121 NA
ATOM      5  C   UNL     1       0.247  -6.346   0.567  0.00  0.00    +0.209 A 
ATOM      6  N   UNL     1       0.361  -5.071   1.041  0.00  0.00    -0.224 N 
BRANCH   2  11
ATOM      7  C   UNL     1      -0.018   1.503   0.010  0.00  0.00    +0.044 C 
ATOM      8  C   UNL     1       0.002  -0.004   0.002  0.00  0.00    -0.050 A 
ATOM      9  C   UNL     1       0.006  -0.686  -1.202  0.00  0.00    +0.004 A 
ATOM     10  C   UNL     1       0.024  -2.066  -1.216  0.00  0.00    +0.012 A 
ATOM     11  C   UNL     1       0.039  -2.773  -0.013  0.00  0.00    +0.021 A 
ATOM     12  C   UNL     1       0.036  -2.079   1.198  0.00  0.00    +0.012 A 
ATOM     13  C   UNL     1       0.023  -0.699   1.198  0.00  0.00    +0.004 A 
ENDBRANCH   2  11
BRANCH   6  14
ATOM     14  N   UNL     1       0.701  -4.689   2.308  0.00  0.00    -0.295 N 
ATOM     15  H   UNL     1      -0.117  -4.601   2.891  0.00  0.00    +0.163 HD
ATOM     16  H   UNL     1       1.367  -5.330   2.713  0.00  0.00    +0.163 HD
ENDBRANCH   6  14
ENDBRANCH   1   5
BRANCH   1  17
ATOM     17  C   UNL     1       0.210  -9.149   0.274  0.00  0.00    +0.137 C 
ATOM     18  C   UNL     1       1.267  -9.084  -0.830  0.00  0.00    +0.029 C 
BRANCH  17  19
ATOM     19  C   UNL     1       0.286 -10.487   0.963  0.00  0.00    +0.232 C 
ATOM     20  O   UNL     1       0.861 -10.590   2.026  0.00  0.00    -0.274 OA
ATOM     21  N   UNL     1      -0.285 -11.569   0.399  0.00  0.00    -0.264 N 
ATOM     22  C   UNL     1      -0.215 -12.800   1.032  0.00  0.00    +0.165 A 
ATOM     23  N   UNL     1       0.351 -13.105   2.176  0.00  0.00    -0.225 NA
ATOM     24  C   UNL     1       0.342 -14.359   2.679  0.00  0.00    +0.080 A 
ATOM     25  C   UNL     1       0.911 -14.819   3.889  0.00  0.00    +0.029 A 
ATOM     26  C   UNL     1       0.811 -16.136   4.253  0.00  0.00    +0.002 A 
ATOM     27  C   UNL     1       0.154 -17.061   3.456  0.00  0.00    +0.001 A 
ATOM     28  C   UNL     1      -0.415 -16.646   2.265  0.00  0.00    +0.017 A 
ATOM     29  C   UNL     1      -0.320 -15.329   1.892  0.00  0.00    +0.041 A 
ATOM     30  S   UNL     1      -0.880 -14.372   0.504  0.00  0.00    -0.052 S 
ATOM     31  H   UNL     1      -0.745 -11.487  -0.451  0.00  0.00    +0.157 HD
ENDBRANCH  17  19
ENDBRANCH   1  17
TORSDOF 5
