REMARK  Name = ZINC18286168
REMARK  4 active torsions:
REMARK  status: ('A' for Active; 'I' for Inactive)
REMARK    1  A    between atoms: C_5  and  N_7
REMARK    2  A    between atoms: C_11  and  N_15
REMARK    3  A    between atoms: C_18  and  C_21
REMARK    4  A    between atoms: C_18  and  N_24
REMARK                            x       y       z     vdW  Elec       q    Type
REMARK                         _______ _______ _______ _____ _____    ______ ____
ROOT
ATOM      1  N   UNL     1       2.837  -5.063  -0.989  0.00  0.00    -0.291 NA
ATOM      2  C   UNL     1       2.864  -6.486  -0.630  0.00  0.00    +0.084 C 
ATOM      3  C   UNL     1       4.063  -7.160  -1.301  0.00  0.00    +0.013 C 
ATOM      4  C   UNL     1       3.949  -7.000  -2.819  0.00  0.00    +0.015 C 
ATOM      5  C   UNL     1       3.874  -5.509  -3.163  0.00  0.00    +0.013 C 
ATOM      6  C   UNL     1       2.680  -4.883  -2.438  0.00  0.00    +0.084 C 
ENDROOT
BRANCH   1  11
ATOM      7  N   UNL     1       2.123  -2.285   0.755  0.00  0.00    -0.208 N 
ATOM      8  C   UNL     1       2.165  -3.142   1.783  0.00  0.00    +0.228 C 
ATOM      9  O   UNL     1       2.343  -2.838   2.943  0.00  0.00    -0.275 OA
ATOM     10  C   UNL     1       1.954  -4.548   1.267  0.00  0.00    +0.125 C 
ATOM     11  C   UNL     1       1.781  -4.354  -0.253  0.00  0.00    +0.153 C 
ATOM     12  C   UNL     1       1.906  -2.857  -0.436  0.00  0.00    +0.244 C 
ATOM     13  O   UNL     1       1.826  -2.270  -1.493  0.00  0.00    -0.273 OA
BRANCH   7  18
ATOM     14  C   UNL     1       1.344   1.270   1.303  0.00  0.00    +0.002 A 
ATOM     15  C   UNL     1       2.606   1.830   1.226  0.00  0.00    +0.002 A 
ATOM     16  C   UNL     1       3.708   1.029   0.992  0.00  0.00    +0.022 A 
ATOM     17  C   UNL     1       3.552  -0.336   0.835  0.00  0.00    +0.063 A 
ATOM     18  C   UNL     1       2.285  -0.901   0.913  0.00  0.00    +0.062 A 
ATOM     19  C   UNL     1       1.181  -0.093   1.148  0.00  0.00    +0.025 A 
ATOM     20 CL   UNL     1       4.936  -1.341   0.541  0.00  0.00    -0.082 Cl
ENDBRANCH   7  18
ENDBRANCH   1  11
BRANCH   4  21
ATOM     21  N   UNL     1       5.127  -7.594  -3.466  0.00  0.00    +0.389 N 
ATOM     22  C   UNL     1       6.341  -6.945  -2.957  0.00  0.00    -0.077 C 
ATOM     23  C   UNL     1       7.575  -7.615  -3.567  0.00  0.00    -0.019 C 
ATOM     24  C   UNL     1       7.522  -7.480  -5.091  0.00  0.00    -0.004 C 
ATOM     25  C   UNL     1       6.216  -8.094  -5.603  0.00  0.00    -0.019 C 
ATOM     26  C   UNL     1       5.032  -7.406  -4.918  0.00  0.00    -0.077 C 
ATOM     27  H   UNL     1       5.162  -8.580  -3.257  0.00  0.00    -0.080 HD
ENDBRANCH   4  21
BRANCH   4  28
ATOM     28  C   UNL     1       2.702  -7.692  -3.307  0.00  0.00    +0.200 C 
ATOM     29  O   UNL     1       1.702  -7.047  -3.540  0.00  0.00    -0.278 OA
ATOM     30  N   UNL     1       2.699  -9.028  -3.483  0.00  0.00    -0.330 N 
ATOM     31  H   UNL     1       3.474  -9.553  -3.230  0.00  0.00    +0.145 HD
ATOM     32  H   UNL     1       1.920  -9.465  -3.863  0.00  0.00    +0.145 HD
ENDBRANCH   4  28
TORSDOF 4
