REMARK  Name = ZINC63991440
REMARK  5 active torsions:
REMARK  status: ('A' for Active; 'I' for Inactive)
REMARK    1  A    between atoms: C_1  and  C_2
REMARK    2  A    between atoms: C_12  and  S_14
REMARK    3  A    between atoms: S_14  and  C_15
REMARK    4  A    between atoms: C_18  and  C_21
REMARK    5  A    between atoms: N_19  and  N_20
REMARK                            x       y       z     vdW  Elec       q    Type
REMARK                         _______ _______ _______ _____ _____    ______ ____
ROOT
ATOM      1  C   UNL     1      -0.018   1.503   0.010  0.00  0.00    +0.041 C 
ATOM      2  C   UNL     1       0.002  -0.004   0.002  0.00  0.00    -0.042 C 
ATOM      3  C   UNL     1       0.006  -0.707  -1.166  0.00  0.00    -0.003 A 
ATOM      4  C   UNL     1      -0.008  -0.018  -2.457  0.00  0.00    +0.010 A 
ATOM      5  C   UNL     1      -0.003  -0.760  -3.595  0.00  0.00    +0.001 A 
ATOM      6  C   UNL     1       0.015  -2.154  -3.553  0.00  0.00    +0.002 A 
ATOM      7  C   UNL     1       0.029  -2.853  -2.388  0.00  0.00    +0.024 A 
ATOM      8  C   UNL     1       0.026  -2.180  -1.152  0.00  0.00    +0.041 A 
ATOM      9  N   UNL     1       0.041  -2.876  -0.015  0.00  0.00    -0.284 N 
ATOM     10  C   UNL     1       0.038  -2.308   1.179  0.00  0.00    +0.235 C 
ATOM     11  O   UNL     1       0.051  -2.995   2.182  0.00  0.00    -0.274 OA
ATOM     12  C   UNL     1       0.025  -0.800   1.292  0.00  0.00    +0.167 C 
ATOM     13  H   UNL     1       0.053  -3.844  -0.066  0.00  0.00    +0.155 HD
ENDROOT
BRANCH  12  14
ATOM     14  S   UNL     1       1.492  -0.294   2.232  0.00  0.00    -0.067 S 
BRANCH  14  15
ATOM     15  C   UNL     1       1.340  -1.161   3.759  0.00  0.00    +0.210 A 
ATOM     16  N   UNL     1       0.373  -1.982   4.097  0.00  0.00    -0.121 NA
ATOM     17  N   UNL     1       0.581  -2.436   5.282  0.00  0.00    -0.123 NA
ATOM     18  C   UNL     1       1.682  -1.935   5.766  0.00  0.00    +0.255 A 
ATOM     19  N   UNL     1       2.208  -1.110   4.811  0.00  0.00    -0.220 N 
BRANCH  18  20
ATOM     20  C   UNL     1       2.270  -2.219   7.124  0.00  0.00    +0.454 C 
ATOM     21  F   UNL     1       1.658  -3.352   7.670  0.00  0.00    -0.163 F 
ATOM     22  F   UNL     1       3.645  -2.446   6.999  0.00  0.00    -0.163 F 
ATOM     23  F   UNL     1       2.053  -1.122   7.964  0.00  0.00    -0.163 F 
ENDBRANCH  18  20
BRANCH  19  24
ATOM     24  N   UNL     1       3.361  -0.383   4.894  0.00  0.00    -0.295 N 
ATOM     25  H   UNL     1       3.184   0.533   5.279  0.00  0.00    +0.163 HD
ATOM     26  H   UNL     1       4.060  -0.872   5.433  0.00  0.00    +0.163 HD
ENDBRANCH  19  24
ENDBRANCH  14  15
ENDBRANCH  12  14
TORSDOF 4
