REMARK  Name = ZINC62349105
REMARK  6 active torsions:
REMARK  status: ('A' for Active; 'I' for Inactive)
REMARK    1  A    between atoms: C_1  and  C_2
REMARK    2  A    between atoms: C_4  and  N_12
REMARK    3  A    between atoms: C_6  and  C_9
REMARK    4  A    between atoms: C_7  and  C_8
REMARK    5  A    between atoms: C_13  and  C_15
REMARK    6  A    between atoms: C_18  and  O_22
REMARK                            x       y       z     vdW  Elec       q    Type
REMARK                         _______ _______ _______ _____ _____    ______ ____
ROOT
ATOM      1  N   UNL     1       0.063  -2.734  -2.505  0.00  0.00    -0.287 N 
ATOM      2  C   UNL     1       0.204  -4.071  -2.601  0.00  0.00    +0.203 C 
ATOM      3  O   UNL     1       0.408  -4.733  -1.606  0.00  0.00    -0.277 OA
ATOM      4  H   UNL     1      -0.023  -2.196  -3.307  0.00  0.00    +0.155 HD
ENDROOT
BRANCH   1   8
ATOM      5  C   UNL     1       1.190   1.114   0.340  0.00  0.00    +0.044 C 
ATOM      6  C   UNL     1       0.580  -0.252   0.165  0.00  0.00    -0.045 A 
ATOM      7  C   UNL     1       0.600  -0.862  -1.076  0.00  0.00    +0.027 A 
ATOM      8  C   UNL     1       0.040  -2.122  -1.246  0.00  0.00    +0.034 A 
ATOM      9  C   UNL     1      -0.542  -2.773  -0.170  0.00  0.00    +0.038 A 
ATOM     10  C   UNL     1      -0.563  -2.158   1.083  0.00  0.00    +0.068 A 
ATOM     11  C   UNL     1       0.009  -0.893   1.244  0.00  0.00    -0.033 A 
ATOM     12  C   UNL     1      -0.005  -0.226   2.596  0.00  0.00    +0.045 C 
BRANCH  10  13
ATOM     13  C   UNL     1      -1.181  -2.844   2.235  0.00  0.00    +0.387 C 
ATOM     14  O   UNL     1      -0.811  -3.967   2.548  0.00  0.00    -0.241 OA
ATOM     15  O   UNL     1      -2.062  -2.289   2.876  0.00  0.00    -0.241 OA
ENDBRANCH  10  13
ENDBRANCH   1   8
BRANCH   2  16
ATOM     16  C   UNL     1       0.108  -4.744  -3.947  0.00  0.00    +0.019 C 
ATOM     17  C   UNL     1      -1.373  -4.924  -4.339  0.00  0.00    +0.023 C 
ATOM     18  C   UNL     1      -1.386  -6.315  -5.026  0.00  0.00    +0.097 C 
ATOM     19  C   UNL     1      -0.337  -7.087  -4.188  0.00  0.00    -0.050 C 
ATOM     20  N   UNL     1       0.712  -6.087  -3.880  0.00  0.00    +0.388 N 
ATOM     21  H   UNL     1       1.459  -6.157  -4.555  0.00  0.00    -0.085 HD
ATOM     22  H   UNL     1       1.077  -6.250  -2.954  0.00  0.00    -0.085 HD
BRANCH  18  23
ATOM     23  O   UNL     1      -2.675  -6.925  -4.922  0.00  0.00    -0.394 OA
ATOM     24  H   UNL     1      -2.732  -7.796  -5.336  0.00  0.00    +0.210 HD
ENDBRANCH  18  23
ENDBRANCH   2  16
TORSDOF 4
