REMARK  Name = ZINC59384640
REMARK  7 active torsions:
REMARK  status: ('A' for Active; 'I' for Inactive)
REMARK    1  A    between atoms: C_1  and  C_2
REMARK    2  A    between atoms: C_3  and  C_18
REMARK    3  A    between atoms: C_4  and  C_10
REMARK    4  A    between atoms: C_13  and  O_16
REMARK    5  A    between atoms: O_16  and  C_17
REMARK    6  A    between atoms: N_20  and  N_21
REMARK    7  A    between atoms: C_22  and  C_23
REMARK                            x       y       z     vdW  Elec       q    Type
REMARK                         _______ _______ _______ _____ _____    ______ ____
ROOT
ATOM      1  C   UNL     1       0.658   1.367   0.082  0.00  0.00    +0.061 C 
ATOM      2  C   UNL     1       0.360  -0.110   0.045  0.00  0.00    +0.017 C 
ATOM      3  C   UNL     1      -0.922  -0.528  -0.024  0.00  0.00    +0.057 C 
ATOM      4  C   UNL     1      -1.177  -2.021  -0.058  0.00  0.00    +0.139 C 
ATOM      5  N   UNL     1       0.004  -2.900  -0.013  0.00  0.00    -0.315 N 
ATOM      6  C   UNL     1       1.224  -2.333   0.056  0.00  0.00    +0.135 C 
ATOM      7  S   UNL     1       2.606  -3.343   0.108  0.00  0.00    -0.019 S 
ATOM      8  N   UNL     1       1.392  -1.005   0.077  0.00  0.00    -0.300 N 
ATOM      9  H   UNL     1      -0.095  -3.865  -0.032  0.00  0.00    +0.149 HD
ATOM     10  H   UNL     1       2.297  -0.658   0.123  0.00  0.00    +0.154 HD
ENDROOT
BRANCH   4  11
ATOM     11  C   UNL     1      -1.940  -2.333  -1.320  0.00  0.00    -0.022 A 
ATOM     12  C   UNL     1      -1.291  -2.316  -2.541  0.00  0.00    +0.009 A 
ATOM     13  C   UNL     1      -1.988  -2.602  -3.698  0.00  0.00    +0.046 A 
ATOM     14  C   UNL     1      -3.340  -2.906  -3.635  0.00  0.00    +0.120 A 
ATOM     15  C   UNL     1      -3.989  -2.922  -2.409  0.00  0.00    +0.046 A 
ATOM     16  C   UNL     1      -3.286  -2.641  -1.254  0.00  0.00    +0.009 A 
BRANCH  14  17
ATOM     17  O   UNL     1      -4.029  -3.187  -4.773  0.00  0.00    -0.495 OA
ATOM     18  C   UNL     1      -5.418  -3.491  -4.633  0.00  0.00    +0.277 C 
ENDBRANCH  14  17
ENDBRANCH   4  11
BRANCH   3  19
ATOM     19  C   UNL     1      -1.992   0.399  -0.062  0.00  0.00    +0.263 C 
ATOM     20  O   UNL     1      -2.657   0.603   0.937  0.00  0.00    -0.269 OA
ATOM     21  N   UNL     1      -2.275   1.054  -1.206  0.00  0.00    -0.203 N 
ATOM     22  H   UNL     1      -1.795   0.838  -2.020  0.00  0.00    +0.178 HD
BRANCH  21  23
ATOM     23  N   UNL     1      -3.263   2.047  -1.217  0.00  0.00    -0.187 NA
ATOM     24  C   UNL     1      -3.536   2.679  -2.318  0.00  0.00    +0.141 C 
BRANCH  24  25
ATOM     25  C   UNL     1      -4.575   3.724  -2.331  0.00  0.00    +0.030 A 
ATOM     26  C   UNL     1      -4.875   4.402  -3.515  0.00  0.00    +0.012 A 
ATOM     27  C   UNL     1      -5.849   5.378  -3.519  0.00  0.00    +0.001 A 
ATOM     28  C   UNL     1      -6.529   5.689  -2.354  0.00  0.00    +0.003 A 
ATOM     29  C   UNL     1      -6.239   5.024  -1.177  0.00  0.00    +0.039 A 
ATOM     30  C   UNL     1      -5.270   4.038  -1.158  0.00  0.00    +0.132 A 
ATOM     31  F   UNL     1      -4.991   3.385  -0.009  0.00  0.00    -0.205 F 
ENDBRANCH  24  25
ENDBRANCH  21  23
ENDBRANCH   3  19
TORSDOF 5
