REMARK  Name = ZINC66632414
REMARK  7 active torsions:
REMARK  status: ('A' for Active; 'I' for Inactive)
REMARK    1  A    between atoms: C_1  and  O_2
REMARK    2  A    between atoms: O_2  and  C_3
REMARK    3  A    between atoms: C_3  and  C_4
REMARK    4  A    between atoms: C_4  and  N_5
REMARK    5  A    between atoms: N_8  and  N_9
REMARK    6  A    between atoms: C_10  and  C_12
REMARK    7  A    between atoms: C_24  and  C_26
REMARK                            x       y       z     vdW  Elec       q    Type
REMARK                         _______ _______ _______ _____ _____    ______ ____
ROOT
ATOM      1  C   UNL     1       3.913  -3.554  -4.407  0.00  0.00    +0.164 C 
ATOM      2  C   UNL     1       2.832  -3.429  -5.504  0.00  0.00    +0.037 C 
ATOM      3  C   UNL     1       3.515  -4.100  -6.735  0.00  0.00    +0.012 C 
ATOM      4  C   UNL     1       3.381  -5.611  -6.539  0.00  0.00    +0.005 C 
ATOM      5  C   UNL     1       4.354  -6.361  -7.445  0.00  0.00    +0.000 C 
ATOM      6  C   UNL     1       5.784  -5.968  -7.061  0.00  0.00    +0.002 C 
ATOM      7  C   UNL     1       5.961  -4.472  -7.325  0.00  0.00    +0.023 C 
ATOM      8  C   UNL     1       4.970  -3.639  -6.535  0.00  0.00    +0.080 C 
ATOM      9  N   UNL     1       5.212  -3.702  -5.087  0.00  0.00    -0.283 N 
ATOM     10  C   UNL     1       6.407  -3.866  -4.486  0.00  0.00    +0.247 C 
ATOM     11  O   UNL     1       7.426  -3.860  -5.148  0.00  0.00    -0.270 OA
ENDROOT
BRANCH  10  12
ATOM     12  C   UNL     1       6.478  -4.055  -3.021  0.00  0.00    +0.037 A 
ATOM     13  C   UNL     1       5.394  -3.703  -2.216  0.00  0.00    +0.013 A 
ATOM     14  C   UNL     1       5.466  -3.882  -0.850  0.00  0.00    +0.001 A 
ATOM     15  C   UNL     1       6.610  -4.409  -0.278  0.00  0.00    +0.000 A 
ATOM     16  C   UNL     1       7.689  -4.760  -1.070  0.00  0.00    +0.001 A 
ATOM     17  C   UNL     1       7.627  -4.591  -2.438  0.00  0.00    +0.013 A 
ENDBRANCH  10  12
BRANCH   1  19
ATOM     18  N   UNL     1       2.615  -4.757  -2.678  0.00  0.00    -0.232 N 
ATOM     19  C   UNL     1       3.639  -4.766  -3.554  0.00  0.00    +0.250 C 
ATOM     20  O   UNL     1       4.342  -5.750  -3.655  0.00  0.00    -0.272 OA
ATOM     21  H   UNL     1       2.053  -3.970  -2.597  0.00  0.00    +0.173 HD
BRANCH  18  25
ATOM     22  N   UNL     1       0.556  -4.781  -0.897  0.00  0.00    -0.296 N 
ATOM     23  C   UNL     1       1.337  -5.874  -1.010  0.00  0.00    +0.316 C 
ATOM     24  O   UNL     1       1.116  -6.852  -0.321  0.00  0.00    -0.251 OA
ATOM     25  N   UNL     1       2.361  -5.883  -1.885  0.00  0.00    -0.218 N 
ATOM     26  H   UNL     1       0.732  -4.001  -1.446  0.00  0.00    +0.150 HD
ATOM     27  H   UNL     1       2.923  -6.670  -1.966  0.00  0.00    +0.174 HD
BRANCH  22  28
ATOM     28  C   UNL     1      -0.557  -4.771   0.055  0.00  0.00    +0.134 C 
BRANCH  28  29
ATOM     29  C   UNL     1      -1.276  -3.422  -0.016  0.00  0.00    +0.178 C 
BRANCH  29  31
ATOM     30  C   UNL     1      -2.579  -2.036  -1.475  0.00  0.00    +0.194 C 
ATOM     31  O   UNL     1      -1.878  -3.269  -1.303  0.00  0.00    -0.381 OA
ENDBRANCH  29  31
ENDBRANCH  28  29
ENDBRANCH  22  28
ENDBRANCH  18  25
ENDBRANCH   1  19
TORSDOF 6
