REMARK  Name = ZINC40430671
REMARK  6 active torsions:
REMARK  status: ('A' for Active; 'I' for Inactive)
REMARK    1  A    between atoms: C_3  and  N_21
REMARK    2  A    between atoms: C_6  and  C_7
REMARK    3  A    between atoms: N_9  and  C_10
REMARK    4  A    between atoms: C_10  and  C_11
REMARK    5  A    between atoms: N_13  and  C_14
REMARK    6  A    between atoms: C_15  and  C_19
REMARK                            x       y       z     vdW  Elec       q    Type
REMARK                         _______ _______ _______ _____ _____    ______ ____
ROOT
ATOM      1  C   UNL     1      -1.264  -0.760   0.011  0.00  0.00    +0.244 C 
ATOM      2  O   UNL     1      -2.326  -0.168   0.024  0.00  0.00    -0.270 OA
ATOM      3  N   UNL     1      -1.244  -2.108   0.003  0.00  0.00    -0.303 N 
ATOM      4  H   UNL     1      -0.397  -2.581  -0.008  0.00  0.00    +0.150 HD
ENDROOT
BRANCH   1  10
ATOM      5  C   UNL     1      -0.017   1.394   0.010  0.00  0.00    +0.015 A 
ATOM      6  C   UNL     1       1.166   2.096   0.002  0.00  0.00    +0.023 A 
ATOM      7  C   UNL     1       2.381   1.417  -0.013  0.00  0.00    +0.025 A 
ATOM      8  C   UNL     1       2.403   0.025  -0.021  0.00  0.00    +0.023 A 
ATOM      9  C   UNL     1       1.224  -0.684  -0.014  0.00  0.00    +0.015 A 
ATOM     10  C   UNL     1       0.002  -0.004   0.002  0.00  0.00    +0.037 A 
BRANCH   7  11
ATOM     11  N   UNL     1       3.575   2.130  -0.021  0.00  0.00    -0.358 N 
ATOM     12  H   UNL     1       3.561   3.100  -0.016  0.00  0.00    +0.142 HD
ATOM     13  H   UNL     1       4.422   1.657  -0.032  0.00  0.00    +0.142 HD
ENDBRANCH   7  11
ENDBRANCH   1  10
BRANCH   3  14
ATOM     14  C   UNL     1      -2.502  -2.859   0.012  0.00  0.00    +0.200 C 
BRANCH  14  15
ATOM     15  C   UNL     1      -2.205  -4.337   0.001  0.00  0.00    +0.235 C 
ATOM     16  O   UNL     1      -1.056  -4.724  -0.013  0.00  0.00    -0.274 OA
ATOM     17  N   UNL     1      -3.216  -5.228   0.006  0.00  0.00    -0.278 N 
ATOM     18  H   UNL     1      -4.136  -4.918   0.017  0.00  0.00    +0.155 HD
BRANCH  17  19
ATOM     19  C   UNL     1      -2.943  -6.588  -0.004  0.00  0.00    +0.089 A 
ATOM     20  C   UNL     1      -3.847  -7.639  -0.006  0.00  0.00    +0.080 A 
ATOM     21  C   UNL     1      -3.289  -8.972  -0.018  0.00  0.00    +0.028 A 
ATOM     22  C   UNL     1      -1.944  -9.045  -0.025  0.00  0.00    +0.048 A 
ATOM     23  S   UNL     1      -1.442  -7.338  -0.024  0.00  0.00    -0.081 S 
BRANCH  20  24
ATOM     24  C   UNL     1      -5.261  -7.415   0.003  0.00  0.00    +0.102 C 
ATOM     25  N   UNL     1      -6.383  -7.238   0.010  0.00  0.00    -0.191 NA
ENDBRANCH  20  24
ENDBRANCH  17  19
ENDBRANCH  14  15
ENDBRANCH   3  14
TORSDOF 6
