REMARK  Name = ZINC09635045
REMARK  6 active torsions:
REMARK  status: ('A' for Active; 'I' for Inactive)
REMARK    1  A    between atoms: C_6  and  O_31
REMARK    2  A    between atoms: C_7  and  C_11
REMARK    3  A    between atoms: C_11  and  O_13
REMARK    4  A    between atoms: O_13  and  C_14
REMARK    5  A    between atoms: C_14  and  C_15
REMARK    6  A    between atoms: N_17  and  C_18
REMARK                            x       y       z     vdW  Elec       q    Type
REMARK                         _______ _______ _______ _____ _____    ______ ____
ROOT
ATOM      1  C   UNL     1       3.554   2.060  -0.024  0.00  0.00    +0.255 C 
ATOM      2  O   UNL     1       3.378   3.260  -0.009  0.00  0.00    -0.272 OA
ATOM      3  N   UNL     1       4.806   1.562  -0.035  0.00  0.00    -0.282 N 
ATOM      4  H   UNL     1       4.948   0.605   0.033  0.00  0.00    +0.155 HD
ENDROOT
BRANCH   3   5
ATOM      5  C   UNL     1       5.903   2.427  -0.147  0.00  0.00    +0.050 A 
ATOM      6  C   UNL     1       5.747   3.669  -0.745  0.00  0.00    +0.052 A 
ATOM      7  C   UNL     1       6.834   4.522  -0.854  0.00  0.00    +0.069 A 
ATOM      8  C   UNL     1       8.081   4.130  -0.362  0.00  0.00    +0.068 A 
ATOM      9  C   UNL     1       8.230   2.887   0.234  0.00  0.00    +0.045 A 
ATOM     10  C   UNL     1       7.144   2.041   0.347  0.00  0.00    +0.041 A 
ATOM     11 BR   UNL     1       7.348   0.350   1.168  0.00  0.00    -0.048 Br
ATOM     12  N   UNL     1       8.961   5.182  -0.612  0.00  0.00    -0.306 N 
ATOM     13  H   UNL     1       9.903   5.201  -0.382  0.00  0.00    +0.170 HD
ATOM     14  C   UNL     1       8.280   6.167  -1.227  0.00  0.00    +0.325 A 
ATOM     15  O   UNL     1       8.755   7.229  -1.584  0.00  0.00    -0.247 OA
ATOM     16  N   UNL     1       6.995   5.799  -1.387  0.00  0.00    -0.306 N 
ATOM     17  H   UNL     1       6.300   6.333  -1.803  0.00  0.00    +0.170 HD
ENDBRANCH   3   5
BRANCH   1  18
ATOM     18  C   UNL     1       2.372   1.126  -0.029  0.00  0.00    +0.328 C 
BRANCH  18  19
ATOM     19  O   UNL     1       1.143   1.900  -0.015  0.00  0.00    -0.452 OA
BRANCH  19  20
ATOM     20  C   UNL     1      -0.015   1.210  -0.017  0.00  0.00    +0.343 C 
ATOM     21  O   UNL     1       0.002  -0.005  -0.032  0.00  0.00    -0.245 OA
BRANCH  20  28
ATOM     22  C   UNL     1      -3.800   6.030   0.042  0.00  0.00    +0.001 A 
ATOM     23  C   UNL     1      -4.989   5.303   0.033  0.00  0.00    +0.001 A 
ATOM     24  C   UNL     1      -4.979   3.942   0.016  0.00  0.00    +0.008 A 
ATOM     25  C   UNL     1      -3.753   3.254   0.007  0.00  0.00    -0.014 A 
ATOM     26  C   UNL     1      -3.712   1.850  -0.010  0.00  0.00    +0.054 A 
ATOM     27  C   UNL     1      -2.512   1.203  -0.018  0.00  0.00    +0.131 A 
ATOM     28  C   UNL     1      -1.302   1.930  -0.009  0.00  0.00    +0.101 A 
ATOM     29  C   UNL     1      -1.315   3.315   0.013  0.00  0.00    +0.027 A 
ATOM     30  C   UNL     1      -2.542   3.994   0.016  0.00  0.00    -0.017 A 
ATOM     31  C   UNL     1      -2.594   5.400   0.034  0.00  0.00    +0.008 A 
BRANCH  27  32
ATOM     32  O   UNL     1      -2.480  -0.154  -0.034  0.00  0.00    -0.506 OA
ATOM     33  H   UNL     1      -2.471  -0.558   0.845  0.00  0.00    +0.292 HD
ENDBRANCH  27  32
ENDBRANCH  20  28
ENDBRANCH  19  20
ENDBRANCH  18  19
ENDBRANCH   1  18
TORSDOF 6
