REMARK  Name = ZINC14900004
REMARK  7 active torsions:
REMARK  status: ('A' for Active; 'I' for Inactive)
REMARK    1  A    between atoms: C_1  and  C_2
REMARK    2  A    between atoms: C_9  and  N_14
REMARK    3  A    between atoms: C_15  and  C_17
REMARK    4  A    between atoms: C_17  and  C_18
REMARK    5  A    between atoms: C_18  and  C_19
REMARK    6  A    between atoms: C_19  and  N_20
REMARK    7  A    between atoms: N_23  and  C_24
REMARK                            x       y       z     vdW  Elec       q    Type
REMARK                         _______ _______ _______ _____ _____    ______ ____
ROOT
ATOM      1  N   UNL     1       4.178   7.407   0.002  0.00  0.00    -0.285 N 
ATOM      2  C   UNL     1       3.950   6.079  -0.001  0.00  0.00    +0.217 C 
ATOM      3  O   UNL     1       4.883   5.303  -0.006  0.00  0.00    -0.275 OA
ATOM      4  H   UNL     1       3.435   8.027  -0.062  0.00  0.00    +0.155 HD
ENDROOT
BRANCH   1  12
ATOM      5  C   UNL     1      10.402   7.662   1.791  0.00  0.00    +0.062 C 
ATOM      6  C   UNL     1      10.394   8.342   0.421  0.00  0.00    +0.256 C 
ATOM      7  C   UNL     1      10.154   7.309  -0.651  0.00  0.00    +0.258 C 
ATOM      8  O   UNL     1      11.092   6.754  -1.182  0.00  0.00    -0.271 OA
ATOM      9  N   UNL     1       8.890   7.004  -1.016  0.00  0.00    -0.279 N 
ATOM     10  C   UNL     1       7.824   7.686  -0.411  0.00  0.00    +0.077 A 
ATOM     11  C   UNL     1       6.531   7.202  -0.508  0.00  0.00    +0.050 A 
ATOM     12  C   UNL     1       5.489   7.893   0.098  0.00  0.00    +0.035 A 
ATOM     13  C   UNL     1       5.745   9.067   0.794  0.00  0.00    +0.027 A 
ATOM     14  C   UNL     1       7.038   9.546   0.895  0.00  0.00    +0.049 A 
ATOM     15  C   UNL     1       8.079   8.861   0.294  0.00  0.00    +0.143 A 
ATOM     16  O   UNL     1       9.356   9.324   0.383  0.00  0.00    -0.478 OA
ATOM     17  H   UNL     1       8.722   6.324  -1.687  0.00  0.00    +0.155 HD
ENDBRANCH   1  12
BRANCH   2  18
ATOM     18  C   UNL     1       2.536   5.558   0.001  0.00  0.00    +0.097 C 
BRANCH  18  19
ATOM     19  C   UNL     1       2.557   4.028  -0.003  0.00  0.00    +0.028 C 
BRANCH  19  20
ATOM     20  C   UNL     1       1.121   3.498  -0.001  0.00  0.00    +0.106 C 
BRANCH  20  21
ATOM     21  N   UNL     1       1.141   2.034  -0.005  0.00  0.00    -0.299 N 
ATOM     22  C   UNL     1      -0.017   1.344  -0.004  0.00  0.00    +0.300 C 
ATOM     23  O   UNL     1      -1.078   1.938  -0.005  0.00  0.00    -0.253 OA
ATOM     24  N   UNL     1       0.001  -0.004  -0.008  0.00  0.00    -0.297 N 
ATOM     25  H   UNL     1       1.988   1.560  -0.009  0.00  0.00    +0.150 HD
ATOM     26  H   UNL     1       0.848  -0.477  -0.012  0.00  0.00    +0.151 HD
BRANCH  24  27
ATOM     27  C   UNL     1      -1.258  -0.753  -0.007  0.00  0.00    +0.074 C 
ATOM     28  C   UNL     1      -1.756  -0.910   1.431  0.00  0.00    +0.022 C 
ATOM     29  C   UNL     1      -3.071  -1.693   1.432  0.00  0.00    +0.002 C 
ATOM     30  C   UNL     1      -2.842  -3.075   0.818  0.00  0.00    +0.000 C 
ATOM     31  C   UNL     1      -2.343  -2.918  -0.620  0.00  0.00    +0.002 C 
ATOM     32  C   UNL     1      -1.028  -2.136  -0.621  0.00  0.00    +0.022 C 
ENDBRANCH  24  27
ENDBRANCH  20  21
ENDBRANCH  19  20
ENDBRANCH  18  19
ENDBRANCH   2  18
TORSDOF 6
