REMARK  Name = ZINC19320900
REMARK  7 active torsions:
REMARK  status: ('A' for Active; 'I' for Inactive)
REMARK    1  A    between atoms: C_1  and  C_2
REMARK    2  A    between atoms: C_2  and  O_3
REMARK    3  A    between atoms: O_3  and  C_4
REMARK    4  A    between atoms: C_10  and  C_29
REMARK    5  A    between atoms: N_18  and  C_21
REMARK    6  A    between atoms: C_21  and  C_22
REMARK    7  A    between atoms: C_25  and  C_28
REMARK                            x       y       z     vdW  Elec       q    Type
REMARK                         _______ _______ _______ _____ _____    ______ ____
ROOT
ATOM      1  C   UNL     1       0.802  -1.825   1.306  0.00  0.00    +0.121 A 
ATOM      2  C   UNL     1       0.252  -2.670   0.338  0.00  0.00    +0.048 A 
ATOM      3  C   UNL     1       0.344  -4.023   0.455  0.00  0.00    +0.032 A 
ATOM      4  C   UNL     1       1.000  -4.582   1.562  0.00  0.00    +0.077 A 
ATOM      5  C   UNL     1       1.560  -3.725   2.545  0.00  0.00    +0.025 A 
ATOM      6  C   UNL     1       1.453  -2.335   2.394  0.00  0.00    +0.057 A 
ATOM      7  C   UNL     1       2.214  -4.308   3.646  0.00  0.00    +0.051 A 
ATOM      8  N   UNL     1       2.277  -5.621   3.715  0.00  0.00    -0.219 NA
ATOM      9  C   UNL     1       1.741  -6.395   2.774  0.00  0.00    +0.222 A 
ATOM     10  N   UNL     1       1.117  -5.906   1.721  0.00  0.00    -0.214 NA
ATOM     11  N   UNL     1       1.844  -7.772   2.907  0.00  0.00    -0.256 N 
ATOM     12  C   UNL     1       1.299  -8.600   1.949  0.00  0.00    +0.184 C 
ATOM     13  N   UNL     1       0.697  -8.080   0.926  0.00  0.00    -0.240 NA
ATOM     14  C   UNL     1       0.078  -8.883  -0.124  0.00  0.00    +0.233 C 
ATOM     15  N   UNL     1       0.632 -10.242  -0.134  0.00  0.00    -0.264 NA
ATOM     16  C   UNL     1       0.586 -10.822   1.221  0.00  0.00    +0.193 C 
ATOM     17  N   UNL     1       1.407  -9.965   2.092  0.00  0.00    -0.304 N 
ATOM     18  C   UNL     1       2.828  -3.448   4.721  0.00  0.00    +0.066 C 
ATOM     19  H   UNL     1       2.300  -8.153   3.674  0.00  0.00    +0.158 HD
ATOM     20  H   UNL     1       2.006 -10.351   2.751  0.00  0.00    +0.150 HD
ENDROOT
BRANCH   1  21
ATOM     21  O   UNL     1       0.693  -0.477   1.160  0.00  0.00    -0.492 OA
BRANCH  21  23
ATOM     22  C   UNL     1      -0.019   1.526   0.010  0.00  0.00    +0.048 C 
ATOM     23  C   UNL     1       0.002  -0.004   0.002  0.00  0.00    +0.225 C 
ENDBRANCH  21  23
ENDBRANCH   1  21
BRANCH  15  24
ATOM     24  C   UNL     1      -0.081 -11.094  -1.096  0.00  0.00    +0.122 C 
BRANCH  24  25
ATOM     25  C   UNL     1       0.172 -10.593  -2.494  0.00  0.00    -0.033 A 
ATOM     26  C   UNL     1      -0.668  -9.647  -3.052  0.00  0.00    +0.005 A 
ATOM     27  C   UNL     1      -0.436  -9.188  -4.335  0.00  0.00    +0.003 A 
ATOM     28  C   UNL     1       0.636  -9.674  -5.060  0.00  0.00    -0.050 A 
ATOM     29  C   UNL     1       1.477 -10.618  -4.502  0.00  0.00    +0.003 A 
ATOM     30  C   UNL     1       1.247 -11.075  -3.217  0.00  0.00    +0.005 A 
ATOM     31  C   UNL     1       0.889  -9.174  -6.459  0.00  0.00    +0.044 C 
ENDBRANCH  24  25
ENDBRANCH  15  24
TORSDOF 4
