REMARK  Name = ZINC12408549
REMARK  6 active torsions:
REMARK  status: ('A' for Active; 'I' for Inactive)
REMARK    1  A    between atoms: C_1  and  O_2
REMARK    2  A    between atoms: O_2  and  C_3
REMARK    3  A    between atoms: C_5  and  C_11
REMARK    4  A    between atoms: C_7  and  O_9
REMARK    5  A    between atoms: O_9  and  C_10
REMARK    6  A    between atoms: C_16  and  C_21
REMARK                            x       y       z     vdW  Elec       q    Type
REMARK                         _______ _______ _______ _____ _____    ______ ____
ROOT
ATOM      1  C   UNL     1      -2.138   3.421   2.398  0.00  0.00    +0.138 C 
ATOM      2  C   UNL     1      -1.338   2.982   1.189  0.00  0.00    +0.037 C 
ATOM      3  C   UNL     1      -0.657   1.850   0.965  0.00  0.00    +0.019 C 
ATOM      4  C   UNL     1       0.058   1.609  -0.354  0.00  0.00    +0.060 C 
ATOM      5  C   UNL     1      -0.708   2.282  -1.491  0.00  0.00    +0.039 C 
ATOM      6  C   UNL     1      -0.751   3.783  -1.180  0.00  0.00    +0.088 C 
ATOM      7  C   UNL     1      -1.372   3.974   0.167  0.00  0.00    +0.163 C 
ATOM      8  O   UNL     1      -1.934   5.026   0.401  0.00  0.00    -0.292 OA
ATOM      9  N   UNL     1      -0.501   0.836   1.866  0.00  0.00    -0.297 N 
ATOM     10  C   UNL     1      -1.543   0.364   2.652  0.00  0.00    +0.208 A 
ATOM     11  C   UNL     1      -2.226   1.266   3.570  0.00  0.00    +0.205 A 
ATOM     12  N   UNL     1      -3.079   0.583   4.266  0.00  0.00    -0.032 NA
ATOM     13  O   UNL     1      -3.026  -0.759   3.803  0.00  0.00    -0.239 OA
ATOM     14  N   UNL     1      -2.041  -0.823   2.781  0.00  0.00    -0.032 NA
ATOM     15  N   UNL     1      -1.940   2.630   3.599  0.00  0.00    -0.313 N 
ATOM     16  H   UNL     1       0.373   0.427   1.961  0.00  0.00    +0.153 HD
ATOM     17  H   UNL     1      -1.612   3.046   4.412  0.00  0.00    +0.149 HD
ENDROOT
BRANCH   1  20
ATOM     18  C   UNL     1      -5.689   4.494   1.673  0.00  0.00    +0.124 A 
ATOM     19  C   UNL     1      -4.341   4.537   2.002  0.00  0.00    +0.051 A 
ATOM     20  C   UNL     1      -3.601   3.371   2.040  0.00  0.00    -0.016 A 
ATOM     21  C   UNL     1      -4.198   2.161   1.746  0.00  0.00    +0.051 A 
ATOM     22  C   UNL     1      -5.546   2.112   1.421  0.00  0.00    +0.124 A 
ATOM     23  C   UNL     1      -6.292   3.280   1.382  0.00  0.00    +0.091 A 
BRANCH  18  25
ATOM     24  C   UNL     1      -7.798   5.522   1.289  0.00  0.00    +0.277 C 
ATOM     25  O   UNL     1      -6.417   5.641   1.636  0.00  0.00    -0.495 OA
ENDBRANCH  18  25
BRANCH  22  26
ATOM     26  O   UNL     1      -6.135   0.920   1.135  0.00  0.00    -0.495 OA
ATOM     27  C   UNL     1      -7.524   0.946   0.804  0.00  0.00    +0.277 C 
ENDBRANCH  22  26
ENDBRANCH   1  20
BRANCH   5  28
ATOM     28  C   UNL     1       0.004   2.048  -2.799  0.00  0.00    -0.006 A 
ATOM     29  C   UNL     1      -0.448   1.429  -3.917  0.00  0.00    +0.011 A 
ATOM     30  C   UNL     1       0.390   1.329  -5.013  0.00  0.00    +0.008 A 
ATOM     31  C   UNL     1       1.637   1.852  -4.936  0.00  0.00    +0.045 A 
ATOM     32  S   UNL     1       1.657   2.520  -3.280  0.00  0.00    -0.101 S 
ENDBRANCH   5  28
TORSDOF 4
