REMARK  Name = ZINC61592640
REMARK  6 active torsions:
REMARK  status: ('A' for Active; 'I' for Inactive)
REMARK    1  A    between atoms: C_1  and  N_2
REMARK    2  A    between atoms: C_8  and  S_9
REMARK    3  A    between atoms: S_9  and  C_10
REMARK    4  A    between atoms: C_10  and  C_12
REMARK    5  A    between atoms: C_10  and  C_14
REMARK    6  A    between atoms: C_12  and  N_13
REMARK                            x       y       z     vdW  Elec       q    Type
REMARK                         _______ _______ _______ _____ _____    ______ ____
ROOT
ATOM      1  C   UNL     1      -0.109  -1.752   3.794  0.00  0.00    +0.068 C 
ENDROOT
BRANCH   1   2
ATOM      2  C   UNL     1      -0.274  -1.259   5.208  0.00  0.00    -0.022 A 
ATOM      3  C   UNL     1      -0.644   0.052   5.444  0.00  0.00    +0.006 A 
ATOM      4  C   UNL     1      -0.797   0.505   6.741  0.00  0.00    +0.000 A 
ATOM      5  C   UNL     1      -0.579  -0.353   7.803  0.00  0.00    +0.001 A 
ATOM      6  C   UNL     1      -0.209  -1.664   7.569  0.00  0.00    +0.015 A 
ATOM      7  C   UNL     1      -0.062  -2.119   6.270  0.00  0.00    +0.022 A 
ATOM      8 BR   UNL     1       0.438  -3.914   5.948  0.00  0.00    -0.050 Br
ENDBRANCH   1   2
BRANCH   1   9
ATOM      9  S   UNL     1       0.388  -0.373   2.726  0.00  0.00    -0.080 S 
BRANCH   9  17
ATOM     10  C   UNL     1       1.179   0.970  -0.150  0.00  0.00    +0.156 C 
ATOM     11  N   UNL     1       1.083  -0.482   0.018  0.00  0.00    -0.274 N 
ATOM     12  C   UNL     1       1.305  -1.404  -0.940  0.00  0.00    +0.345 A 
ATOM     13  O   UNL     1       1.618  -1.179  -2.096  0.00  0.00    -0.245 OA
ATOM     14  N   UNL     1       1.116  -2.620  -0.387  0.00  0.00    -0.226 N 
ATOM     15  H   UNL     1       1.206  -3.475  -0.837  0.00  0.00    +0.194 HD
ATOM     16  N   UNL     1       0.768  -2.421   0.956  0.00  0.00    -0.145 NA
ATOM     17  C   UNL     1       0.759  -1.139   1.184  0.00  0.00    +0.192 A 
ENDBRANCH   9  17
ENDBRANCH   1   9
BRANCH   1  18
ATOM     18  C   UNL     1      -1.435  -2.330   3.297  0.00  0.00    -0.067 C 
BRANCH  18  19
ATOM     19  N   UNL     1      -1.766  -3.534   4.071  0.00  0.00    +0.379 N 
ATOM     20  H   UNL     1      -1.889  -3.287   5.041  0.00  0.00    -0.090 HD
ATOM     21  H   UNL     1      -2.619  -3.939   3.716  0.00  0.00    -0.090 HD
ATOM     22  H   UNL     1      -1.016  -4.204   3.988  0.00  0.00    -0.090 HD
ENDBRANCH  18  19
ENDBRANCH   1  18
TORSDOF 5
