REMARK  Name = ZINC50929764
REMARK  10 active torsions:
REMARK  status: ('A' for Active; 'I' for Inactive)
REMARK    1  A    between atoms: C_1  and  C_2
REMARK    2  A    between atoms: C_4  and  N_22
REMARK    3  A    between atoms: N_6  and  C_7
REMARK    4  A    between atoms: N_8  and  C_9
REMARK    5  A    between atoms: C_9  and  C_11
REMARK    6  A    between atoms: C_9  and  C_12
REMARK    7  A    between atoms: C_15  and  O_20
REMARK    8  A    between atoms: C_17  and  O_18
REMARK    9  A    between atoms: O_18  and  C_19
REMARK   10  A    between atoms: O_20  and  C_21
REMARK                            x       y       z     vdW  Elec       q    Type
REMARK                         _______ _______ _______ _____ _____    ______ ____
ROOT
ATOM      1  C   UNL     1      -4.115   3.184   0.348  0.00  0.00    +0.083 C 
ATOM      2  C   UNL     1      -3.614   3.006  -1.062  0.00  0.00    +0.097 C 
ATOM      3  N   UNL     1      -3.754   1.915  -1.729  0.00  0.00    -0.234 NA
ATOM      4  C   UNL     1      -3.148   2.108  -3.056  0.00  0.00    +0.347 C 
ATOM      5  C   UNL     1      -2.631   3.533  -3.016  0.00  0.00    +0.129 C 
ATOM      6  N   UNL     1      -2.972   3.989  -1.761  0.00  0.00    -0.279 N 
ATOM      7  C   UNL     1      -2.684   5.331  -1.248  0.00  0.00    +0.138 C 
ATOM      8  N   UNL     1      -2.013   4.177  -3.951  0.00  0.00    -0.366 N 
ATOM      9  H   UNL     1      -1.749   3.718  -4.763  0.00  0.00    +0.161 HD
ENDROOT
BRANCH   4  10
ATOM     10  N   UNL     1      -4.156   1.956  -4.109  0.00  0.00    +0.055 N 
ATOM     11  O   UNL     1      -3.897   1.323  -5.106  0.00  0.00    -0.129 OA
ATOM     12  O   UNL     1      -5.245   2.463  -3.980  0.00  0.00    -0.129 OA
ENDBRANCH   4  10
BRANCH   8  13
ATOM     13  C   UNL     1      -1.712   5.601  -3.783  0.00  0.00    +0.111 C 
ATOM     14  C   UNL     1      -0.562   5.992  -4.714  0.00  0.00    +0.035 C 
BRANCH  13  15
ATOM     15  C   UNL     1      -2.932   6.416  -4.123  0.00  0.00    +0.016 A 
ATOM     16  C   UNL     1      -3.925   5.875  -4.918  0.00  0.00    +0.013 A 
ATOM     17  C   UNL     1      -5.045   6.620  -5.231  0.00  0.00    +0.046 A 
ATOM     18  C   UNL     1      -5.176   7.914  -4.749  0.00  0.00    +0.124 A 
ATOM     19  C   UNL     1      -4.182   8.460  -3.953  0.00  0.00    +0.091 A 
ATOM     20  C   UNL     1      -3.061   7.708  -3.635  0.00  0.00    +0.129 A 
BRANCH  20  21
ATOM     21  O   UNL     1      -2.087   8.239  -2.849  0.00  0.00    -0.495 OA
ATOM     22  C   UNL     1      -2.287   9.574  -2.381  0.00  0.00    +0.277 C 
ENDBRANCH  20  21
BRANCH  18  23
ATOM     23  O   UNL     1      -6.279   8.647  -5.059  0.00  0.00    -0.495 OA
ATOM     24  C   UNL     1      -7.263   8.021  -5.885  0.00  0.00    +0.277 C 
ENDBRANCH  18  23
ENDBRANCH  13  15
ENDBRANCH   8  13
TORSDOF 5
