REMARK  Name = ZINC39557118
REMARK  10 active torsions:
REMARK  status: ('A' for Active; 'I' for Inactive)
REMARK    1  A    between atoms: C_1  and  C_2
REMARK    2  A    between atoms: C_2  and  N_3
REMARK    3  A    between atoms: C_5  and  C_13
REMARK    4  A    between atoms: C_14  and  C_15
REMARK    5  A    between atoms: C_14  and  N_30
REMARK    6  A    between atoms: N_17  and  C_18
REMARK    7  A    between atoms: C_18  and  C_19
REMARK    8  A    between atoms: C_19  and  C_20
REMARK    9  A    between atoms: C_23  and  C_29
REMARK   10  A    between atoms: C_31  and  C_33
REMARK                            x       y       z     vdW  Elec       q    Type
REMARK                         _______ _______ _______ _____ _____    ______ ____
ROOT
ATOM      1  C   UNL     1       1.413  -0.408  -4.511  0.00  0.00    +0.011 C 
ATOM      2  C   UNL     1       1.212  -0.777  -5.778  0.00  0.00    +0.093 C 
ENDROOT
BRANCH   1   5
ATOM      3  N   UNL     1       1.248  -0.936  -1.104  0.00  0.00    -0.329 N 
ATOM      4  C   UNL     1       0.451  -1.129  -2.319  0.00  0.00    +0.117 C 
ATOM      5  C   UNL     1       1.472  -1.449  -3.423  0.00  0.00    +0.063 C 
ATOM      6  C   UNL     1       2.812  -1.411  -2.724  0.00  0.00    -0.018 A 
ATOM      7  C   UNL     1       2.604  -1.103  -1.388  0.00  0.00    +0.034 A 
ATOM      8  C   UNL     1       3.705  -1.005  -0.536  0.00  0.00    +0.023 A 
ATOM      9  C   UNL     1       4.980  -1.209  -1.020  0.00  0.00    +0.002 A 
ATOM     10  C   UNL     1       5.177  -1.511  -2.355  0.00  0.00    +0.000 A 
ATOM     11  C   UNL     1       4.091  -1.619  -3.204  0.00  0.00    +0.006 A 
BRANCH   3  13
ATOM     12  C   UNL     1       0.620   0.910   0.372  0.00  0.00    +0.024 C 
ATOM     13  C   UNL     1       0.700  -0.610   0.215  0.00  0.00    +0.102 C 
ENDBRANCH   3  13
ENDBRANCH   1   5
BRANCH   2  14
ATOM     14  C   UNL     1       1.270   0.228  -6.857  0.00  0.00    +0.258 C 
ATOM     15  O   UNL     1       1.596   1.372  -6.606  0.00  0.00    -0.269 OA
ATOM     16  N   UNL     1       0.963  -0.123  -8.122  0.00  0.00    -0.310 N 
ATOM     17  H   UNL     1       0.635  -1.016  -8.312  0.00  0.00    +0.149 HD
BRANCH  16  18
ATOM     18  C   UNL     1       1.125   0.845  -9.210  0.00  0.00    +0.109 C 
BRANCH  18  19
ATOM     19  C   UNL     1       0.710   0.198 -10.533  0.00  0.00    +0.056 C 
BRANCH  19  20
ATOM     20  C   UNL     1       0.876   1.194 -11.652  0.00  0.00    -0.021 A 
ATOM     21  C   UNL     1       2.106   1.470 -12.397  0.00  0.00    +0.003 A 
ATOM     22  C   UNL     1       3.408   0.968 -12.342  0.00  0.00    +0.013 A 
ATOM     23  C   UNL     1       4.357   1.446 -13.200  0.00  0.00    -0.050 A 
ATOM     24  C   UNL     1       4.038   2.429 -14.127  0.00  0.00    +0.005 A 
ATOM     25  C   UNL     1       2.760   2.938 -14.199  0.00  0.00    +0.026 A 
ATOM     26  C   UNL     1       1.778   2.465 -13.336  0.00  0.00    +0.047 A 
ATOM     27  N   UNL     1       0.444   2.762 -13.162  0.00  0.00    -0.360 N 
ATOM     28  C   UNL     1      -0.077   1.991 -12.160  0.00  0.00    +0.087 A 
ATOM     29  C   UNL     1       5.762   0.904 -13.139  0.00  0.00    +0.044 C 
ATOM     30  H   UNL     1      -0.052   3.418 -13.677  0.00  0.00    +0.165 HD
ENDBRANCH  19  20
ENDBRANCH  18  19
ENDBRANCH  16  18
ENDBRANCH   2  14
BRANCH   2  31
ATOM     31  N   UNL     1       0.944  -2.117  -6.083  0.00  0.00    -0.275 N 
ATOM     32  C   UNL     1       1.742  -2.785  -6.939  0.00  0.00    +0.284 C 
ATOM     33  O   UNL     1       2.743  -2.252  -7.380  0.00  0.00    -0.266 OA
ATOM     34  H   UNL     1       0.184  -2.564  -5.678  0.00  0.00    +0.155 HD
BRANCH  32  35
ATOM     35  C   UNL     1       1.403  -4.155  -7.339  0.00  0.00    +0.189 A 
ATOM     36  C   UNL     1       2.123  -4.944  -8.190  0.00  0.00    +0.054 A 
ATOM     37  C   UNL     1       1.438  -6.165  -8.286  0.00  0.00    +0.042 A 
ATOM     38  C   UNL     1       0.344  -6.070  -7.499  0.00  0.00    +0.196 A 
ATOM     39  O   UNL     1       0.329  -4.859  -6.926  0.00  0.00    -0.458 OA
ENDBRANCH  32  35
ENDBRANCH   2  31
TORSDOF 8
