REMARK  Name = ZINC24602181
REMARK  10 active torsions:
REMARK  status: ('A' for Active; 'I' for Inactive)
REMARK    1  A    between atoms: C_1  and  C_2
REMARK    2  A    between atoms: C_3  and  C_12
REMARK    3  A    between atoms: C_8  and  S_10
REMARK    4  A    between atoms: S_10  and  C_11
REMARK    5  A    between atoms: C_12  and  C_13
REMARK    6  A    between atoms: C_13  and  C_14
REMARK    7  A    between atoms: N_16  and  C_17
REMARK    8  A    between atoms: C_17  and  C_18
REMARK    9  A    between atoms: C_18  and  N_19
REMARK   10  A    between atoms: C_23  and  C_26
REMARK                            x       y       z     vdW  Elec       q    Type
REMARK                         _______ _______ _______ _____ _____    ______ ____
ROOT
ATOM      1  C   UNL     1      -4.329   0.892  -1.407  0.00  0.00    +0.213 C 
ATOM      2  O   UNL     1      -4.811   1.258  -0.356  0.00  0.00    -0.276 OA
ATOM      3  N   UNL     1      -4.975   1.134  -2.565  0.00  0.00    -0.314 N 
ATOM      4  H   UNL     1      -4.589   0.842  -3.406  0.00  0.00    +0.149 HD
ENDROOT
BRANCH   1   5
ATOM      5  C   UNL     1      -3.008   0.167  -1.419  0.00  0.00    +0.100 C 
BRANCH   5   6
ATOM      6  C   UNL     1      -2.493   0.023   0.015  0.00  0.00    +0.051 C 
BRANCH   6   9
ATOM      7  C   UNL     1      -0.018   1.503   0.010  0.00  0.00    +0.066 C 
ATOM      8  C   UNL     1       0.002  -0.004   0.002  0.00  0.00    +0.049 A 
ATOM      9  C   UNL     1      -1.171  -0.701   0.004  0.00  0.00    +0.038 A 
ATOM     10  C   UNL     1      -1.128  -2.107  -0.004  0.00  0.00    +0.256 A 
ATOM     11  O   UNL     1      -2.158  -2.761  -0.004  0.00  0.00    -0.267 OA
ATOM     12  N   UNL     1       0.076  -2.718  -0.014  0.00  0.00    -0.302 N 
ATOM     13  H   UNL     1       0.130  -3.687  -0.020  0.00  0.00    +0.171 HD
ATOM     14  C   UNL     1       1.214  -1.970  -0.015  0.00  0.00    +0.169 A 
ATOM     15  N   UNL     1       1.164  -0.652  -0.013  0.00  0.00    -0.228 NA
BRANCH  14  16
ATOM     16  S   UNL     1       2.781  -2.777  -0.027  0.00  0.00    -0.091 S 
ATOM     17  C   UNL     1       3.977  -1.414  -0.025  0.00  0.00    +0.093 C 
ENDBRANCH  14  16
ENDBRANCH   6   9
ENDBRANCH   5   6
ENDBRANCH   1   5
BRANCH   3  18
ATOM     18  C   UNL     1      -6.259   1.839  -2.554  0.00  0.00    +0.123 C 
BRANCH  18  19
ATOM     19  C   UNL     1      -6.774   1.982  -3.988  0.00  0.00    +0.121 C 
BRANCH  19  20
ATOM     20  N   UNL     1      -8.059   2.687  -3.977  0.00  0.00    -0.326 N 
ATOM     21  C   UNL     1      -8.725   2.937  -5.172  0.00  0.00    +0.137 A 
ATOM     22  C   UNL     1      -9.942   3.612  -5.155  0.00  0.00    +0.081 A 
ATOM     23  C   UNL     1     -10.594   3.853  -6.352  0.00  0.00    +0.037 A 
ATOM     24  C   UNL     1     -10.004   3.411  -7.529  0.00  0.00    +0.074 A 
ATOM     25  C   UNL     1      -8.795   2.748  -7.471  0.00  0.00    +0.125 A 
ATOM     26  N   UNL     1      -8.193   2.535  -6.316  0.00  0.00    -0.238 NA
ATOM     27 CL   UNL     1     -10.634   4.142  -3.654  0.00  0.00    -0.080 Cl
ATOM     28  H   UNL     1      -8.444   2.979  -3.137  0.00  0.00    +0.148 HD
BRANCH  24  29
ATOM     29  C   UNL     1     -10.678   3.651  -8.855  0.00  0.00    +0.419 C 
ATOM     30  F   UNL     1     -10.250   4.876  -9.380  0.00  0.00    -0.166 F 
ATOM     31  F   UNL     1     -10.343   2.622  -9.742  0.00  0.00    -0.166 F 
ATOM     32  F   UNL     1     -12.065   3.679  -8.675  0.00  0.00    -0.166 F 
ENDBRANCH  24  29
ENDBRANCH  19  20
ENDBRANCH  18  19
ENDBRANCH   3  18
TORSDOF 8
