REMARK  Name = ZINC39949540
REMARK  6 active torsions:
REMARK  status: ('A' for Active; 'I' for Inactive)
REMARK    1  A    between atoms: C_1  and  C_2
REMARK    2  A    between atoms: C_2  and  C_32
REMARK    3  A    between atoms: N_11  and  C_24
REMARK    4  A    between atoms: N_14  and  N_15
REMARK    5  A    between atoms: C_16  and  C_17
REMARK    6  A    between atoms: C_20  and  O_23
REMARK                            x       y       z     vdW  Elec       q    Type
REMARK                         _______ _______ _______ _____ _____    ______ ____
ROOT
ATOM      1  C   UNL     1      -1.470   5.373   1.629  0.00  0.00    +0.041 C 
ATOM      2  C   UNL     1      -1.191   4.485   0.415  0.00  0.00    +0.068 C 
ATOM      3  C   UNL     1      -2.463   3.718   0.043  0.00  0.00    +0.071 C 
ATOM      4  C   UNL     1      -2.734   2.688   1.137  0.00  0.00    -0.018 A 
ATOM      5  C   UNL     1      -1.736   2.342   1.986  0.00  0.00    +0.021 A 
ATOM      6  S   UNL     1      -2.451   1.146   3.081  0.00  0.00    -0.071 S 
ATOM      7  C   UNL     1      -4.082   1.112   2.403  0.00  0.00    +0.118 A 
ATOM      8  C   UNL     1      -4.016   2.040   1.337  0.00  0.00    +0.076 A 
ATOM      9  C   UNL     1      -5.210   2.242   0.572  0.00  0.00    +0.268 A 
ATOM     10  O   UNL     1      -5.254   3.020  -0.366  0.00  0.00    -0.266 OA
ATOM     11  N   UNL     1      -6.288   1.517   0.953  0.00  0.00    -0.247 N 
ATOM     12  C   UNL     1      -6.260   0.641   1.998  0.00  0.00    +0.224 A 
ATOM     13  N   UNL     1      -5.173   0.430   2.727  0.00  0.00    -0.207 NA
ATOM     14  N   UNL     1      -7.406  -0.050   2.308  0.00  0.00    -0.206 N 
ATOM     15  C   UNL     1      -0.338   2.876   1.972  0.00  0.00    +0.203 C 
ATOM     16  O   UNL     1      -0.139   3.568   0.730  0.00  0.00    -0.368 OA
ATOM     17  C   UNL     1      -0.765   5.359  -0.766  0.00  0.00    +0.041 C 
ATOM     18  H   UNL     1      -8.190   0.032   1.743  0.00  0.00    +0.177 HD
ENDROOT
BRANCH  11  19
ATOM     19  C   UNL     1      -7.485   1.673   0.242  0.00  0.00    +0.053 A 
ATOM     20  C   UNL     1      -7.658   1.033  -0.978  0.00  0.00    +0.026 A 
ATOM     21  C   UNL     1      -8.839   1.189  -1.677  0.00  0.00    +0.002 A 
ATOM     22  C   UNL     1      -9.849   1.981  -1.162  0.00  0.00    +0.000 A 
ATOM     23  C   UNL     1      -9.679   2.620   0.052  0.00  0.00    +0.002 A 
ATOM     24  C   UNL     1      -8.503   2.463   0.759  0.00  0.00    +0.026 A 
ENDBRANCH  11  19
BRANCH  14  25
ATOM     25  N   UNL     1      -7.442  -0.873   3.442  0.00  0.00    -0.188 NA
ATOM     26  C   UNL     1      -8.472  -1.633   3.660  0.00  0.00    +0.138 C 
BRANCH  26  27
ATOM     27  C   UNL     1      -9.437  -1.895   2.577  0.00  0.00    -0.005 A 
ATOM     28  C   UNL     1      -9.058  -1.722   1.243  0.00  0.00    +0.013 A 
ATOM     29  C   UNL     1      -9.964  -1.967   0.234  0.00  0.00    +0.046 A 
ATOM     30  C   UNL     1     -11.252  -2.386   0.541  0.00  0.00    +0.117 A 
ATOM     31  C   UNL     1     -11.633  -2.559   1.865  0.00  0.00    +0.046 A 
ATOM     32  C   UNL     1     -10.732  -2.322   2.880  0.00  0.00    +0.013 A 
BRANCH  30  33
ATOM     33  O   UNL     1     -12.142  -2.627  -0.457  0.00  0.00    -0.507 OA
ATOM     34  H   UNL     1     -12.133  -3.539  -0.780  0.00  0.00    +0.292 HD
ENDBRANCH  30  33
ENDBRANCH  26  27
ENDBRANCH  14  25
TORSDOF 4
