REMARK  Name = ZINC40247915
REMARK  4 active torsions:
REMARK  status: ('A' for Active; 'I' for Inactive)
REMARK    1  A    between atoms: C_1  and  C_2
REMARK    2  A    between atoms: C_5  and  C_7
REMARK    3  A    between atoms: C_7  and  C_9
REMARK    4  A    between atoms: C_7  and  O_21
REMARK                            x       y       z     vdW  Elec       q    Type
REMARK                         _______ _______ _______ _____ _____    ______ ____
ROOT
ATOM      1  C   UNL     1       1.446  -4.435  -1.430  0.00  0.00    -0.012 A 
ATOM      2  C   UNL     1       2.704  -4.099  -1.899  0.00  0.00    +0.008 A 
ATOM      3  C   UNL     1       3.082  -4.437  -3.183  0.00  0.00    +0.028 A 
ATOM      4  C   UNL     1       2.198  -5.116  -4.007  0.00  0.00    +0.067 A 
ATOM      5  C   UNL     1       0.928  -5.455  -3.535  0.00  0.00    +0.067 A 
ATOM      6  C   UNL     1       0.560  -5.117  -2.241  0.00  0.00    +0.034 A 
ATOM      7  N   UNL     1       0.277  -6.121  -4.571  0.00  0.00    -0.306 N 
ATOM      8  H   UNL     1      -0.624  -6.478  -4.538  0.00  0.00    +0.170 HD
ATOM      9  C   UNL     1       1.112  -6.183  -5.625  0.00  0.00    +0.325 A 
ATOM     10  O   UNL     1       0.852  -6.701  -6.695  0.00  0.00    -0.247 OA
ATOM     11  N   UNL     1       2.279  -5.586  -5.316  0.00  0.00    -0.306 N 
ATOM     12  H   UNL     1       3.045  -5.498  -5.904  0.00  0.00    +0.170 HD
ENDROOT
BRANCH   1  13
ATOM     13  C   UNL     1       1.043  -4.062  -0.027  0.00  0.00    +0.181 C 
BRANCH  13  18
ATOM     14  C   UNL     1      -0.018   1.503   0.010  0.00  0.00    +0.051 C 
ATOM     15  C   UNL     1       0.002  -0.004   0.002  0.00  0.00    -0.013 A 
ATOM     16  C   UNL     1      -1.039  -0.872   0.002  0.00  0.00    +0.011 A 
ATOM     17  C   UNL     1      -0.780  -2.230  -0.007  0.00  0.00    +0.014 A 
ATOM     18  C   UNL     1       0.507  -2.653  -0.016  0.00  0.00    +0.023 A 
ATOM     19  S   UNL     1       1.404  -1.109  -0.018  0.00  0.00    -0.095 S 
ENDBRANCH  13  18
BRANCH  13  20
ATOM     20  O   UNL     1       2.181  -4.145   0.833  0.00  0.00    -0.382 OA
ATOM     21  H   UNL     1       2.909  -3.561   0.580  0.00  0.00    +0.211 HD
ENDBRANCH  13  20
ENDBRANCH   1  13
TORSDOF 3
