REMARK  Name = ZINC08428816
REMARK  4 active torsions:
REMARK  status: ('A' for Active; 'I' for Inactive)
REMARK    1  A    between atoms: C_3  and  N_14
REMARK    2  A    between atoms: C_4  and  N_11
REMARK    3  A    between atoms: C_6  and  C_7
REMARK    4  A    between atoms: C_19  and  C_21
REMARK                            x       y       z     vdW  Elec       q    Type
REMARK                         _______ _______ _______ _____ _____    ______ ____
ROOT
ATOM      1  C   UNL     1      -1.243   3.133   0.031  0.00  0.00    +0.014 A 
ATOM      2  C   UNL     1      -0.060   3.845   0.023  0.00  0.00    +0.026 A 
ATOM      3  C   UNL     1       1.154   3.171   0.008  0.00  0.00    +0.061 A 
ATOM      4  C   UNL     1       1.174   1.782   0.000  0.00  0.00    +0.148 A 
ATOM      5  C   UNL     1      -0.013   1.076   0.008  0.00  0.00    +0.047 A 
ATOM      6  C   UNL     1      -1.220   1.750   0.017  0.00  0.00    +0.057 A 
ENDROOT
BRANCH   3   7
ATOM      7  N   UNL     1       2.353   3.888   0.000  0.00  0.00    -0.317 N 
ATOM      8  C   UNL     1       2.511   4.663   1.237  0.00  0.00    +0.106 C 
ATOM      9  C   UNL     1       3.894   5.318   1.258  0.00  0.00    +0.019 C 
ATOM     10  C   UNL     1       4.038   6.232   0.038  0.00  0.00    +0.004 C 
ATOM     11  C   UNL     1       3.822   5.410  -1.235  0.00  0.00    +0.032 C 
ATOM     12  C   UNL     1       2.441   4.753  -1.184  0.00  0.00    +0.159 C 
BRANCH  12  13
ATOM     13  C   UNL     1       2.231   3.926  -2.426  0.00  0.00    +0.231 C 
ATOM     14  O   UNL     1       2.029   2.734  -2.334  0.00  0.00    -0.274 OA
ATOM     15  N   UNL     1       2.269   4.512  -3.639  0.00  0.00    -0.328 N 
ATOM     16  H   UNL     1       2.431   5.465  -3.713  0.00  0.00    +0.145 HD
ATOM     17  H   UNL     1       2.134   3.980  -4.439  0.00  0.00    +0.145 HD
ENDBRANCH  12  13
ENDBRANCH   3   7
BRANCH   6  18
ATOM     18  C   UNL     1      -2.513   0.977   0.019  0.00  0.00    +0.417 C 
ATOM     19  F   UNL     1      -2.907   0.730   1.338  0.00  0.00    -0.166 F 
ATOM     20  F   UNL     1      -3.503   1.721  -0.632  0.00  0.00    -0.166 F 
ATOM     21  F   UNL     1      -2.330  -0.239  -0.649  0.00  0.00    -0.166 F 
ENDBRANCH   6  18
BRANCH   4  22
ATOM     22  N   UNL     1       2.466   1.059  -0.015  0.00  0.00    +0.058 N 
ATOM     23  O   UNL     1       2.482  -0.159  -0.022  0.00  0.00    -0.126 OA
ATOM     24  O   UNL     1       3.512   1.683  -0.022  0.00  0.00    -0.126 OA
ENDBRANCH   4  22
TORSDOF 4
