REMARK  Name = ZINC41548629
REMARK  5 active torsions:
REMARK  status: ('A' for Active; 'I' for Inactive)
REMARK    1  A    between atoms: C_1  and  C_2
REMARK    2  A    between atoms: C_2  and  O_3
REMARK    3  A    between atoms: O_3  and  C_4
REMARK    4  A    between atoms: C_14  and  C_16
REMARK    5  A    between atoms: C_16  and  C_28
REMARK                            x       y       z     vdW  Elec       q    Type
REMARK                         _______ _______ _______ _____ _____    ______ ____
ROOT
ATOM      1  C   UNL     1       0.777  -1.811  -1.336  0.00  0.00    +0.122 A 
ATOM      2  C   UNL     1       0.244  -2.679  -0.388  0.00  0.00    +0.048 A 
ATOM      3  C   UNL     1       0.338  -4.038  -0.530  0.00  0.00    +0.032 A 
ATOM      4  C   UNL     1       0.985  -4.606  -1.652  0.00  0.00    +0.081 A 
ATOM      5  C   UNL     1       1.515  -3.696  -2.595  0.00  0.00    +0.044 A 
ATOM      6  C   UNL     1       1.412  -2.335  -2.452  0.00  0.00    +0.063 A 
ATOM      7  S   UNL     1       2.220  -4.782  -3.812  0.00  0.00    -0.052 S 
ATOM      8  C   UNL     1       1.783  -6.323  -3.019  0.00  0.00    +0.166 A 
ATOM      9  N   UNL     1       1.161  -5.915  -1.938  0.00  0.00    -0.225 NA
ATOM     10  N   UNL     1       2.035  -7.619  -3.440  0.00  0.00    -0.261 N 
ATOM     11  C   UNL     1       1.620  -8.662  -2.695  0.00  0.00    +0.272 C 
ATOM     12  O   UNL     1       1.025  -8.467  -1.656  0.00  0.00    -0.270 OA
ATOM     13  H   UNL     1       2.511  -7.775  -4.271  0.00  0.00    +0.157 HD
ENDROOT
BRANCH  11  14
ATOM     14  C   UNL     1       1.895 -10.072  -3.152  0.00  0.00    +0.258 C 
ATOM     15  C   UNL     1       1.909 -10.993  -1.958  0.00  0.00    +0.270 C 
ATOM     16  O   UNL     1       1.269 -10.714  -0.966  0.00  0.00    -0.271 OA
ATOM     17  N   UNL     1       2.636 -12.129  -1.998  0.00  0.00    -0.279 N 
ATOM     18  C   UNL     1       3.467 -12.371  -3.101  0.00  0.00    +0.077 A 
ATOM     19  C   UNL     1       4.047 -13.616  -3.286  0.00  0.00    +0.047 A 
ATOM     20  C   UNL     1       4.854 -13.843  -4.387  0.00  0.00    +0.043 A 
ATOM     21  C   UNL     1       5.081 -12.831  -5.303  0.00  0.00    +0.024 A 
ATOM     22  C   UNL     1       4.508 -11.585  -5.120  0.00  0.00    +0.049 A 
ATOM     23  C   UNL     1       3.705 -11.350  -4.018  0.00  0.00    +0.144 A 
ATOM     24  O   UNL     1       3.162 -10.119  -3.811  0.00  0.00    -0.465 OA
ATOM     25 CL   UNL     1       5.583 -15.401  -4.619  0.00  0.00    -0.083 Cl
ATOM     26  C   UNL     1       0.799 -10.515  -4.123  0.00  0.00    +0.076 C 
ATOM     27  H   UNL     1       2.585 -12.771  -1.272  0.00  0.00    +0.155 HD
ENDBRANCH  11  14
BRANCH   1  28
ATOM     28  O   UNL     1       0.671  -0.465  -1.174  0.00  0.00    -0.492 OA
BRANCH  28  30
ATOM     29  C   UNL     1      -0.019   1.526   0.010  0.00  0.00    +0.048 C 
ATOM     30  C   UNL     1       0.002  -0.004   0.002  0.00  0.00    +0.225 C 
ENDBRANCH  28  30
ENDBRANCH   1  28
TORSDOF 3
