REMARK  Name = ZINC12653890
REMARK  3 active torsions:
REMARK  status: ('A' for Active; 'I' for Inactive)
REMARK    1  A    between atoms: C_1  and  C_2
REMARK    2  A    between atoms: C_2  and  C_3
REMARK    3  A    between atoms: C_3  and  C_4
REMARK                            x       y       z     vdW  Elec       q    Type
REMARK                         _______ _______ _______ _____ _____    ______ ____
ROOT
ATOM      1  C   UNL     1      -1.413  -2.041   0.005  0.00  0.00    +0.081 A 
ATOM      2  C   UNL     1      -1.304  -2.743  -1.192  0.00  0.00    +0.259 A 
ATOM      3  O   UNL     1      -1.217  -2.086  -2.357  0.00  0.00    -0.267 OA
ATOM      4  N   UNL     1      -1.289  -4.090  -1.165  0.00  0.00    -0.296 N 
ATOM      5  H   UNL     1      -1.213  -4.585  -1.996  0.00  0.00    +0.172 HD
ATOM      6  C   UNL     1      -1.375  -4.749  -0.010  0.00  0.00    +0.173 A 
ATOM      7  N   UNL     1      -1.480  -4.105   1.152  0.00  0.00    -0.296 N 
ATOM      8  C   UNL     1      -1.496  -2.758   1.193  0.00  0.00    +0.259 A 
ATOM      9  O   UNL     1      -1.596  -2.118   2.366  0.00  0.00    -0.267 OA
ATOM     10  N   UNL     1      -1.357  -6.116  -0.018  0.00  0.00    -0.330 N 
ATOM     11  H   UNL     1      -1.281  -6.595  -0.858  0.00  0.00    +0.145 HD
ATOM     12  H   UNL     1      -1.419  -6.606   0.817  0.00  0.00    +0.145 HD
ATOM     13  H   UNL     1      -1.541  -4.612   1.977  0.00  0.00    +0.172 HD
ENDROOT
BRANCH   1  14
ATOM     14  C   UNL     1      -1.433  -0.534   0.013  0.00  0.00    +0.046 C 
BRANCH  14  16
ATOM     15  C   UNL     1      -0.019   1.526   0.010  0.00  0.00    +0.004 C 
ATOM     16  C   UNL     1       0.002  -0.004   0.002  0.00  0.00    +0.002 C 
ENDBRANCH  14  16
ENDBRANCH   1  14
TORSDOF 2
