REMARK  Name = ZINC53120657
REMARK  12 active torsions:
REMARK  status: ('A' for Active; 'I' for Inactive)
REMARK    1  A    between atoms: C_1  and  C_2
REMARK    2  A    between atoms: C_2  and  C_3
REMARK    3  A    between atoms: C_2  and  C_4
REMARK    4  A    between atoms: C_2  and  N_5
REMARK    5  A    between atoms: N_5  and  S_6
REMARK    6  A    between atoms: S_6  and  C_9
REMARK    7  A    between atoms: C_13  and  N_15
REMARK    8  A    between atoms: C_16  and  C_18
REMARK    9  A    between atoms: C_18  and  C_19
REMARK   10  A    between atoms: C_18  and  C_20
REMARK   11  A    between atoms: C_18  and  N_21
REMARK   12  A    between atoms: N_24  and  C_25
REMARK                            x       y       z     vdW  Elec       q    Type
REMARK                         _______ _______ _______ _____ _____    ______ ____
ROOT
ATOM      1  C   UNL     1       2.939  -0.156   0.089  0.00  0.00    +0.107 A 
ATOM      2  C   UNL     1       2.776   0.539   1.273  0.00  0.00    +0.028 A 
ATOM      3  C   UNL     1       3.482   0.164   2.401  0.00  0.00    +0.004 A 
ATOM      4  C   UNL     1       4.352  -0.907   2.349  0.00  0.00    +0.023 A 
ATOM      5  C   UNL     1       4.518  -1.607   1.161  0.00  0.00    +0.035 A 
ATOM      6  C   UNL     1       3.804  -1.231   0.031  0.00  0.00    +0.051 A 
ENDROOT
BRANCH   5   7
ATOM      7  N   UNL     1       5.400  -2.692   1.104  0.00  0.00    -0.284 N 
ATOM      8  C   UNL     1       5.579  -3.473   2.188  0.00  0.00    +0.240 C 
ATOM      9  O   UNL     1       4.912  -3.288   3.185  0.00  0.00    -0.273 OA
ATOM     10  H   UNL     1       5.882  -2.883   0.285  0.00  0.00    +0.155 HD
BRANCH   8  11
ATOM     11  C   UNL     1       6.606  -4.575   2.163  0.00  0.00    +0.107 C 
ATOM     12  C   UNL     1       7.977  -4.003   2.530  0.00  0.00    +0.041 C 
ATOM     13  C   UNL     1       6.218  -5.658   3.171  0.00  0.00    +0.041 C 
BRANCH  11  14
ATOM     14  N   UNL     1       6.664  -5.157   0.819  0.00  0.00    -0.286 N 
ATOM     15  C   UNL     1       7.519  -6.166   0.559  0.00  0.00    +0.300 C 
ATOM     16  O   UNL     1       8.241  -6.593   1.438  0.00  0.00    -0.253 OA
ATOM     17  N   UNL     1       7.572  -6.701  -0.677  0.00  0.00    -0.302 N 
ATOM     18  C   UNL     1       8.501  -7.798  -0.961  0.00  0.00    +0.129 C 
ATOM     19  H   UNL     1       6.088  -4.816   0.118  0.00  0.00    +0.151 HD
ATOM     20  H   UNL     1       6.995  -6.361  -1.379  0.00  0.00    +0.150 HD
ENDBRANCH  11  14
ENDBRANCH   8  11
ENDBRANCH   5   7
BRANCH   1  21
ATOM     21  S   UNL     1       2.037   0.326  -1.346  0.00  0.00    +0.059 S 
ATOM     22  O   UNL     1       2.646  -0.332  -2.449  0.00  0.00    -0.153 OA
ATOM     23  O   UNL     1       1.899   1.739  -1.284  0.00  0.00    -0.153 OA
BRANCH  21  24
ATOM     24  N   UNL     1       0.513  -0.306  -1.201  0.00  0.00    -0.185 NA
ATOM     25  H   UNL     1      -0.246   0.284  -1.067  0.00  0.00    +0.149 HD
BRANCH  24  27
ATOM     26  C   UNL     1       1.271  -2.454  -0.311  0.00  0.00    +0.029 C 
ATOM     27  C   UNL     1       0.310  -1.755  -1.275  0.00  0.00    +0.032 C 
ATOM     28  C   UNL     1       0.580  -2.235  -2.702  0.00  0.00    +0.029 C 
ATOM     29  C   UNL     1      -1.132  -2.088  -0.889  0.00  0.00    +0.029 C 
ENDBRANCH  24  27
ENDBRANCH  21  24
ENDBRANCH   1  21
TORSDOF 6
