REMARK  Name = ZINC13831869
REMARK  1 active torsions:
REMARK  status: ('A' for Active; 'I' for Inactive)
REMARK    1  A    between atoms: C_18  and  C_25
REMARK                            x       y       z     vdW  Elec       q    Type
REMARK                         _______ _______ _______ _____ _____    ______ ____
ROOT
ATOM      1  C   UNL     1       0.392  -4.015   2.884  0.00  0.00    +0.023 A 
ATOM      2  C   UNL     1       1.262  -3.032   3.169  0.00  0.00    +0.048 A 
ATOM      3  C   UNL     1       1.535  -2.023   2.250  0.00  0.00    +0.135 A 
ATOM      4  C   UNL     1       0.911  -2.023   1.030  0.00  0.00    +0.005 A 
ATOM      5  C   UNL     1       0.019  -3.038   0.730  0.00  0.00    +0.028 A 
ATOM      6  C   UNL     1      -0.241  -4.033   1.654  0.00  0.00    +0.041 A 
ATOM      7 CL   UNL     1      -1.360  -5.304   1.271  0.00  0.00    -0.084 Cl
ATOM      8  C   UNL     1       1.156  -0.951  -0.010  0.00  0.00    +0.077 C 
ATOM      9  C   UNL     1       0.002  -0.004   0.002  0.00  0.00    +0.033 A 
ATOM     10  C   UNL     1      -0.016   1.343   0.009  0.00  0.00    +0.088 A 
ATOM     11  N   UNL     1      -1.256   1.936   0.019  0.00  0.00    -0.311 N 
ATOM     12  H   UNL     1      -1.341   3.033   0.021  0.00  0.00    +0.170 HD
ATOM     13  C   UNL     1      -2.371   1.179   0.025  0.00  0.00    +0.289 A 
ATOM     14  O   UNL     1      -3.537   1.534   0.035  0.00  0.00    -0.260 OA
ATOM     15  S   UNL     1      -1.724  -0.431   0.010  0.00  0.00    -0.030 S 
ATOM     16  S   UNL     1       1.510   2.262  -0.000  0.00  0.00    -0.091 S 
ATOM     17  C   UNL     1       2.696   1.005  -0.492  0.00  0.00    +0.180 C 
ATOM     18  C   UNL     1       2.481  -0.273   0.304  0.00  0.00    +0.135 C 
ATOM     19  C   UNL     1       2.539   0.007   1.786  0.00  0.00    +0.318 C 
ATOM     20  O   UNL     1       2.679   1.128   2.216  0.00  0.00    -0.250 OA
ATOM     21  O   UNL     1       2.426  -1.058   2.607  0.00  0.00    -0.425 OA
ENDROOT
BRANCH  17  22
ATOM     22  C   UNL     1       4.098   1.508  -0.268  0.00  0.00    +0.370 C 
ATOM     23  O   UNL     1       4.657   1.292   0.781  0.00  0.00    -0.245 OA
ATOM     24  O   UNL     1       4.726   2.197  -1.234  0.00  0.00    -0.245 OA
ENDBRANCH  17  22
TORSDOF 1
