REMARK  Name = ZINC63182768
REMARK  10 active torsions:
REMARK  status: ('A' for Active; 'I' for Inactive)
REMARK    1  A    between atoms: C_1  and  O_2
REMARK    2  A    between atoms: O_2  and  C_3
REMARK    3  A    between atoms: C_5  and  C_19
REMARK    4  A    between atoms: C_6  and  N_11
REMARK    5  A    between atoms: C_8  and  O_9
REMARK    6  A    between atoms: O_9  and  C_10
REMARK    7  A    between atoms: C_12  and  C_14
REMARK    8  A    between atoms: N_21  and  C_22
REMARK    9  A    between atoms: C_22  and  C_23
REMARK   10  A    between atoms: C_23  and  C_24
REMARK                            x       y       z     vdW  Elec       q    Type
REMARK                         _______ _______ _______ _____ _____    ______ ____
ROOT
ATOM      1  C   UNL     1       0.623  -0.586  -1.033  0.00  0.00    +0.162 A 
ATOM      2  C   UNL     1       1.178   0.173  -2.043  0.00  0.00    +0.064 A 
ATOM      3  C   UNL     1       1.790  -0.454  -3.133  0.00  0.00    +0.062 A 
ATOM      4  C   UNL     1       1.836  -1.856  -3.193  0.00  0.00    +0.050 A 
ATOM      5  C   UNL     1       1.276  -2.609  -2.173  0.00  0.00    +0.073 A 
ATOM      6  C   UNL     1       0.677  -1.980  -1.094  0.00  0.00    +0.163 A 
ENDROOT
BRANCH   4   7
ATOM      7  N   UNL     1       2.444  -2.489  -4.276  0.00  0.00    -0.280 N 
ATOM      8  C   UNL     1       1.948  -3.652  -4.742  0.00  0.00    +0.255 C 
ATOM      9  O   UNL     1       0.915  -4.101  -4.280  0.00  0.00    -0.269 OA
ATOM     10  H   UNL     1       3.224  -2.092  -4.694  0.00  0.00    +0.155 HD
BRANCH   8  11
ATOM     11  C   UNL     1       2.652  -4.376  -5.803  0.00  0.00    +0.074 A 
ATOM     12  C   UNL     1       2.313  -5.571  -6.420  0.00  0.00    +0.021 A 
ATOM     13  C   UNL     1       3.179  -6.007  -7.394  0.00  0.00    +0.008 A 
ATOM     14  C   UNL     1       4.277  -5.264  -7.681  0.00  0.00    +0.046 A 
ATOM     15  S   UNL     1       4.164  -3.946  -6.644  0.00  0.00    -0.092 S 
ENDBRANCH   8  11
ENDBRANCH   4   7
BRANCH   3  16
ATOM     16  C   UNL     1       2.382   0.352  -4.213  0.00  0.00    +0.246 C 
ATOM     17  O   UNL     1       2.993  -0.192  -5.113  0.00  0.00    -0.270 OA
ATOM     18  N   UNL     1       2.248   1.694  -4.204  0.00  0.00    -0.311 N 
ATOM     19  H   UNL     1       1.761   2.127  -3.486  0.00  0.00    +0.149 HD
BRANCH  18  20
ATOM     20  C   UNL     1       2.838   2.496  -5.278  0.00  0.00    +0.109 C 
BRANCH  20  21
ATOM     21  C   UNL     1       2.542   3.977  -5.030  0.00  0.00    +0.052 C 
BRANCH  21  22
ATOM     22  C   UNL     1       3.149   4.802  -6.136  0.00  0.00    -0.040 C 
ATOM     23  C   UNL     1       2.530   5.243  -7.254  0.00  0.00    -0.001 A 
ATOM     24  C   UNL     1       1.160   5.091  -7.758  0.00  0.00    +0.010 A 
ATOM     25  C   UNL     1       0.829   5.660  -8.940  0.00  0.00    +0.001 A 
ATOM     26  C   UNL     1       1.759   6.388  -9.694  0.00  0.00    +0.002 A 
ATOM     27  C   UNL     1       3.036   6.571  -9.297  0.00  0.00    +0.026 A 
ATOM     28  C   UNL     1       3.493   6.017  -8.069  0.00  0.00    +0.043 A 
ATOM     29  N   UNL     1       4.662   6.053  -7.477  0.00  0.00    -0.380 N 
ATOM     30  C   UNL     1       4.571   5.310  -6.215  0.00  0.00    +0.144 C 
ATOM     31  H   UNL     1       5.454   6.500  -7.815  0.00  0.00    +0.160 HD
ENDBRANCH  21  22
ENDBRANCH  20  21
ENDBRANCH  18  20
ENDBRANCH   3  16
BRANCH   1  33
ATOM     32  C   UNL     1       0.009   1.453   0.025  0.00  0.00    +0.277 C 
ATOM     33  O   UNL     1       0.028   0.024   0.027  0.00  0.00    -0.491 OA
ENDBRANCH   1  33
BRANCH   6  34
ATOM     34  O   UNL     1       0.134  -2.721  -0.094  0.00  0.00    -0.491 OA
ATOM     35  C   UNL     1       0.223  -4.142  -0.219  0.00  0.00    +0.277 C 
ENDBRANCH   6  34
TORSDOF 8
