REMARK  Name = ZINC12753492
REMARK  10 active torsions:
REMARK  status: ('A' for Active; 'I' for Inactive)
REMARK    1  A    between atoms: C_1  and  C_2
REMARK    2  A    between atoms: C_2  and  C_4
REMARK    3  A    between atoms: C_2  and  S_14
REMARK    4  A    between atoms: N_9  and  C_10
REMARK    5  A    between atoms: C_10  and  C_11
REMARK    6  A    between atoms: C_10  and  C_12
REMARK    7  A    between atoms: C_10  and  C_13
REMARK    8  A    between atoms: S_14  and  C_15
REMARK    9  A    between atoms: C_19  and  C_21
REMARK   10  A    between atoms: C_22  and  C_23
REMARK                            x       y       z     vdW  Elec       q    Type
REMARK                         _______ _______ _______ _____ _____    ______ ____
ROOT
ATOM      1  C   UNL     1      -0.019   1.526   0.010  0.00  0.00    +0.029 C 
ATOM      2  C   UNL     1       0.002  -0.004   0.002  0.00  0.00    +0.137 C 
ENDROOT
BRANCH   2   3
ATOM      3  C   UNL     1       0.707  -0.490  -1.238  0.00  0.00    +0.233 C 
ATOM      4  O   UNL     1       0.067  -0.782  -2.225  0.00  0.00    -0.274 OA
ATOM      5  N   UNL     1       2.051  -0.601  -1.250  0.00  0.00    -0.239 N 
ATOM      6  C   UNL     1       2.682  -1.035  -2.358  0.00  0.00    +0.306 C 
ATOM      7  O   UNL     1       2.039  -1.327  -3.348  0.00  0.00    -0.252 OA
ATOM      8  N   UNL     1       4.025  -1.146  -2.370  0.00  0.00    -0.294 N 
ATOM      9  H   UNL     1       2.563  -0.367  -0.460  0.00  0.00    +0.159 HD
ATOM     10  H   UNL     1       4.537  -0.912  -1.580  0.00  0.00    +0.151 HD
BRANCH   8  11
ATOM     11  C   UNL     1       4.710  -1.618  -3.575  0.00  0.00    +0.028 C 
ATOM     12  C   UNL     1       4.407  -0.672  -4.739  0.00  0.00    +0.031 C 
ATOM     13  C   UNL     1       6.219  -1.651  -3.324  0.00  0.00    +0.031 C 
ATOM     14  C   UNL     1       4.221  -3.026  -3.922  0.00  0.00    +0.031 C 
ENDBRANCH   8  11
ENDBRANCH   2   3
BRANCH   2  15
ATOM     15  S   UNL     1      -1.700  -0.632   0.015  0.00  0.00    -0.074 S 
BRANCH  15  16
ATOM     16  C   UNL     1      -2.335  -0.110   1.573  0.00  0.00    +0.185 A 
ATOM     17  N   UNL     1      -3.579  -0.351   2.044  0.00  0.00    -0.253 N 
ATOM     18  H   UNL     1      -4.285  -0.840   1.593  0.00  0.00    +0.191 HD
ATOM     19  N   UNL     1      -3.649   0.244   3.314  0.00  0.00    -0.152 NA
ATOM     20  C   UNL     1      -2.476   0.799   3.541  0.00  0.00    +0.175 A 
ATOM     21  N   UNL     1      -1.679   0.577   2.483  0.00  0.00    -0.202 NA
BRANCH  20  22
ATOM     22  C   UNL     1      -2.099   1.538   4.758  0.00  0.00    +0.051 C 
ATOM     23  C   UNL     1      -2.989   1.689   5.758  0.00  0.00    +0.019 C 
BRANCH  23  24
ATOM     24  C   UNL     1      -2.614   2.424   6.969  0.00  0.00    +0.012 A 
ATOM     25  C   UNL     1      -3.368   2.685   8.101  0.00  0.00    +0.015 A 
ATOM     26  C   UNL     1      -2.788   3.404   9.120  0.00  0.00    +0.008 A 
ATOM     27  C   UNL     1      -1.506   3.833   8.986  0.00  0.00    +0.046 A 
ATOM     28  S   UNL     1      -1.062   3.209   7.373  0.00  0.00    -0.097 S 
ENDBRANCH  23  24
ENDBRANCH  20  22
ENDBRANCH  15  16
ENDBRANCH   2  15
TORSDOF 6
