REMARK  Name = ZINC00081935
REMARK  10 active torsions:
REMARK  status: ('A' for Active; 'I' for Inactive)
REMARK    1  A    between atoms: C_1  and  C_2
REMARK    2  A    between atoms: C_2  and  O_3
REMARK    3  A    between atoms: O_3  and  C_4
REMARK    4  A    between atoms: C_6  and  C_11
REMARK    5  A    between atoms: C_9  and  O_10
REMARK    6  A    between atoms: C_14  and  C_25
REMARK    7  A    between atoms: C_20  and  N_24
REMARK    8  A    between atoms: C_21  and  C_22
REMARK    9  A    between atoms: C_25  and  O_26
REMARK   10  A    between atoms: O_26  and  C_27
REMARK                            x       y       z     vdW  Elec       q    Type
REMARK                         _______ _______ _______ _____ _____    ______ ____
ROOT
ATOM      1  C   UNL     1       1.149   3.596   0.010  0.00  0.00    +0.101 C 
ATOM      2  C   UNL     1       1.852   4.121  -1.214  0.00  0.00    +0.052 A 
ATOM      3  C   UNL     1       1.435   4.113  -2.539  0.00  0.00    +0.096 A 
ATOM      4  N   UNL     1       2.371   4.678  -3.264  0.00  0.00    -0.173 NA
ATOM      5  N   UNL     1       3.418   5.064  -2.413  0.00  0.00    -0.246 N 
ATOM      6  H   UNL     1       4.265   5.519  -2.690  0.00  0.00    +0.192 HD
ATOM      7  C   UNL     1       3.082   4.716  -1.161  0.00  0.00    +0.223 A 
ATOM      8  O   UNL     1       3.765   4.881  -0.001  0.00  0.00    -0.423 OA
ATOM      9  C   UNL     1       3.092   4.695   1.152  0.00  0.00    +0.200 C 
ATOM     10  C   UNL     1       1.876   4.109   1.228  0.00  0.00    +0.098 C 
ENDROOT
BRANCH   1  13
ATOM     11  C   UNL     1       0.002  -0.004   0.002  0.00  0.00    +0.162 A 
ATOM     12  C   UNL     1      -0.017   1.381   0.010  0.00  0.00    +0.054 A 
ATOM     13  C   UNL     1       1.171   2.089   0.002  0.00  0.00    -0.031 A 
ATOM     14  C   UNL     1       2.379   1.417  -0.013  0.00  0.00    +0.008 A 
ATOM     15  C   UNL     1       2.405   0.035  -0.021  0.00  0.00    +0.049 A 
ATOM     16  C   UNL     1       1.218  -0.680  -0.013  0.00  0.00    +0.158 A 
BRANCH  16  17
ATOM     17  O   UNL     1       1.242  -2.040  -0.021  0.00  0.00    -0.503 OA
ATOM     18  H   UNL     1       1.240  -2.428  -0.907  0.00  0.00    +0.292 HD
ENDBRANCH  16  17
BRANCH  11  19
ATOM     19  O   UNL     1      -1.165  -0.702   0.009  0.00  0.00    -0.489 OA
BRANCH  19  21
ATOM     20  C   UNL     1      -3.575  -0.891   0.030  0.00  0.00    +0.048 C 
ATOM     21  C   UNL     1      -2.375   0.059   0.024  0.00  0.00    +0.226 C 
ENDBRANCH  19  21
ENDBRANCH  11  19
ENDBRANCH   1  13
BRANCH   9  22
ATOM     22  N   UNL     1       3.675   5.126   2.318  0.00  0.00    -0.328 N 
ATOM     23  H   UNL     1       4.547   5.550   2.296  0.00  0.00    +0.145 HD
ATOM     24  H   UNL     1       3.216   5.005   3.163  0.00  0.00    +0.145 HD
ENDBRANCH   9  22
BRANCH  10  25
ATOM     25  C   UNL     1       1.255   3.970   2.511  0.00  0.00    +0.101 C 
ATOM     26  N   UNL     1       0.762   3.860   3.529  0.00  0.00    -0.191 NA
ENDBRANCH  10  25
BRANCH   3  27
ATOM     27  C   UNL     1       0.134   3.553  -3.054  0.00  0.00    +0.217 C 
BRANCH  27  28
ATOM     28  O   UNL     1      -0.864   4.575  -3.039  0.00  0.00    -0.377 OA
ATOM     29  C   UNL     1      -2.143   4.146  -3.511  0.00  0.00    +0.194 C 
ENDBRANCH  27  28
ENDBRANCH   3  27
TORSDOF 8
