REMARK  Name = ZINC16033755
REMARK  5 active torsions:
REMARK  status: ('A' for Active; 'I' for Inactive)
REMARK    1  A    between atoms: C_1  and  C_2
REMARK    2  A    between atoms: C_16  and  C_19
REMARK    3  A    between atoms: C_19  and  C_20
REMARK    4  A    between atoms: C_20  and  C_21
REMARK    5  A    between atoms: N_26  and  C_29
REMARK                            x       y       z     vdW  Elec       q    Type
REMARK                         _______ _______ _______ _____ _____    ______ ____
ROOT
ATOM      1  C   UNL     1       1.084   1.296   0.162  0.00  0.00    +0.047 C 
ATOM      2  C   UNL     1       0.789  -0.181   0.107  0.00  0.00    -0.011 A 
ATOM      3  C   UNL     1       0.626  -0.805  -1.114  0.00  0.00    +0.046 A 
ATOM      4  C   UNL     1       0.356  -2.161  -1.174  0.00  0.00    +0.021 A 
ATOM      5  C   UNL     1       0.248  -2.894  -0.005  0.00  0.00    +0.009 A 
ATOM      6  C   UNL     1       0.408  -2.275   1.214  0.00  0.00    +0.004 A 
ATOM      7  C   UNL     1       0.687  -0.912   1.287  0.00  0.00    +0.043 A 
ATOM      8  N   UNL     1       0.816  -0.516   2.620  0.00  0.00    -0.283 N 
ATOM      9  C   UNL     1       0.642  -1.544   3.474  0.00  0.00    +0.243 C 
ATOM     10  O   UNL     1       0.697  -1.496   4.685  0.00  0.00    -0.273 OA
ATOM     11  C   UNL     1       0.357  -2.759   2.635  0.00  0.00    +0.136 C 
ATOM     12  C   UNL     1      -1.006  -3.379   2.970  0.00  0.00    +0.123 C 
ATOM     13  C   UNL     1      -0.783  -4.911   2.833  0.00  0.00    +0.107 C 
ATOM     14  C   UNL     1       0.689  -5.060   2.394  0.00  0.00    +0.068 C 
ATOM     15  N   UNL     1       1.355  -3.816   2.884  0.00  0.00    -0.295 NA
ATOM     16  C   UNL     1      -0.952  -5.416   4.248  0.00  0.00    +0.232 C 
ATOM     17  O   UNL     1      -0.846  -6.572   4.596  0.00  0.00    -0.274 OA
ATOM     18  N   UNL     1      -1.237  -4.388   5.056  0.00  0.00    -0.210 N 
ATOM     19  C   UNL     1      -1.304  -3.185   4.440  0.00  0.00    +0.233 C 
ATOM     20  O   UNL     1      -1.556  -2.124   4.969  0.00  0.00    -0.274 OA
ATOM     21 CL   UNL     1       0.761   0.115  -2.580  0.00  0.00    -0.083 Cl
ATOM     22  H   UNL     1       1.007   0.393   2.899  0.00  0.00    +0.155 HD
ATOM     23  H   UNL     1       2.204  -3.639   2.369  0.00  0.00    +0.123 HD
ENDROOT
BRANCH  18  24
ATOM     24  C   UNL     1      -1.456  -4.544   6.433  0.00  0.00    +0.048 A 
ATOM     25  C   UNL     1      -0.410  -4.921   7.264  0.00  0.00    +0.028 A 
ATOM     26  C   UNL     1      -0.625  -5.076   8.619  0.00  0.00    +0.051 A 
ATOM     27  C   UNL     1      -1.885  -4.854   9.155  0.00  0.00    +0.162 A 
ATOM     28  C   UNL     1      -2.934  -4.473   8.325  0.00  0.00    +0.164 A 
ATOM     29  C   UNL     1      -2.716  -4.315   6.965  0.00  0.00    +0.073 A 
ATOM     30  O   UNL     1      -4.175  -4.244   8.833  0.00  0.00    -0.485 OA
ATOM     31  C   UNL     1      -4.444  -4.768  10.139  0.00  0.00    +0.270 C 
ATOM     32  C   UNL     1      -3.258  -4.422  11.049  0.00  0.00    +0.270 C 
ATOM     33  O   UNL     1      -2.079  -5.016  10.493  0.00  0.00    -0.485 OA
ENDBRANCH  18  24
BRANCH  14  34
ATOM     34  C   UNL     1       1.322  -6.284   3.060  0.00  0.00    +0.028 C 
BRANCH  34  35
ATOM     35  C   UNL     1       2.738  -6.484   2.518  0.00  0.00    +0.097 C 
BRANCH  35  36
ATOM     36  C   UNL     1       3.361  -7.690   3.173  0.00  0.00    +0.211 C 
ATOM     37  O   UNL     1       2.734  -8.326   3.994  0.00  0.00    -0.276 OA
ATOM     38  N   UNL     1       4.615  -8.061   2.848  0.00  0.00    -0.329 N 
ATOM     39  H   UNL     1       5.117  -7.553   2.192  0.00  0.00    +0.145 HD
ATOM     40  H   UNL     1       5.016  -8.837   3.270  0.00  0.00    +0.145 HD
ENDBRANCH  35  36
ENDBRANCH  34  35
ENDBRANCH  14  34
TORSDOF 4
