REMARK  Name = ZINC53847326
REMARK  1 active torsions:
REMARK  status: ('A' for Active; 'I' for Inactive)
REMARK    1  A    between atoms: C_6  and  C_7
REMARK                            x       y       z     vdW  Elec       q    Type
REMARK                         _______ _______ _______ _____ _____    ______ ____
ROOT
ATOM      1  C   UNL     1      -1.266  -0.763   0.010  0.00  0.00    +0.022 A 
ATOM      2  C   UNL     1      -1.455  -2.128   0.010  0.00  0.00    +0.040 A 
ATOM      3  C   UNL     1      -2.745  -2.644   0.018  0.00  0.00    +0.052 A 
ATOM      4  C   UNL     1      -3.784  -1.706   0.026  0.00  0.00    +0.096 A 
ATOM      5  S   UNL     1      -2.941  -0.144   0.030  0.00  0.00    -0.082 S 
ATOM      6  C   UNL     1      -5.127  -2.096   0.036  0.00  0.00    +0.258 C 
ATOM      7  O   UNL     1      -6.013  -1.259   0.042  0.00  0.00    -0.269 OA
ATOM      8  N   UNL     1      -5.430  -3.413   0.037  0.00  0.00    -0.266 N 
ATOM      9  H   UNL     1      -6.356  -3.700   0.043  0.00  0.00    +0.156 HD
ATOM     10  C   UNL     1      -4.435  -4.334   0.029  0.00  0.00    +0.142 C 
ATOM     11  N   UNL     1      -3.139  -3.993   0.021  0.00  0.00    -0.299 N 
ATOM     12  C   UNL     1      -4.789  -5.753   0.032  0.00  0.00    +0.210 C 
ATOM     13  N   UNL     1      -3.933  -6.786   0.025  0.00  0.00    -0.213 NA
ATOM     14  H   UNL     1      -6.684  -8.161   0.044  0.00  0.00    +0.190 HD
ATOM     15  C   UNL     1      -4.655  -7.888   0.030  0.00  0.00    +0.216 C 
ATOM     16  N   UNL     1      -5.935  -7.544   0.040  0.00  0.00    -0.265 N 
ATOM     17  N   UNL     1      -6.023  -6.259   0.046  0.00  0.00    -0.150 NA
ATOM     18  H   UNL     1      -2.462  -4.688   0.015  0.00  0.00    +0.153 HD
ENDROOT
BRANCH   1  24
ATOM     19  C   UNL     1      -0.017   1.392   0.010  0.00  0.00    +0.010 A 
ATOM     20  C   UNL     1       1.170   2.095   0.002  0.00  0.00    +0.016 A 
ATOM     21  C   UNL     1       2.378   1.419  -0.013  0.00  0.00    +0.018 A 
ATOM     22  C   UNL     1       2.403   0.035  -0.021  0.00  0.00    +0.016 A 
ATOM     23  C   UNL     1       1.224  -0.680  -0.014  0.00  0.00    +0.010 A 
ATOM     24  C   UNL     1       0.002  -0.004   0.002  0.00  0.00    -0.011 A 
ATOM     25 BR   UNL     1       4.000   2.390  -0.024  0.00  0.00    -0.050 Br
ENDBRANCH   1  24
TORSDOF 1
