REMARK  Name = ZINC45530480
REMARK  5 active torsions:
REMARK  status: ('A' for Active; 'I' for Inactive)
REMARK    1  A    between atoms: C_4  and  S_21
REMARK    2  A    between atoms: C_5  and  N_7
REMARK    3  A    between atoms: C_8  and  C_10
REMARK    4  A    between atoms: S_21  and  C_22
REMARK    5  A    between atoms: C_22  and  C_23
REMARK                            x       y       z     vdW  Elec       q    Type
REMARK                         _______ _______ _______ _____ _____    ______ ____
ROOT
ATOM      1  N   UNL     1       1.233  -2.082  -0.021  0.00  0.00    -0.281 N 
ATOM      2  C   UNL     1       0.082  -2.774   0.088  0.00  0.00    +0.248 C 
ATOM      3  O   UNL     1      -0.982  -2.185   0.102  0.00  0.00    -0.270 OA
ATOM      4  H   UNL     1       2.076  -2.553  -0.113  0.00  0.00    +0.155 HD
ENDROOT
BRANCH   2   5
ATOM      5  C   UNL     1       0.113  -4.245   0.190  0.00  0.00    +0.039 A 
ATOM      6  C   UNL     1       1.337  -4.919   0.180  0.00  0.00    +0.014 A 
ATOM      7  C   UNL     1       1.363  -6.293   0.278  0.00  0.00    +0.017 A 
ATOM      8  C   UNL     1       0.175  -7.005   0.386  0.00  0.00    +0.030 A 
ATOM      9  C   UNL     1      -1.057  -6.343   0.394  0.00  0.00    +0.048 A 
ATOM     10  C   UNL     1      -1.081  -4.960   0.303  0.00  0.00    +0.037 A 
ATOM     11  N   UNL     1      -2.258  -7.042   0.491  0.00  0.00    -0.284 N 
ATOM     12  C   UNL     1      -2.417  -8.269   0.978  0.00  0.00    +0.227 C 
ATOM     13  O   UNL     1      -3.537  -8.735   1.003  0.00  0.00    -0.275 OA
ATOM     14  C   UNL     1      -1.286  -9.112   1.500  0.00  0.00    +0.170 C 
ATOM     15  S   UNL     1       0.204  -8.765   0.516  0.00  0.00    -0.114 S 
ATOM     16  H   UNL     1      -3.055  -6.590   0.172  0.00  0.00    +0.155 HD
ENDBRANCH   2   5
BRANCH   1  21
ATOM     17  C   UNL     1       0.153   1.373   0.637  0.00  0.00    +0.002 A 
ATOM     18  C   UNL     1       1.172   2.090   0.036  0.00  0.00    +0.001 A 
ATOM     19  C   UNL     1       2.215   1.429  -0.585  0.00  0.00    +0.016 A 
ATOM     20  C   UNL     1       2.241   0.042  -0.608  0.00  0.00    +0.030 A 
ATOM     21  C   UNL     1       1.213  -0.681  -0.002  0.00  0.00    +0.047 A 
ATOM     22  C   UNL     1       0.171  -0.009   0.619  0.00  0.00    +0.024 A 
BRANCH  20  23
ATOM     23  S   UNL     1       3.569  -0.804  -1.400  0.00  0.00    -0.114 S 
BRANCH  23  24
ATOM     24  C   UNL     1       4.629   0.530  -2.023  0.00  0.00    +0.169 C 
BRANCH  24  25
ATOM     25  C   UNL     1       5.819  -0.064  -2.732  0.00  0.00    +0.221 C 
ATOM     26  O   UNL     1       5.939  -1.268  -2.809  0.00  0.00    -0.275 OA
ATOM     27  N   UNL     1       6.749   0.743  -3.280  0.00  0.00    -0.329 N 
ATOM     28  H   UNL     1       6.652   1.706  -3.218  0.00  0.00    +0.145 HD
ATOM     29  H   UNL     1       7.514   0.361  -3.736  0.00  0.00    +0.145 HD
ENDBRANCH  24  25
ENDBRANCH  23  24
ENDBRANCH  20  23
ENDBRANCH   1  21
TORSDOF 5
