REMARK  Name = ZINC40144282
REMARK  8 active torsions:
REMARK  status: ('A' for Active; 'I' for Inactive)
REMARK    1  A    between atoms: C_8  and  C_10
REMARK    2  A    between atoms: C_10  and  C_12
REMARK    3  A    between atoms: C_10  and  C_14
REMARK    4  A    between atoms: C_14  and  C_16
REMARK    5  A    between atoms: C_14  and  N_31
REMARK    6  A    between atoms: C_19  and  C_21
REMARK    7  A    between atoms: C_25  and  C_27
REMARK    8  A    between atoms: C_32  and  N_33
REMARK                            x       y       z     vdW  Elec       q    Type
REMARK                         _______ _______ _______ _____ _____    ______ ____
ROOT
ATOM      1  C   UNL     1       3.898  -4.260  -1.308  0.00  0.00    +0.196 C 
ENDROOT
BRANCH   1   2
ATOM      2  N   UNL     1       3.089  -3.971  -2.495  0.00  0.00    -0.258 N 
ATOM      3  C   UNL     1       3.391  -3.060  -3.475  0.00  0.00    +0.117 A 
ATOM      4  C   UNL     1       2.390  -3.091  -4.402  0.00  0.00    +0.114 A 
ATOM      5  C   UNL     1       1.444  -4.041  -3.990  0.00  0.00    +0.266 A 
ATOM      6  O   UNL     1       0.417  -4.332  -4.579  0.00  0.00    -0.266 OA
ATOM      7  N   UNL     1       1.874  -4.581  -2.832  0.00  0.00    -0.261 N 
ATOM      8  H   UNL     1       1.420  -5.269  -2.321  0.00  0.00    +0.190 HD
BRANCH   3   9
ATOM      9  N   UNL     1       4.504  -2.260  -3.516  0.00  0.00    -0.343 N 
ATOM     10  H   UNL     1       5.164  -2.311  -2.807  0.00  0.00    +0.144 HD
ATOM     11  H   UNL     1       4.631  -1.644  -4.254  0.00  0.00    +0.144 HD
ENDBRANCH   3   9
ENDBRANCH   1   2
BRANCH   1  12
ATOM     12  C   UNL     1       4.307  -5.711  -1.320  0.00  0.00    +0.132 A 
ATOM     13  C   UNL     1       5.512  -6.190  -0.955  0.00  0.00    +0.047 A 
ATOM     14  C   UNL     1       5.467  -7.589  -1.118  0.00  0.00    +0.050 A 
ATOM     15  C   UNL     1       4.223  -7.889  -1.579  0.00  0.00    +0.135 A 
ATOM     16  O   UNL     1       3.529  -6.740  -1.691  0.00  0.00    -0.457 OA
BRANCH  15  17
ATOM     17  C   UNL     1       3.719  -9.242  -1.895  0.00  0.00    +0.018 A 
ATOM     18  C   UNL     1       4.542 -10.356  -1.722  0.00  0.00    +0.011 A 
ATOM     19  C   UNL     1       4.065 -11.615  -2.019  0.00  0.00    +0.001 A 
ATOM     20  C   UNL     1       2.773 -11.776  -2.487  0.00  0.00    +0.012 A 
ATOM     21  C   UNL     1       1.952 -10.677  -2.661  0.00  0.00    +0.055 A 
ATOM     22  C   UNL     1       2.414  -9.412  -2.363  0.00  0.00    +0.024 A 
BRANCH  21  23
ATOM     23  C   UNL     1       0.546 -10.862  -3.172  0.00  0.00    +0.417 C 
ATOM     24  F   UNL     1       0.306 -12.222  -3.397  0.00  0.00    -0.166 F 
ATOM     25  F   UNL     1      -0.362 -10.379  -2.225  0.00  0.00    -0.166 F 
ATOM     26  F   UNL     1       0.389 -10.157  -4.371  0.00  0.00    -0.166 F 
ENDBRANCH  21  23
ENDBRANCH  15  17
ENDBRANCH   1  12
BRANCH   1  27
ATOM     27  C   UNL     1       3.078  -3.972  -0.050  0.00  0.00    +0.179 C 
BRANCH  27  35
ATOM     28  C   UNL     1      -0.016   1.357   0.009  0.00  0.00    +0.002 A 
ATOM     29  C   UNL     1       1.156   2.100   0.002  0.00  0.00    +0.001 A 
ATOM     30  C   UNL     1       2.375   1.449  -0.013  0.00  0.00    +0.017 A 
ATOM     31  C   UNL     1       2.404   0.076  -0.021  0.00  0.00    +0.039 A 
ATOM     32  C   UNL     1       1.226  -0.705  -0.013  0.00  0.00    +0.079 A 
ATOM     33  C   UNL     1       0.002  -0.004   0.002  0.00  0.00    +0.029 A 
ATOM     34  N   UNL     1       1.464  -2.033  -0.023  0.00  0.00    -0.243 NA
ATOM     35  C   UNL     1       2.669  -2.521  -0.038  0.00  0.00    +0.099 A 
ATOM     36  S   UNL     1       3.669  -1.167  -0.040  0.00  0.00    -0.071 S 
ENDBRANCH  27  35
BRANCH  27  37
ATOM     37  C   UNL     1       3.891  -4.262   1.143  0.00  0.00    +0.075 C 
ATOM     38  N   UNL     1       4.518  -4.486   2.063  0.00  0.00    -0.196 NA
ENDBRANCH  27  37
ENDBRANCH   1  27
TORSDOF 8
