REMARK  Name = ZINC01083684
REMARK  1 active torsions:
REMARK  status: ('A' for Active; 'I' for Inactive)
REMARK    1  A    between atoms: C_5  and  C_7
REMARK                            x       y       z     vdW  Elec       q    Type
REMARK                         _______ _______ _______ _____ _____    ______ ____
ROOT
ATOM      1  C   UNL     1      -1.303   2.024   0.019  0.00  0.00    +0.174 C 
ATOM      2  C   UNL     1      -0.014   1.211   0.009  0.00  0.00    +0.248 C 
ATOM      3  O   UNL     1       0.002  -0.004   0.002  0.00  0.00    -0.273 OA
ATOM      4  N   UNL     1       1.075   1.940   0.002  0.00  0.00    -0.162 NA
ATOM      5  C   UNL     1       1.086   3.259   0.009  0.00  0.00    +0.167 C 
ATOM      6  S   UNL     1      -0.589   3.716   0.026  0.00  0.00    -0.088 S 
ENDROOT
BRANCH   5   7
ATOM      7  C   UNL     1       2.228   4.123   0.002  0.00  0.00    +0.124 C 
ATOM      8  N   UNL     1       3.133   4.809  -0.004  0.00  0.00    -0.189 NA
ENDBRANCH   5   7
TORSDOF 1
