REMARK  Name = ZINC08938592
REMARK  6 active torsions:
REMARK  status: ('A' for Active; 'I' for Inactive)
REMARK    1  A    between atoms: C_1  and  C_2
REMARK    2  A    between atoms: C_7  and  O_8
REMARK    3  A    between atoms: O_8  and  C_9
REMARK    4  A    between atoms: C_9  and  C_10
REMARK    5  A    between atoms: C_10  and  N_11
REMARK    6  A    between atoms: C_19  and  C_21
REMARK                            x       y       z     vdW  Elec       q    Type
REMARK                         _______ _______ _______ _____ _____    ______ ____
ROOT
ATOM      1  N   UNL     1       1.048   2.039   0.003  0.00  0.00    -0.221 N 
ATOM      2  C   UNL     1      -0.014   1.208   0.009  0.00  0.00    +0.247 C 
ATOM      3  O   UNL     1       0.002  -0.004   0.002  0.00  0.00    -0.273 OA
ATOM      4  C   UNL     1      -1.230   2.107   0.018  0.00  0.00    +0.115 C 
ATOM      5  C   UNL     1      -2.069   1.879  -1.234  0.00  0.00    +0.035 C 
ATOM      6  C   UNL     1      -2.608   0.446  -1.234  0.00  0.00    +0.003 C 
ATOM      7  C   UNL     1      -3.457   0.221   0.018  0.00  0.00    +0.000 C 
ATOM      8  C   UNL     1      -2.597   0.433   1.266  0.00  0.00    +0.006 C 
ATOM      9  C   UNL     1      -2.059   1.866   1.275  0.00  0.00    +0.018 C 
ATOM     10  C   UNL     1      -1.182   2.072   2.512  0.00  0.00    +0.010 C 
ATOM     11  N   UNL     1      -0.670   3.464   0.026  0.00  0.00    -0.285 N 
ATOM     12  C   UNL     1       0.670   3.324   0.013  0.00  0.00    +0.309 C 
ATOM     13  O   UNL     1       1.447   4.257   0.010  0.00  0.00    -0.252 OA
ATOM     14  H   UNL     1      -1.166   4.297   0.035  0.00  0.00    +0.151 HD
ENDROOT
BRANCH   1  15
ATOM     15  C   UNL     1       2.443   1.592  -0.013  0.00  0.00    +0.159 C 
BRANCH  15  16
ATOM     16  C   UNL     1       2.915   1.444  -1.461  0.00  0.00    +0.248 C 
BRANCH  16  17
ATOM     17  O   UNL     1       2.922   2.726  -2.093  0.00  0.00    -0.490 OA
BRANCH  17  24
ATOM     18  C   UNL     1       2.930   5.248  -3.365  0.00  0.00    +0.047 C 
ATOM     19  C   UNL     1       3.344   3.982  -4.069  0.00  0.00    -0.009 A 
ATOM     20  C   UNL     1       3.752   4.026  -5.388  0.00  0.00    +0.007 A 
ATOM     21  C   UNL     1       4.127   2.863  -6.036  0.00  0.00    +0.000 A 
ATOM     22  C   UNL     1       4.097   1.655  -5.365  0.00  0.00    +0.004 A 
ATOM     23  C   UNL     1       3.694   1.606  -4.045  0.00  0.00    +0.046 A 
ATOM     24  C   UNL     1       3.319   2.771  -3.392  0.00  0.00    +0.123 A 
ENDBRANCH  17  24
ENDBRANCH  16  17
ENDBRANCH  15  16
ENDBRANCH   1  15
TORSDOF 4
