REMARK  Name = ZINC05633499
REMARK  7 active torsions:
REMARK  status: ('A' for Active; 'I' for Inactive)
REMARK    1  A    between atoms: C_1  and  C_2
REMARK    2  A    between atoms: C_2  and  C_3
REMARK    3  A    between atoms: C_2  and  C_4
REMARK    4  A    between atoms: C_11  and  N_26
REMARK    5  A    between atoms: C_12  and  C_24
REMARK    6  A    between atoms: C_13  and  C_15
REMARK    7  A    between atoms: C_19  and  N_21
REMARK                            x       y       z     vdW  Elec       q    Type
REMARK                         _______ _______ _______ _____ _____    ______ ____
ROOT
ATOM      1  C   UNL     1       2.104   0.740  -0.013  0.00  0.00    +0.073 A 
ATOM      2  C   UNL     1       1.311  -0.400  -0.011  0.00  0.00    +0.050 A 
ATOM      3  C   UNL     1       0.002  -0.004   0.002  0.00  0.00    +0.222 A 
ATOM      4  N   UNL     1      -0.016   1.338   0.009  0.00  0.00    -0.246 N 
ATOM      5  H   UNL     1      -0.832   1.916   0.020  0.00  0.00    +0.192 HD
ATOM      6  N   UNL     1       1.314   1.787  -0.001  0.00  0.00    -0.175 NA
ATOM      7  O   UNL     1      -1.029  -0.885   0.005  0.00  0.00    -0.423 OA
ATOM      8  C   UNL     1      -0.751  -2.173  -0.282  0.00  0.00    +0.200 C 
ATOM      9  C   UNL     1       0.500  -2.684  -0.312  0.00  0.00    +0.098 C 
ATOM     10  C   UNL     1       1.722  -1.849  -0.021  0.00  0.00    +0.101 C 
ENDROOT
BRANCH  10  11
ATOM     11  C   UNL     1       2.287  -2.227   1.325  0.00  0.00    -0.032 A 
ATOM     12  C   UNL     1       1.513  -2.089   2.462  0.00  0.00    +0.005 A 
ATOM     13  C   UNL     1       2.031  -2.435   3.696  0.00  0.00    +0.003 A 
ATOM     14  C   UNL     1       3.322  -2.920   3.793  0.00  0.00    +0.033 A 
ATOM     15  C   UNL     1       4.095  -3.058   2.655  0.00  0.00    +0.126 A 
ATOM     16  C   UNL     1       3.575  -2.716   1.421  0.00  0.00    +0.037 A 
BRANCH  15  17
ATOM     17  N   UNL     1       5.477  -3.578   2.759  0.00  0.00    +0.056 N 
ATOM     18  O   UNL     1       5.933  -3.884   3.846  0.00  0.00    -0.126 OA
ATOM     19  O   UNL     1       6.159  -3.699   1.756  0.00  0.00    -0.126 OA
ENDBRANCH  15  17
ENDBRANCH  10  11
BRANCH   1  21
ATOM     20  C   UNL     1       4.095   1.505  -1.278  0.00  0.00    +0.014 C 
ATOM     21  C   UNL     1       3.611   0.768  -0.028  0.00  0.00    +0.034 C 
ATOM     22  C   UNL     1       4.119   1.493   1.220  0.00  0.00    +0.014 C 
ENDBRANCH   1  21
BRANCH   8  23
ATOM     23  N   UNL     1      -1.800  -3.015  -0.558  0.00  0.00    -0.328 N 
ATOM     24  H   UNL     1      -2.709  -2.678  -0.543  0.00  0.00    +0.145 HD
ATOM     25  H   UNL     1      -1.631  -3.947  -0.768  0.00  0.00    +0.145 HD
ENDBRANCH   8  23
BRANCH   9  26
ATOM     26  C   UNL     1       0.672  -4.069  -0.634  0.00  0.00    +0.101 C 
ATOM     27  N   UNL     1       0.808  -5.167  -0.889  0.00  0.00    -0.191 NA
ENDBRANCH   9  26
TORSDOF 5
