REMARK  Name = ZINC18205462
REMARK  4 active torsions:
REMARK  status: ('A' for Active; 'I' for Inactive)
REMARK    1  A    between atoms: C_1  and  C_2
REMARK    2  A    between atoms: C_4  and  N_8
REMARK    3  A    between atoms: N_9  and  C_10
REMARK    4  A    between atoms: C_13  and  O_16
REMARK                            x       y       z     vdW  Elec       q    Type
REMARK                         _______ _______ _______ _____ _____    ______ ____
ROOT
ATOM      1  N   UNL     1       0.038  -3.103  -1.590  0.00  0.00    -0.109 NA
ATOM      2  N   UNL     1       0.029  -2.909  -2.865  0.00  0.00    -0.146 NA
ENDROOT
BRANCH   1   6
ATOM      3  C   UNL     1      -0.018   1.503   0.010  0.00  0.00    +0.090 C 
ATOM      4  C   UNL     1       0.002  -0.004   0.002  0.00  0.00    +0.150 A 
ATOM      5  N   UNL     1       0.007  -0.765  -1.086  0.00  0.00    -0.194 NA
ATOM      6  C   UNL     1       0.027  -2.040  -0.740  0.00  0.00    +0.265 A 
ATOM      7  N   UNL     1       0.035  -2.098   0.619  0.00  0.00    -0.242 N 
ATOM      8  H   UNL     1       0.049  -2.897   1.169  0.00  0.00    +0.192 HD
ATOM      9  N   UNL     1       0.023  -0.766   1.067  0.00  0.00    -0.156 NA
ENDBRANCH   1   6
BRANCH   2  10
ATOM     10  C   UNL     1       0.039  -3.974  -3.716  0.00  0.00    +0.087 A 
ATOM     11  C   UNL     1       0.054  -5.278  -3.209  0.00  0.00    +0.033 A 
ATOM     12  C   UNL     1       0.064  -6.350  -4.073  0.00  0.00    +0.047 A 
ATOM     13  C   UNL     1       0.060  -6.139  -5.447  0.00  0.00    +0.117 A 
ATOM     14  C   UNL     1       0.046  -4.845  -5.956  0.00  0.00    +0.047 A 
ATOM     15  C   UNL     1       0.029  -3.767  -5.101  0.00  0.00    +0.033 A 
BRANCH  13  16
ATOM     16  O   UNL     1       0.070  -7.199  -6.295  0.00  0.00    -0.507 OA
ATOM     17  H   UNL     1      -0.810  -7.516  -6.539  0.00  0.00    +0.292 HD
ENDBRANCH  13  16
ENDBRANCH   2  10
TORSDOF 3
