REMARK  Name = ZINC47548181
REMARK  9 active torsions:
REMARK  status: ('A' for Active; 'I' for Inactive)
REMARK    1  A    between atoms: C_1  and  C_2
REMARK    2  A    between atoms: C_10  and  C_11
REMARK    3  A    between atoms: C_11  and  C_13
REMARK    4  A    between atoms: C_11  and  N_14
REMARK    5  A    between atoms: N_17  and  C_18
REMARK    6  A    between atoms: C_21  and  N_26
REMARK    7  A    between atoms: C_22  and  O_24
REMARK    8  A    between atoms: O_24  and  C_25
REMARK    9  A    between atoms: C_27  and  C_29
REMARK                            x       y       z     vdW  Elec       q    Type
REMARK                         _______ _______ _______ _____ _____    ______ ____
ROOT
ATOM      1  N   UNL     1       1.010  -1.072   3.252  0.00  0.00    -0.290 N 
ATOM      2  C   UNL     1       1.571  -0.552   4.362  0.00  0.00    +0.304 C 
ATOM      3  O   UNL     1       1.254   0.559   4.740  0.00  0.00    -0.252 OA
ATOM      4  N   UNL     1       2.483  -1.265   5.052  0.00  0.00    -0.269 N 
ATOM      5  H   UNL     1       1.262  -1.958   2.950  0.00  0.00    +0.151 HD
ATOM      6  H   UNL     1       2.687  -2.176   4.789  0.00  0.00    +0.156 HD
ENDROOT
BRANCH   4   7
ATOM      7  C   UNL     1       3.136  -0.690   6.150  0.00  0.00    +0.038 A 
ATOM      8  C   UNL     1       2.455   0.192   6.979  0.00  0.00    +0.025 A 
ATOM      9  C   UNL     1       3.096   0.760   8.062  0.00  0.00    +0.029 A 
ATOM     10  C   UNL     1       4.423   0.451   8.325  0.00  0.00    +0.076 A 
ATOM     11  C   UNL     1       5.108  -0.434   7.495  0.00  0.00    +0.143 A 
ATOM     12  C   UNL     1       4.462  -1.006   6.412  0.00  0.00    +0.070 A 
BRANCH  10  13
ATOM     13  N   UNL     1       5.074   1.029   9.425  0.00  0.00    -0.283 N 
ATOM     14  C   UNL     1       4.390   1.274  10.560  0.00  0.00    +0.214 C 
ATOM     15  O   UNL     1       3.195   1.072  10.604  0.00  0.00    -0.276 OA
ATOM     16  C   UNL     1       5.111   1.799  11.775  0.00  0.00    +0.109 C 
ATOM     17  H   UNL     1       6.016   1.252   9.368  0.00  0.00    +0.155 HD
ENDBRANCH  10  13
BRANCH  11  18
ATOM     18  O   UNL     1       6.408  -0.738   7.750  0.00  0.00    -0.493 OA
ATOM     19  C   UNL     1       7.048  -1.652   6.858  0.00  0.00    +0.277 C 
ENDBRANCH  11  18
ENDBRANCH   4   7
BRANCH   1  20
ATOM     20  C   UNL     1       0.018  -0.297   2.501  0.00  0.00    +0.138 C 
ATOM     21  C   UNL     1      -1.366  -0.504   3.120  0.00  0.00    +0.036 C 
BRANCH  20  31
ATOM     22  C   UNL     1      -0.026   1.559   0.009  0.00  0.00    +0.048 C 
ATOM     23  C   UNL     1      -0.018   0.052  -0.000  0.00  0.00    +0.000 A 
ATOM     24  C   UNL     1      -0.022  -0.823  -1.179  0.00  0.00    +0.023 A 
ATOM     25  C   UNL     1      -0.035  -0.603  -2.556  0.00  0.00    +0.012 A 
ATOM     26  C   UNL     1      -0.037  -1.669  -3.412  0.00  0.00    +0.001 A 
ATOM     27  C   UNL     1      -0.026  -2.966  -2.919  0.00  0.00    +0.004 A 
ATOM     28  C   UNL     1      -0.013  -3.203  -1.561  0.00  0.00    +0.047 A 
ATOM     29  C   UNL     1      -0.011  -2.134  -0.673  0.00  0.00    +0.136 A 
ATOM     30  O   UNL     1      -0.001  -2.044   0.671  0.00  0.00    -0.458 OA
ATOM     31  C   UNL     1       0.001  -0.759   1.067  0.00  0.00    +0.129 A 
ENDBRANCH  20  31
ENDBRANCH   1  20
TORSDOF 5
