REMARK  Name = ZINC22808222
REMARK  6 active torsions:
REMARK  status: ('A' for Active; 'I' for Inactive)
REMARK    1  A    between atoms: C_1  and  C_2
REMARK    2  A    between atoms: C_2  and  C_4
REMARK    3  A    between atoms: C_2  and  N_18
REMARK    4  A    between atoms: N_6  and  C_7
REMARK    5  A    between atoms: C_8  and  C_15
REMARK    6  A    between atoms: N_21  and  C_24
REMARK                            x       y       z     vdW  Elec       q    Type
REMARK                         _______ _______ _______ _____ _____    ______ ____
ROOT
ATOM      1  C   UNL     1       0.293   1.449   0.277  0.00  0.00    +0.235 C 
ATOM      2  O   UNL     1       1.093   2.048  -0.410  0.00  0.00    -0.274 OA
ATOM      3  N   UNL     1      -0.337   2.083   1.286  0.00  0.00    -0.278 N 
ATOM      4  H   UNL     1      -0.977   1.604   1.835  0.00  0.00    +0.155 HD
ENDROOT
BRANCH   3   5
ATOM      5  C   UNL     1      -0.069   3.420   1.539  0.00  0.00    +0.084 A 
ATOM      6  C   UNL     1      -0.611   4.223   2.525  0.00  0.00    +0.068 A 
ATOM      7  C   UNL     1      -0.158   5.612   2.581  0.00  0.00    -0.023 A 
ATOM      8  C   UNL     1       0.748   5.932   1.639  0.00  0.00    -0.004 A 
ATOM      9  S   UNL     1       0.990   4.432   0.723  0.00  0.00    -0.077 S 
ATOM     10  C   UNL     1       1.176   7.371   1.739  0.00  0.00    +0.043 C 
ATOM     11  C   UNL     1       0.093   8.041   2.613  0.00  0.00    +0.010 C 
ATOM     12  C   UNL     1      -0.430   6.847   3.438  0.00  0.00    +0.037 C 
BRANCH   6  13
ATOM     13  C   UNL     1      -1.599   3.704   3.475  0.00  0.00    +0.244 C 
ATOM     14  O   UNL     1      -1.232   3.209   4.525  0.00  0.00    -0.270 OA
ATOM     15  N   UNL     1      -2.913   3.775   3.187  0.00  0.00    -0.325 N 
ATOM     16  H   UNL     1      -3.206   4.170   2.351  0.00  0.00    +0.145 HD
ATOM     17  H   UNL     1      -3.567   3.431   3.816  0.00  0.00    +0.145 HD
ENDBRANCH   6  13
ENDBRANCH   3   5
BRANCH   1  19
ATOM     18  C   UNL     1      -1.363  -0.132  -0.676  0.00  0.00    +0.034 C 
ATOM     19  C   UNL     1       0.002  -0.004   0.002  0.00  0.00    +0.140 C 
BRANCH  19  20
ATOM     20  N   UNL     1       1.040  -0.553  -0.880  0.00  0.00    -0.295 NA
ATOM     21  C   UNL     1       1.016  -2.022  -0.873  0.00  0.00    +0.066 C 
ATOM     22  C   UNL     1       2.148  -2.553  -1.755  0.00  0.00    -0.063 C 
ATOM     23  N   UNL     1       1.978  -2.051  -3.125  0.00  0.00    +0.384 N 
ATOM     24  C   UNL     1       2.029  -0.583  -3.119  0.00  0.00    -0.063 C 
ATOM     25  C   UNL     1       0.896  -0.035  -2.248  0.00  0.00    +0.066 C 
ATOM     26  H   UNL     1       1.086  -2.354  -3.486  0.00  0.00    -0.081 HD
BRANCH  23  27
ATOM     27  C   UNL     1       3.054  -2.575  -3.975  0.00  0.00    -0.046 C 
ATOM     28  C   UNL     1       2.864  -2.081  -5.419  0.00  0.00    +0.009 C 
ATOM     29  C   UNL     1       3.788  -2.872  -6.375  0.00  0.00    +0.164 C 
ATOM     30  S   UNL     1       3.971  -4.487  -5.514  0.00  0.00    -0.033 S 
ATOM     31  O   UNL     1       3.297  -5.489  -6.263  0.00  0.00    -0.174 OA
ATOM     32  O   UNL     1       5.336  -4.674  -5.166  0.00  0.00    -0.174 OA
ATOM     33  C   UNL     1       3.005  -4.130  -3.986  0.00  0.00    +0.151 C 
ENDBRANCH  23  27
ENDBRANCH  19  20
ENDBRANCH   1  19
TORSDOF 5
