REMARK  Name = ZINC12979720
REMARK  8 active torsions:
REMARK  status: ('A' for Active; 'I' for Inactive)
REMARK    1  A    between atoms: C_1  and  C_2
REMARK    2  A    between atoms: C_5  and  C_9
REMARK    3  A    between atoms: C_6  and  C_8
REMARK    4  A    between atoms: C_9  and  N_54
REMARK    5  A    between atoms: C_10  and  N_54
REMARK    6  A    between atoms: C_11  and  C_12
REMARK    7  A    between atoms: C_11  and  N_54
REMARK    8  A    between atoms: C_25  and  C_27
REMARK                            x       y       z     vdW  Elec       q    Type
REMARK                         _______ _______ _______ _____ _____    ______ ____
ROOT
ATOM      1  C   UNL     1       3.554   0.970  -0.440  0.00  0.00    +0.204 C 
ATOM      2  O   UNL     1       3.989   0.997   0.692  0.00  0.00    -0.277 OA
ATOM      3  N   UNL     1       2.358   1.527  -0.715  0.00  0.00    -0.268 N 
ATOM      4  C   UNL     1       1.842   1.504  -2.018  0.00  0.00    +0.058 A 
ATOM      5  C   UNL     1       2.379   2.315  -3.004  0.00  0.00    +0.025 A 
ATOM      6  C   UNL     1       1.832   2.309  -4.274  0.00  0.00    +0.002 A 
ATOM      7  C   UNL     1       0.751   1.497  -4.564  0.00  0.00    +0.002 A 
ATOM      8  C   UNL     1       0.216   0.675  -3.588  0.00  0.00    +0.025 A 
ATOM      9  C   UNL     1       0.766   0.668  -2.317  0.00  0.00    +0.055 A 
ATOM     10  N   UNL     1       0.261  -0.174  -1.319  0.00  0.00    -0.284 N 
ATOM     11  C   UNL     1      -0.028   0.312  -0.092  0.00  0.00    +0.219 C 
ATOM     12  O   UNL     1      -0.390  -0.444   0.785  0.00  0.00    -0.275 OA
ATOM     13  C   UNL     1       0.099   1.784   0.196  0.00  0.00    +0.118 C 
ATOM     14  C   UNL     1       1.573   2.168   0.340  0.00  0.00    +0.087 C 
ATOM     15  C   UNL     1       1.716   3.688   0.228  0.00  0.00    +0.029 C 
ATOM     16  H   UNL     1       0.116  -1.114  -1.511  0.00  0.00    +0.155 HD
ENDROOT
BRANCH   1  17
ATOM     17  C   UNL     1       4.350   0.314  -1.538  0.00  0.00    +0.019 C 
BRANCH  17  19
ATOM     18  C   UNL     1       5.347  -1.306  -0.039  0.00  0.00    -0.095 C 
ATOM     19  N   UNL     1       5.618  -0.191  -0.971  0.00  0.00    +0.386 N 
ATOM     20  H   UNL     1       6.079   0.568  -0.456  0.00  0.00    -0.081 HD
BRANCH  19  21
ATOM     21  C   UNL     1       6.512  -0.646  -2.057  0.00  0.00    -0.042 C 
BRANCH  21  26
ATOM     22  C   UNL     1      11.854  -1.247   0.062  0.00  0.00    +0.044 C 
ATOM     23  C   UNL     1      10.461  -1.090  -0.490  0.00  0.00    -0.050 A 
ATOM     24  C   UNL     1       9.704  -2.209  -0.783  0.00  0.00    +0.003 A 
ATOM     25  C   UNL     1       8.426  -2.066  -1.290  0.00  0.00    +0.002 A 
ATOM     26  C   UNL     1       7.905  -0.803  -1.504  0.00  0.00    -0.061 A 
ATOM     27  C   UNL     1       8.664   0.316  -1.216  0.00  0.00    -0.049 A 
ATOM     28  C   UNL     1       9.940   0.172  -0.704  0.00  0.00    +0.007 A 
ATOM     29  C   UNL     1       8.098   1.692  -1.455  0.00  0.00    +0.044 C 
ENDBRANCH  21  26
ENDBRANCH  19  21
ENDBRANCH  17  19
ENDBRANCH   1  17
TORSDOF 4
