REMARK  Name = ZINC32847921
REMARK  8 active torsions:
REMARK  status: ('A' for Active; 'I' for Inactive)
REMARK    1  A    between atoms: C_1  and  C_2
REMARK    2  A    between atoms: C_4  and  S_24
REMARK    3  A    between atoms: C_6  and  N_9
REMARK    4  A    between atoms: C_7  and  C_8
REMARK    5  A    between atoms: C_10  and  C_12
REMARK    6  A    between atoms: C_12  and  C_13
REMARK    7  A    between atoms: C_13  and  C_14
REMARK    8  A    between atoms: S_24  and  N_27
REMARK                            x       y       z     vdW  Elec       q    Type
REMARK                         _______ _______ _______ _____ _____    ______ ____
ROOT
ATOM      1  N   UNL     1       6.019  -2.024  -2.695  0.00  0.00    -0.285 N 
ATOM      2  C   UNL     1       5.448  -1.697  -1.519  0.00  0.00    +0.218 C 
ATOM      3  O   UNL     1       5.986  -2.008  -0.477  0.00  0.00    -0.275 OA
ATOM      4  H   UNL     1       5.489  -1.824  -3.638  0.00  0.00    +0.155 HD
ENDROOT
BRANCH   1  10
ATOM      5  C   UNL     1       9.328  -4.852  -4.981  0.00  0.00    +0.044 C 
ATOM      6  C   UNL     1       8.916  -3.994  -3.813  0.00  0.00    -0.044 A 
ATOM      7  C   UNL     1       9.790  -3.794  -2.761  0.00  0.00    +0.032 A 
ATOM      8  C   UNL     1       9.416  -3.007  -1.687  0.00  0.00    +0.107 A 
ATOM      9  C   UNL     1       8.166  -2.419  -1.662  0.00  0.00    +0.052 A 
ATOM     10  C   UNL     1       7.286  -2.619  -2.717  0.00  0.00    +0.038 A 
ATOM     11  C   UNL     1       7.663  -3.414  -3.792  0.00  0.00    -0.026 A 
ATOM     12  C   UNL     1       6.708  -3.638  -4.936  0.00  0.00    +0.046 C 
BRANCH   8  13
ATOM     13  S   UNL     1      10.534  -2.754  -0.349  0.00  0.00    +0.056 S 
ATOM     14  O   UNL     1      11.841  -2.966  -0.866  0.00  0.00    -0.153 OA
ATOM     15  O   UNL     1      10.151  -1.537   0.276  0.00  0.00    -0.153 OA
BRANCH  13  16
ATOM     16  N   UNL     1      10.259  -3.959   0.753  0.00  0.00    -0.204 NA
ATOM     17  H   UNL     1      10.941  -3.837   1.608  0.00  0.00    +0.144 HD
ATOM     18  H   UNL     1      10.437  -4.936   0.280  0.00  0.00    +0.144 HD
ENDBRANCH  13  16
ENDBRANCH   8  13
ENDBRANCH   1  10
BRANCH   2  19
ATOM     19  C   UNL     1       4.142  -0.946  -1.498  0.00  0.00    +0.101 C 
BRANCH  19  20
ATOM     20  C   UNL     1       3.717  -0.703  -0.049  0.00  0.00    +0.044 C 
BRANCH  20  21
ATOM     21  C   UNL     1       2.411   0.049  -0.028  0.00  0.00    -0.043 A 
ATOM     22  C   UNL     1       1.215  -0.646  -0.019  0.00  0.00    +0.007 A 
ATOM     23  C   UNL     1       0.015   0.040  -0.001  0.00  0.00    +0.050 A 
ATOM     24  C   UNL     1       0.008   1.427   0.008  0.00  0.00    +0.162 A 
ATOM     25  C   UNL     1       1.209   2.125   0.003  0.00  0.00    +0.162 A 
ATOM     26  C   UNL     1       2.410   1.431  -0.017  0.00  0.00    +0.053 A 
ATOM     27  O   UNL     1       1.224   3.486   0.020  0.00  0.00    -0.485 OA
ATOM     28  C   UNL     1       0.006   4.147  -0.338  0.00  0.00    +0.270 C 
ATOM     29  C   UNL     1      -1.149   3.466   0.408  0.00  0.00    +0.270 C 
ATOM     30  O   UNL     1      -1.182   2.088   0.017  0.00  0.00    -0.485 OA
ENDBRANCH  20  21
ENDBRANCH  19  20
ENDBRANCH   2  19
TORSDOF 6
