REMARK  Name = ZINC19354486
REMARK  10 active torsions:
REMARK  status: ('A' for Active; 'I' for Inactive)
REMARK    1  A    between atoms: C_1  and  C_2
REMARK    2  A    between atoms: C_3  and  C_14
REMARK    3  A    between atoms: C_4  and  C_12
REMARK    4  A    between atoms: C_5  and  N_7
REMARK    5  A    between atoms: C_14  and  O_16
REMARK    6  A    between atoms: O_16  and  C_17
REMARK    7  A    between atoms: C_17  and  C_18
REMARK    8  A    between atoms: N_20  and  C_21
REMARK    9  A    between atoms: C_21  and  C_22
REMARK   10  A    between atoms: N_24  and  C_25
REMARK                            x       y       z     vdW  Elec       q    Type
REMARK                         _______ _______ _______ _____ _____    ______ ____
ROOT
ATOM      1  C   UNL     1       4.830   0.547  -0.036  0.00  0.00    +0.328 C 
ENDROOT
BRANCH   1   2
ATOM      2  C   UNL     1       3.671   1.510  -0.016  0.00  0.00    +0.251 C 
ATOM      3  O   UNL     1       3.877   2.705  -0.002  0.00  0.00    -0.272 OA
ATOM      4  N   UNL     1       2.407   1.044  -0.012  0.00  0.00    -0.304 N 
ATOM      5  H   UNL     1       2.220  -0.041  -0.025  0.00  0.00    +0.149 HD
BRANCH   4   6
ATOM      6  C   UNL     1       1.280   1.980   0.007  0.00  0.00    +0.200 C 
BRANCH   6   7
ATOM      7  C   UNL     1      -0.014   1.209   0.007  0.00  0.00    +0.234 C 
ATOM      8  O   UNL     1       0.002  -0.004  -0.008  0.00  0.00    -0.274 OA
ATOM      9  N   UNL     1      -1.191   1.867   0.018  0.00  0.00    -0.284 N 
ATOM     10  H   UNL     1      -1.207   2.963   0.108  0.00  0.00    +0.155 HD
BRANCH   9  11
ATOM     11  C   UNL     1      -2.392   1.155  -0.086  0.00  0.00    +0.036 A 
ATOM     12  C   UNL     1      -3.469   1.704  -0.770  0.00  0.00    +0.026 A 
ATOM     13  C   UNL     1      -4.651   0.999  -0.876  0.00  0.00    +0.043 A 
ATOM     14  C   UNL     1      -4.769  -0.251  -0.293  0.00  0.00    +0.159 A 
ATOM     15  C   UNL     1      -3.697  -0.800   0.395  0.00  0.00    +0.160 A 
ATOM     16  C   UNL     1      -2.510  -0.099   0.499  0.00  0.00    +0.064 A 
ATOM     17  F   UNL     1      -3.813  -2.020   0.964  0.00  0.00    -0.202 F 
ATOM     18  F   UNL     1      -5.928  -0.937  -0.395  0.00  0.00    -0.202 F 
ENDBRANCH   9  11
ENDBRANCH   6   7
ENDBRANCH   4   6
ENDBRANCH   1   2
BRANCH   1  19
ATOM     19  O   UNL     1       6.077   1.290  -0.035  0.00  0.00    -0.452 OA
BRANCH  19  20
ATOM     20  C   UNL     1       7.218   0.572  -0.052  0.00  0.00    +0.344 C 
ATOM     21  O   UNL     1       7.170  -0.643  -0.067  0.00  0.00    -0.245 OA
BRANCH  20  24
ATOM     22  C   UNL     1       8.828   1.461  -2.575  0.00  0.00    +0.087 C 
ATOM     23  C   UNL     1       9.238   1.654  -1.138  0.00  0.00    +0.120 A 
ATOM     24  C   UNL     1       8.519   1.257  -0.053  0.00  0.00    +0.119 A 
ATOM     25  C   UNL     1       9.316   1.665   1.126  0.00  0.00    +0.129 A 
ATOM     26  C   UNL     1      10.447   2.264   0.611  0.00  0.00    +0.223 A 
ATOM     27  O   UNL     1      10.367   2.243  -0.727  0.00  0.00    -0.442 OA
BRANCH  26  28
ATOM     28  N   UNL     1      11.490   2.802   1.353  0.00  0.00    -0.293 N 
ATOM     29  C   UNL     1      11.568   2.828   2.719  0.00  0.00    +0.094 A 
ATOM     30  C   UNL     1      12.725   3.428   3.063  0.00  0.00    +0.020 A 
ATOM     31  C   UNL     1      13.383   3.794   1.871  0.00  0.00    +0.020 A 
ATOM     32  C   UNL     1      12.608   3.401   0.842  0.00  0.00    +0.094 A 
ENDBRANCH  26  28
BRANCH  25  33
ATOM     33  C   UNL     1       8.984   1.476   2.506  0.00  0.00    +0.105 C 
ATOM     34  N   UNL     1       8.721   1.326   3.601  0.00  0.00    -0.191 NA
ENDBRANCH  25  33
ENDBRANCH  20  24
ENDBRANCH  19  20
ENDBRANCH   1  19
TORSDOF 9
