REMARK  Name = ZINC00800669
REMARK  10 active torsions:
REMARK  status: ('A' for Active; 'I' for Inactive)
REMARK    1  A    between atoms: C_1  and  C_2
REMARK    2  A    between atoms: C_2  and  O_3
REMARK    3  A    between atoms: O_3  and  C_4
REMARK    4  A    between atoms: C_6  and  C_19
REMARK    5  A    between atoms: C_9  and  O_10
REMARK    6  A    between atoms: O_10  and  C_11
REMARK    7  A    between atoms: C_11  and  C_12
REMARK    8  A    between atoms: C_22  and  C_33
REMARK    9  A    between atoms: C_28  and  N_32
REMARK   10  A    between atoms: C_29  and  C_30
REMARK                            x       y       z     vdW  Elec       q    Type
REMARK                         _______ _______ _______ _____ _____    ______ ____
ROOT
ATOM      1  C   UNL     1       0.777  -1.811  -1.336  0.00  0.00    +0.162 A 
ATOM      2  C   UNL     1       0.243  -2.669  -0.388  0.00  0.00    +0.054 A 
ATOM      3  C   UNL     1       0.352  -4.037  -0.555  0.00  0.00    -0.031 A 
ATOM      4  C   UNL     1       0.992  -4.552  -1.667  0.00  0.00    +0.008 A 
ATOM      5  C   UNL     1       1.526  -3.702  -2.616  0.00  0.00    +0.050 A 
ATOM      6  C   UNL     1       1.416  -2.330  -2.458  0.00  0.00    +0.162 A 
ENDROOT
BRANCH   3   7
ATOM      7  C   UNL     1      -0.229  -4.969   0.477  0.00  0.00    +0.101 C 
ATOM      8  C   UNL     1       0.861  -5.841   1.046  0.00  0.00    +0.049 A 
ATOM      9  C   UNL     1       1.892  -5.506   1.913  0.00  0.00    +0.068 A 
ATOM     10  N   UNL     1       2.603  -6.586   2.136  0.00  0.00    -0.176 NA
ATOM     11  N   UNL     1       2.038  -7.647   1.411  0.00  0.00    -0.246 N 
ATOM     12  H   UNL     1       2.361  -8.561   1.391  0.00  0.00    +0.192 HD
ATOM     13  C   UNL     1       0.971  -7.171   0.749  0.00  0.00    +0.222 A 
ATOM     14  O   UNL     1       0.107  -7.811  -0.077  0.00  0.00    -0.423 OA
ATOM     15  C   UNL     1      -1.039  -7.175  -0.397  0.00  0.00    +0.200 C 
ATOM     16  C   UNL     1      -1.261  -5.861  -0.166  0.00  0.00    +0.098 C 
ATOM     17  C   UNL     1       2.150  -4.141   2.497  0.00  0.00    +0.068 C 
BRANCH  15  18
ATOM     18  N   UNL     1      -2.038  -7.904  -0.992  0.00  0.00    -0.328 N 
ATOM     19  H   UNL     1      -1.909  -8.849  -1.171  0.00  0.00    +0.145 HD
ATOM     20  H   UNL     1      -2.874  -7.475  -1.233  0.00  0.00    +0.145 HD
ENDBRANCH  15  18
BRANCH  16  21
ATOM     21  C   UNL     1      -2.521  -5.297  -0.544  0.00  0.00    +0.101 C 
ATOM     22  N   UNL     1      -3.521  -4.849  -0.845  0.00  0.00    -0.191 NA
ENDBRANCH  16  21
ENDBRANCH   3   7
BRANCH   1  23
ATOM     23  O   UNL     1       0.671  -0.465  -1.174  0.00  0.00    -0.489 OA
BRANCH  23  25
ATOM     24  C   UNL     1      -0.019   1.526   0.010  0.00  0.00    +0.048 C 
ATOM     25  C   UNL     1       0.002  -0.004   0.002  0.00  0.00    +0.226 C 
ENDBRANCH  23  25
ENDBRANCH   1  23
BRANCH   6  26
ATOM     26  O   UNL     1       1.936  -1.492  -3.394  0.00  0.00    -0.484 OA
BRANCH  26  27
ATOM     27  C   UNL     1       2.578  -2.095  -4.520  0.00  0.00    +0.264 C 
BRANCH  27  28
ATOM     28  C   UNL     1       3.088  -1.019  -5.443  0.00  0.00    -0.010 A 
ATOM     29  C   UNL     1       2.278  -0.532  -6.452  0.00  0.00    +0.010 A 
ATOM     30  C   UNL     1       2.744   0.455  -7.299  0.00  0.00    +0.039 A 
ATOM     31  C   UNL     1       4.025   0.957  -7.137  0.00  0.00    +0.123 A 
ATOM     32  C   UNL     1       4.836   0.469  -6.127  0.00  0.00    +0.039 A 
ATOM     33  C   UNL     1       4.365  -0.515  -5.277  0.00  0.00    +0.010 A 
ATOM     34  F   UNL     1       4.482   1.921  -7.965  0.00  0.00    -0.205 F 
ENDBRANCH  27  28
ENDBRANCH  26  27
ENDBRANCH   6  26
TORSDOF 8
