REMARK  Name = ZINC40852728
REMARK  13 active torsions:
REMARK  status: ('A' for Active; 'I' for Inactive)
REMARK    1  A    between atoms: C_1  and  C_2
REMARK    2  A    between atoms: C_3  and  C_21
REMARK    3  A    between atoms: C_5  and  N_11
REMARK    4  A    between atoms: C_6  and  C_7
REMARK    5  A    between atoms: C_7  and  O_9
REMARK    6  A    between atoms: O_9  and  C_10
REMARK    7  A    between atoms: C_12  and  C_14
REMARK    8  A    between atoms: C_14  and  C_15
REMARK    9  A    between atoms: C_15  and  C_16
REMARK   10  A    between atoms: C_16  and  C_17
REMARK   11  A    between atoms: C_17  and  C_18
REMARK   12  A    between atoms: C_18  and  C_19
REMARK   13  A    between atoms: C_19  and  N_20
REMARK                            x       y       z     vdW  Elec       q    Type
REMARK                         _______ _______ _______ _____ _____    ______ ____
ROOT
ATOM      1  N   UNL     1       0.055  -3.118   2.081  0.00  0.00    -0.279 N 
ATOM      2  C   UNL     1       0.072  -4.427   1.760  0.00  0.00    +0.218 C 
ATOM      3  O   UNL     1       0.072  -4.765   0.595  0.00  0.00    -0.275 OA
ATOM      4  H   UNL     1       0.055  -2.848   3.013  0.00  0.00    +0.155 HD
ENDROOT
BRANCH   1   9
ATOM      5  C   UNL     1      -0.018   1.503   0.010  0.00  0.00    +0.045 C 
ATOM      6  C   UNL     1       0.002  -0.004   0.002  0.00  0.00    -0.025 A 
ATOM      7  C   UNL     1       0.007  -0.712  -1.142  0.00  0.00    -0.008 A 
ATOM      8  S   UNL     1       0.033  -2.400  -0.580  0.00  0.00    -0.078 S 
ATOM      9  C   UNL     1       0.037  -2.159   1.081  0.00  0.00    +0.086 A 
ATOM     10  C   UNL     1       0.024  -0.778   1.223  0.00  0.00    +0.091 A 
ATOM     11  C   UNL     1      -0.007  -0.199  -2.559  0.00  0.00    +0.052 C 
BRANCH  10  12
ATOM     12  C   UNL     1       0.028  -0.139   2.540  0.00  0.00    +0.342 C 
ATOM     13  O   UNL     1      -1.024   0.112   3.097  0.00  0.00    -0.245 OA
BRANCH  12  14
ATOM     14  O   UNL     1       1.198   0.171   3.136  0.00  0.00    -0.464 OA
ATOM     15  C   UNL     1       1.127   0.793   4.420  0.00  0.00    +0.280 C 
ENDBRANCH  12  14
ENDBRANCH  10  12
ENDBRANCH   1   9
BRANCH   2  16
ATOM     16  C   UNL     1       0.092  -5.470   2.847  0.00  0.00    +0.096 C 
BRANCH  16  17
ATOM     17  C   UNL     1       0.109  -6.864   2.217  0.00  0.00    +0.009 C 
BRANCH  17  18
ATOM     18  C   UNL     1       0.129  -7.923   3.321  0.00  0.00    +0.000 C 
BRANCH  18  19
ATOM     19  C   UNL     1       0.146  -9.317   2.691  0.00  0.00    -0.002 C 
BRANCH  19  20
ATOM     20  C   UNL     1       0.166 -10.376   3.795  0.00  0.00    -0.020 C 
BRANCH  20  21
ATOM     21  C   UNL     1       0.183 -11.770   3.164  0.00  0.00    -0.086 C 
BRANCH  21  22
ATOM     22  N   UNL     1       0.202 -12.786   4.224  0.00  0.00    +0.378 N 
ATOM     23  H   UNL     1       1.027 -12.664   4.793  0.00  0.00    -0.090 HD
ATOM     24  H   UNL     1      -0.621 -12.688   4.800  0.00  0.00    -0.090 HD
ATOM     25  H   UNL     1       0.213 -13.706   3.809  0.00  0.00    -0.090 HD
ENDBRANCH  21  22
ENDBRANCH  20  21
ENDBRANCH  19  20
ENDBRANCH  18  19
ENDBRANCH  17  18
ENDBRANCH  16  17
ENDBRANCH   2  16
TORSDOF 10
