REMARK  Name = ZINC36512934
REMARK  15 active torsions:
REMARK  status: ('A' for Active; 'I' for Inactive)
REMARK    1  A    between atoms: C_1  and  C_2
REMARK    2  A    between atoms: C_2  and  C_3
REMARK    3  A    between atoms: C_3  and  C_4
REMARK    4  A    between atoms: C_4  and  C_5
REMARK    5  A    between atoms: C_5  and  C_6
REMARK    6  A    between atoms: C_6  and  N_7
REMARK    7  A    between atoms: N_7  and  C_8
REMARK    8  A    between atoms: C_8  and  C_10
REMARK    9  A    between atoms: C_8  and  C_17
REMARK   10  A    between atoms: C_14  and  O_16
REMARK   11  A    between atoms: N_19  and  C_20
REMARK   12  A    between atoms: C_20  and  S_21
REMARK   13  A    between atoms: S_21  and  C_24
REMARK   14  A    between atoms: C_27  and  C_30
REMARK   15  A    between atoms: C_31  and  C_33
REMARK                            x       y       z     vdW  Elec       q    Type
REMARK                         _______ _______ _______ _____ _____    ______ ____
ROOT
ATOM      1  C   UNL     1       3.594  -4.638  -3.692  0.00  0.00    +0.193 C 
ENDROOT
BRANCH   1   2
ATOM      2  C   UNL     1       4.286  -3.671  -4.618  0.00  0.00    -0.015 A 
ATOM      3  C   UNL     1       4.669  -4.079  -5.883  0.00  0.00    +0.006 A 
ATOM      4  C   UNL     1       5.304  -3.195  -6.734  0.00  0.00    +0.004 A 
ATOM      5  C   UNL     1       5.558  -1.900  -6.324  0.00  0.00    +0.045 A 
ATOM      6  C   UNL     1       5.174  -1.488  -5.056  0.00  0.00    +0.117 A 
ATOM      7  C   UNL     1       4.531  -2.376  -4.205  0.00  0.00    +0.051 A 
BRANCH   6   8
ATOM      8  O   UNL     1       5.422  -0.215  -4.650  0.00  0.00    -0.507 OA
ATOM      9  H   UNL     1       4.710   0.408  -4.853  0.00  0.00    +0.292 HD
ENDBRANCH   6   8
ENDBRANCH   1   2
BRANCH   1  10
ATOM     10  C   UNL     1       4.139  -6.025  -3.916  0.00  0.00    +0.239 C 
ATOM     11  O   UNL     1       3.398  -6.918  -4.267  0.00  0.00    -0.273 OA
ATOM     12  N   UNL     1       5.450  -6.272  -3.724  0.00  0.00    -0.294 N 
ATOM     13  H   UNL     1       6.042  -5.558  -3.443  0.00  0.00    +0.150 HD
BRANCH  12  14
ATOM     14  C   UNL     1       5.980  -7.621  -3.941  0.00  0.00    +0.278 C 
BRANCH  14  15
ATOM     15  S   UNL     1       6.646  -7.745  -5.624  0.00  0.00    +0.013 S 
ATOM     16  O   UNL     1       7.221  -9.028  -5.829  0.00  0.00    -0.168 OA
ATOM     17  O   UNL     1       5.718  -7.209  -6.558  0.00  0.00    -0.168 OA
BRANCH  15  18
ATOM     18  C   UNL     1       8.010  -6.630  -5.655  0.00  0.00    +0.090 A 
ATOM     19  C   UNL     1       7.816  -5.310  -6.015  0.00  0.00    +0.027 A 
ATOM     20  C   UNL     1       8.886  -4.436  -6.039  0.00  0.00    +0.005 A 
ATOM     21  C   UNL     1      10.151  -4.881  -5.703  0.00  0.00    -0.050 A 
ATOM     22  C   UNL     1      10.345  -6.202  -5.342  0.00  0.00    +0.005 A 
ATOM     23  C   UNL     1       9.274  -7.075  -5.314  0.00  0.00    +0.027 A 
ATOM     24  C   UNL     1      11.318  -3.929  -5.730  0.00  0.00    +0.044 C 
ENDBRANCH  15  18
ENDBRANCH  14  15
ENDBRANCH  12  14
ENDBRANCH   1  10
BRANCH   1  25
ATOM     25  N   UNL     1       2.154  -4.629  -3.965  0.00  0.00    -0.279 N 
ATOM     26  C   UNL     1       1.698  -4.956  -5.190  0.00  0.00    +0.283 C 
ATOM     27  O   UNL     1       2.473  -5.346  -6.043  0.00  0.00    -0.267 OA
BRANCH  26  28
ATOM     28  C   UNL     1       0.268  -4.841  -5.495  0.00  0.00    +0.189 A 
ATOM     29  C   UNL     1      -0.341  -5.241  -6.650  0.00  0.00    +0.054 A 
ATOM     30  C   UNL     1      -1.705  -4.944  -6.511  0.00  0.00    +0.042 A 
ATOM     31  C   UNL     1      -1.868  -4.383  -5.292  0.00  0.00    +0.196 A 
ATOM     32  O   UNL     1      -0.677  -4.327  -4.681  0.00  0.00    -0.458 OA
ENDBRANCH  26  28
BRANCH  25  33
ATOM     33  C   UNL     1       1.210  -4.266  -2.905  0.00  0.00    +0.109 C 
BRANCH  33  34
ATOM     34  C   UNL     1       0.889  -2.773  -2.998  0.00  0.00    +0.019 C 
BRANCH  34  35
ATOM     35  C   UNL     1      -0.097  -2.393  -1.891  0.00  0.00    +0.002 C 
BRANCH  35  36
ATOM     36  C   UNL     1      -0.418  -0.900  -1.985  0.00  0.00    -0.000 C 
BRANCH  36  38
ATOM     37  C   UNL     1      -1.726   0.973  -0.972  0.00  0.00    +0.004 C 
ATOM     38  C   UNL     1      -1.404  -0.520  -0.878  0.00  0.00    -0.003 C 
ENDBRANCH  36  38
ENDBRANCH  35  36
ENDBRANCH  34  35
ENDBRANCH  33  34
ENDBRANCH  25  33
ENDBRANCH   1  25
TORSDOF 13
