REMARK  Name = ZINC19357284
REMARK  14 active torsions:
REMARK  status: ('A' for Active; 'I' for Inactive)
REMARK    1  A    between atoms: C_1  and  C_2
REMARK    2  A    between atoms: C_2  and  C_3
REMARK    3  A    between atoms: C_3  and  C_33
REMARK    4  A    between atoms: N_6  and  N_10
REMARK    5  A    between atoms: C_11  and  C_13
REMARK    6  A    between atoms: C_13  and  O_14
REMARK    7  A    between atoms: O_14  and  C_15
REMARK    8  A    between atoms: C_15  and  C_17
REMARK    9  A    between atoms: C_17  and  C_19
REMARK   10  A    between atoms: C_17  and  N_22
REMARK   11  A    between atoms: C_19  and  C_20
REMARK   12  A    between atoms: C_19  and  C_21
REMARK   13  A    between atoms: N_22  and  S_23
REMARK   14  A    between atoms: S_23  and  C_26
REMARK                            x       y       z     vdW  Elec       q    Type
REMARK                         _______ _______ _______ _____ _____    ______ ____
ROOT
ATOM      1  C   UNL     1      -4.872   6.654  -2.517  0.00  0.00    +0.327 C 
ATOM      2  O   UNL     1      -5.179   7.345  -1.575  0.00  0.00    -0.249 OA
ENDROOT
BRANCH   1   3
ATOM      3  O   UNL     1      -3.836   5.806  -2.417  0.00  0.00    -0.454 OA
BRANCH   3   4
ATOM      4  C   UNL     1      -3.132   5.771  -1.148  0.00  0.00    +0.329 C 
BRANCH   4   6
ATOM      5  N   UNL     1      -1.214   4.565  -0.155  0.00  0.00    -0.221 N 
ATOM      6  C   UNL     1      -2.009   4.769  -1.224  0.00  0.00    +0.267 C 
ATOM      7  O   UNL     1      -1.822   4.144  -2.247  0.00  0.00    -0.271 OA
ATOM      8  H   UNL     1      -1.385   5.131   0.773  0.00  0.00    +0.174 HD
BRANCH   5  12
ATOM      9  C   UNL     1       1.884   2.646  -0.379  0.00  0.00    +0.111 C 
ATOM     10  C   UNL     1       1.131   3.962  -0.339  0.00  0.00    +0.263 C 
ATOM     11  O   UNL     1       1.603   5.077  -0.396  0.00  0.00    -0.271 OA
ATOM     12  N   UNL     1      -0.171   3.633  -0.225  0.00  0.00    -0.137 N 
ATOM     13  C   UNL     1      -0.344   2.307  -0.193  0.00  0.00    +0.326 C 
ATOM     14  O   UNL     1      -1.430   1.770  -0.099  0.00  0.00    -0.251 OA
ATOM     15  N   UNL     1       0.818   1.635  -0.273  0.00  0.00    -0.284 N 
ATOM     16  C   UNL     1       2.638   2.498  -1.702  0.00  0.00    +0.041 C 
ATOM     17  H   UNL     1       1.074   0.565  -0.273  0.00  0.00    +0.151 HD
BRANCH   9  19
ATOM     18  C   UNL     1       3.513   1.159   0.795  0.00  0.00    +0.006 C 
ATOM     19  C   UNL     1       2.849   2.538   0.803  0.00  0.00    +0.032 C 
ENDBRANCH   9  19
ENDBRANCH   5  12
ENDBRANCH   4   6
ENDBRANCH   3   4
ENDBRANCH   1   3
BRANCH   1  20
ATOM     20  C   UNL     1      -5.651   6.745  -3.804  0.00  0.00    +0.187 C 
BRANCH  20  21
ATOM     21  C   UNL     1      -4.715   7.169  -4.938  0.00  0.00    +0.012 C 
ATOM     22  C   UNL     1      -3.680   6.069  -5.183  0.00  0.00    +0.009 C 
ATOM     23  C   UNL     1      -5.529   7.397  -6.213  0.00  0.00    +0.009 C 
ENDBRANCH  20  21
BRANCH  20  24
ATOM     24  N   UNL     1      -6.721   7.734  -3.658  0.00  0.00    -0.176 NA
ATOM     25  H   UNL     1      -6.508   8.713  -3.203  0.00  0.00    +0.149 HD
BRANCH  24  26
ATOM     26  S   UNL     1      -8.294   7.301  -3.945  0.00  0.00    +0.059 S 
ATOM     27  O   UNL     1      -9.083   8.458  -3.706  0.00  0.00    -0.153 OA
ATOM     28  O   UNL     1      -8.305   6.614  -5.189  0.00  0.00    -0.153 OA
BRANCH  26  29
ATOM     29  C   UNL     1      -8.742   6.122  -2.714  0.00  0.00    +0.107 A 
ATOM     30  C   UNL     1      -9.292   6.546  -1.519  0.00  0.00    +0.028 A 
ATOM     31  C   UNL     1      -9.645   5.622  -0.553  0.00  0.00    +0.003 A 
ATOM     32  C   UNL     1      -9.448   4.274  -0.782  0.00  0.00    +0.020 A 
ATOM     33  C   UNL     1      -8.897   3.849  -1.978  0.00  0.00    +0.043 A 
ATOM     34  C   UNL     1      -8.549   4.774  -2.946  0.00  0.00    +0.048 A 
ATOM     35 CL   UNL     1      -8.649   2.155  -2.267  0.00  0.00    -0.083 Cl
ENDBRANCH  26  29
ENDBRANCH  24  26
ENDBRANCH  20  24
ENDBRANCH   1  20
TORSDOF 10
