REMARK  Name = ZINC36734392
REMARK  15 active torsions:
REMARK  status: ('A' for Active; 'I' for Inactive)
REMARK    1  A    between atoms: C_1  and  C_2
REMARK    2  A    between atoms: C_2  and  C_3
REMARK    3  A    between atoms: C_3  and  C_4
REMARK    4  A    between atoms: C_4  and  N_5
REMARK    5  A    between atoms: N_5  and  C_6
REMARK    6  A    between atoms: C_7  and  N_18
REMARK    7  A    between atoms: N_8  and  C_15
REMARK    8  A    between atoms: C_15  and  C_16
REMARK    9  A    between atoms: C_16  and  C_17
REMARK   10  A    between atoms: C_19  and  C_21
REMARK   11  A    between atoms: C_21  and  N_22
REMARK   12  A    between atoms: N_22  and  C_23
REMARK   13  A    between atoms: N_22  and  C_24
REMARK   14  A    between atoms: C_24  and  C_26
REMARK   15  A    between atoms: C_24  and  C_27
REMARK                            x       y       z     vdW  Elec       q    Type
REMARK                         _______ _______ _______ _____ _____    ______ ____
ROOT
ATOM      1  N   UNL     1       1.469  -2.528   2.413  0.00  0.00    -0.266 N 
ATOM      2  C   UNL     1       2.774  -2.828   2.242  0.00  0.00    +0.203 C 
ATOM      3  O   UNL     1       3.405  -3.330   3.148  0.00  0.00    -0.277 OA
ENDROOT
BRANCH   1   4
ATOM      4  C   UNL     1       0.867  -2.694   3.678  0.00  0.00    +0.140 A 
ATOM      5  C   UNL     1      -0.124  -3.635   3.865  0.00  0.00    +0.127 A 
ATOM      6  N   UNL     1      -0.692  -3.774   5.111  0.00  0.00    -0.280 N 
ATOM      7  C   UNL     1      -0.286  -3.001   6.134  0.00  0.00    +0.331 A 
ATOM      8  O   UNL     1      -0.801  -3.138   7.227  0.00  0.00    -0.246 OA
ATOM      9  N   UNL     1       0.679  -2.079   5.970  0.00  0.00    -0.273 N 
ATOM     10  H   UNL     1       0.954  -1.534   6.724  0.00  0.00    +0.173 HD
ATOM     11  C   UNL     1       1.272  -1.907   4.772  0.00  0.00    +0.277 A 
ATOM     12  O   UNL     1       2.149  -1.071   4.636  0.00  0.00    -0.266 OA
BRANCH   5  13
ATOM     13  N   UNL     1      -0.540  -4.425   2.820  0.00  0.00    -0.343 N 
ATOM     14  H   UNL     1      -0.188  -4.274   1.929  0.00  0.00    +0.144 HD
ATOM     15  H   UNL     1      -1.185  -5.133   2.974  0.00  0.00    +0.144 HD
ENDBRANCH   5  13
BRANCH   6  16
ATOM     16  C   UNL     1      -1.746  -4.770   5.324  0.00  0.00    +0.128 C 
BRANCH  16  17
ATOM     17  C   UNL     1      -1.114  -6.098   5.744  0.00  0.00    +0.018 C 
ATOM     18  C   UNL     1      -2.214  -7.138   5.966  0.00  0.00    +0.005 C 
ENDBRANCH  16  17
ENDBRANCH   6  16
ENDBRANCH   1   4
BRANCH   1  19
ATOM     19  C   UNL     1       0.678  -2.030   1.285  0.00  0.00    +0.114 C 
BRANCH  19  20
ATOM     20  C   UNL     1       0.662  -0.500   1.309  0.00  0.00    +0.019 C 
BRANCH  20  22
ATOM     21  C   UNL     1      -0.180   1.549   0.154  0.00  0.00    +0.004 C 
ATOM     22  C   UNL     1      -0.164   0.020   0.131  0.00  0.00    -0.002 C 
ENDBRANCH  20  22
ENDBRANCH  19  20
ENDBRANCH   1  19
BRANCH   2  23
ATOM     23  C   UNL     1       3.447  -2.538   0.925  0.00  0.00    +0.020 C 
BRANCH  23  24
ATOM     24  N   UNL     1       4.854  -2.952   0.993  0.00  0.00    +0.388 N 
ATOM     25  C   UNL     1       4.928  -4.410   1.154  0.00  0.00    -0.095 C 
ATOM     26  H   UNL     1       5.300  -2.504   1.780  0.00  0.00    -0.081 HD
BRANCH  24  27
ATOM     27  C   UNL     1       5.540  -2.562  -0.246  0.00  0.00    -0.041 C 
ATOM     28  C   UNL     1       5.464  -1.043  -0.414  0.00  0.00    -0.008 C 
BRANCH  27  29
ATOM     29  C   UNL     1       6.984  -2.987  -0.176  0.00  0.00    -0.061 A 
ATOM     30  C   UNL     1       7.686  -2.860   1.008  0.00  0.00    +0.003 A 
ATOM     31  C   UNL     1       9.010  -3.250   1.073  0.00  0.00    +0.020 A 
ATOM     32  C   UNL     1       9.634  -3.767  -0.048  0.00  0.00    +0.041 A 
ATOM     33  C   UNL     1       8.932  -3.894  -1.234  0.00  0.00    +0.020 A 
ATOM     34  C   UNL     1       7.606  -3.509  -1.296  0.00  0.00    +0.003 A 
ATOM     35 CL   UNL     1      11.298  -4.257   0.032  0.00  0.00    -0.084 Cl
ENDBRANCH  27  29
ENDBRANCH  24  27
ENDBRANCH  23  24
ENDBRANCH   2  23
TORSDOF 11
