REMARK  Name = ZINC06752706
REMARK  9 active torsions:
REMARK  status: ('A' for Active; 'I' for Inactive)
REMARK    1  A    between atoms: C_1  and  C_2
REMARK    2  A    between atoms: C_5  and  C_8
REMARK    3  A    between atoms: C_15  and  O_16
REMARK    4  A    between atoms: C_18  and  C_27
REMARK    5  A    between atoms: C_18  and  O_28
REMARK    6  A    between atoms: C_19  and  C_21
REMARK    7  A    between atoms: C_21  and  O_23
REMARK    8  A    between atoms: O_23  and  C_24
REMARK    9  A    between atoms: C_24  and  C_25
REMARK                            x       y       z     vdW  Elec       q    Type
REMARK                         _______ _______ _______ _____ _____    ______ ____
ROOT
ATOM      1  C   UNL     1       0.058  -4.275  -0.021  0.00  0.00    +0.072 C 
ATOM      2  C   UNL     1      -1.158  -4.795  -0.746  0.00  0.00    +0.044 A 
ATOM      3  C   UNL     1      -1.133  -5.811  -1.645  0.00  0.00    +0.046 A 
ATOM      4  N   UNL     1      -2.387  -6.001  -2.089  0.00  0.00    -0.278 N 
ATOM      5  H   UNL     1      -2.676  -6.682  -2.762  0.00  0.00    +0.189 HD
ATOM      6  N   UNL     1      -3.219  -5.075  -1.443  0.00  0.00    -0.136 NA
ATOM      7  C   UNL     1      -2.478  -4.351  -0.635  0.00  0.00    +0.235 A 
ATOM      8  C   UNL     1       0.115  -6.560  -2.040  0.00  0.00    +0.090 C 
ATOM      9  C   UNL     1       1.199  -6.281  -0.991  0.00  0.00    +0.082 C 
ATOM     10  C   UNL     1       1.308  -4.772  -0.758  0.00  0.00    +0.141 C 
ATOM     11  C   UNL     1       0.828  -6.974   0.321  0.00  0.00    +0.042 C 
ENDROOT
BRANCH   1  16
ATOM     12  C   UNL     1      -0.018   1.503   0.010  0.00  0.00    +0.044 C 
ATOM     13  C   UNL     1       0.002  -0.004   0.002  0.00  0.00    -0.050 A 
ATOM     14  C   UNL     1      -0.006  -0.689  -1.199  0.00  0.00    +0.003 A 
ATOM     15  C   UNL     1       0.018  -2.071  -1.206  0.00  0.00    +0.004 A 
ATOM     16  C   UNL     1       0.039  -2.768  -0.013  0.00  0.00    -0.039 A 
ATOM     17  C   UNL     1       0.041  -2.084   1.188  0.00  0.00    +0.004 A 
ATOM     18  C   UNL     1       0.023  -0.702   1.195  0.00  0.00    +0.003 A 
ENDBRANCH   1  16
BRANCH   7  19
ATOM     19  O   UNL     1      -2.919  -3.346   0.169  0.00  0.00    -0.491 OA
ATOM     20  H   UNL     1      -3.906  -3.236   0.053  0.00  0.00    +0.294 HD
ENDBRANCH   7  19
BRANCH  10  21
ATOM     21  C   UNL     1       2.531  -4.479   0.074  0.00  0.00    +0.314 C 
ATOM     22  O   UNL     1       3.241  -5.385   0.443  0.00  0.00    -0.250 OA
BRANCH  21  23
ATOM     23  O   UNL     1       2.830  -3.214   0.405  0.00  0.00    -0.460 OA
BRANCH  23  24
ATOM     24  C   UNL     1       4.022  -3.007   1.208  0.00  0.00    +0.259 C 
BRANCH  24  25
ATOM     25  C   UNL     1       4.196  -1.534   1.478  0.00  0.00    +0.006 C 
ATOM     26  C   UNL     1       4.500  -1.121   2.684  0.00  0.00    +0.007 C 
ENDBRANCH  24  25
ENDBRANCH  23  24
ENDBRANCH  21  23
ENDBRANCH  10  21
BRANCH   9  27
ATOM     27  O   UNL     1       2.453  -6.783  -1.457  0.00  0.00    -0.388 OA
ATOM     28  H   UNL     1       2.457  -7.735  -1.626  0.00  0.00    +0.210 HD
ENDBRANCH   9  27
TORSDOF 7
