REMARK  Name = ZINC23128968
REMARK  3 active torsions:
REMARK  status: ('A' for Active; 'I' for Inactive)
REMARK    1  A    between atoms: C_1  and  C_2
REMARK    2  A    between atoms: C_20  and  N_25
REMARK    3  A    between atoms: C_22  and  O_24
REMARK                            x       y       z     vdW  Elec       q    Type
REMARK                         _______ _______ _______ _____ _____    ______ ____
ROOT
ATOM      1  C   UNL     1       2.550   0.569  -2.167  0.00  0.00    +0.069 C 
ATOM      2  C   UNL     1       1.725   0.646  -0.908  0.00  0.00    +0.078 A 
ATOM      3  C   UNL     1       2.125   1.475   0.139  0.00  0.00    +0.142 A 
ATOM      4  N   UNL     1       1.395   1.540   1.244  0.00  0.00    -0.237 NA
ATOM      5  C   UNL     1       0.292   0.818   1.349  0.00  0.00    +0.132 A 
ATOM      6  C   UNL     1      -0.101  -0.003   0.309  0.00  0.00    +0.131 A 
ATOM      7  N   UNL     1       0.624  -0.070  -0.795  0.00  0.00    -0.255 NA
ATOM      8  N   UNL     1       3.285   2.232   0.024  0.00  0.00    -0.314 N 
ATOM      9  C   UNL     1       4.248   1.880   1.076  0.00  0.00    +0.107 C 
ATOM     10  C   UNL     1       5.568   2.616   0.826  0.00  0.00    +0.033 C 
ATOM     11  C   UNL     1       5.310   4.120   0.806  0.00  0.00    +0.023 C 
ATOM     12  C   UNL     1       4.258   4.464  -0.245  0.00  0.00    +0.033 C 
ATOM     13  C   UNL     1       2.981   3.668   0.039  0.00  0.00    +0.107 C 
ATOM     14  C   UNL     1       6.592   4.870   0.533  0.00  0.00    -0.037 A 
ATOM     15  C   UNL     1       7.597   4.633  -0.391  0.00  0.00    +0.004 A 
ATOM     16  C   UNL     1       8.694   5.468  -0.455  0.00  0.00    +0.000 A 
ATOM     17  C   UNL     1       8.793   6.546   0.405  0.00  0.00    +0.000 A 
ATOM     18  C   UNL     1       7.792   6.785   1.326  0.00  0.00    +0.002 A 
ATOM     19  C   UNL     1       6.690   5.949   1.392  0.00  0.00    -0.055 A 
ATOM     20  C   UNL     1       5.476   5.997   2.296  0.00  0.00    -0.007 C 
ATOM     21  C   UNL     1       4.841   4.593   2.194  0.00  0.00    +0.116 C 
ENDROOT
BRANCH  20  22
ATOM     22  N   UNL     1       4.531   7.019   1.827  0.00  0.00    +0.393 N 
ATOM     23  C   UNL     1       5.138   8.359   1.873  0.00  0.00    -0.058 C 
ATOM     24  C   UNL     1       4.245   9.329   1.097  0.00  0.00    +0.085 C 
ATOM     25  N   UNL     1       2.862   9.205   1.548  0.00  0.00    -0.319 N 
ATOM     26  C   UNL     1       2.410   8.145   2.225  0.00  0.00    +0.196 C 
ATOM     27  O   UNL     1       1.238   8.109   2.535  0.00  0.00    -0.278 OA
ATOM     28  C   UNL     1       3.295   6.995   2.619  0.00  0.00    +0.020 C 
ATOM     29  H   UNL     1       2.140  10.007   1.333  0.00  0.00    +0.149 HD
ATOM     30  H   UNL     1       4.279   6.783   0.782  0.00  0.00    -0.080 HD
ENDBRANCH  20  22
BRANCH  21  31
ATOM     31  O   UNL     1       5.342   3.732   3.219  0.00  0.00    -0.392 OA
ATOM     32  H   UNL     1       5.097   3.932   4.273  0.00  0.00    +0.210 HD
ENDBRANCH  21  31
TORSDOF 2
