REMARK  Name = ZINC09238759
REMARK  7 active torsions:
REMARK  status: ('A' for Active; 'I' for Inactive)
REMARK    1  A    between atoms: C_1  and  O_2
REMARK    2  A    between atoms: O_2  and  C_3
REMARK    3  A    between atoms: C_6  and  C_10
REMARK    4  A    between atoms: C_12  and  C_27
REMARK    5  A    between atoms: C_18  and  C_21
REMARK    6  A    between atoms: N_29  and  C_30
REMARK    7  A    between atoms: C_30  and  C_31
REMARK                            x       y       z     vdW  Elec       q    Type
REMARK                         _______ _______ _______ _____ _____    ______ ____
ROOT
ATOM      1  C   UNL     1       3.514   7.941   2.979  0.00  0.00    +0.140 C 
ATOM      2  C   UNL     1       3.290   6.433   2.804  0.00  0.00    +0.166 C 
ATOM      3  S   UNL     1       4.753   5.571   3.454  0.00  0.00    -0.069 S 
ATOM      4  C   UNL     1       4.945   6.505   4.941  0.00  0.00    +0.210 A 
ATOM      5  N   UNL     1       5.700   6.233   5.971  0.00  0.00    -0.121 NA
ATOM      6  N   UNL     1       5.581   7.163   6.854  0.00  0.00    -0.127 NA
ATOM      7  C   UNL     1       4.737   8.078   6.433  0.00  0.00    +0.182 A 
ATOM      8  N   UNL     1       4.296   7.681   5.194  0.00  0.00    -0.221 N 
ATOM      9  N   UNL     1       3.403   8.313   4.390  0.00  0.00    -0.272 N 
ATOM     10  H   UNL     1       3.459   9.314   4.505  0.00  0.00    +0.167 HD
ENDROOT
BRANCH   1  14
ATOM     11  C   UNL     1       0.585  10.077   0.717  0.00  0.00    +0.138 A 
ATOM     12  C   UNL     1       1.867   9.912   0.213  0.00  0.00    +0.047 A 
ATOM     13  C   UNL     1       2.812   9.220   0.947  0.00  0.00    +0.009 A 
ATOM     14  C   UNL     1       2.481   8.694   2.182  0.00  0.00    -0.023 A 
ATOM     15  C   UNL     1       1.203   8.852   2.684  0.00  0.00    +0.029 A 
ATOM     16  C   UNL     1       0.255   9.547   1.957  0.00  0.00    +0.083 A 
ATOM     17 CL   UNL     1      -1.349   9.753   2.591  0.00  0.00    -0.080 Cl
BRANCH  11  19
ATOM     18  C   UNL     1       0.063  11.273  -1.271  0.00  0.00    +0.277 C 
ATOM     19  O   UNL     1      -0.347  10.756  -0.003  0.00  0.00    -0.494 OA
ENDBRANCH  11  19
ENDBRANCH   1  14
BRANCH   7  20
ATOM     20  C   UNL     1       4.337   9.304   7.157  0.00  0.00    +0.021 A 
ATOM     21  C   UNL     1       3.183   9.994   6.782  0.00  0.00    +0.011 A 
ATOM     22  C   UNL     1       2.813  11.134   7.465  0.00  0.00    +0.001 A 
ATOM     23  C   UNL     1       3.589  11.601   8.511  0.00  0.00    +0.000 A 
ATOM     24  C   UNL     1       4.737  10.924   8.884  0.00  0.00    +0.001 A 
ATOM     25  C   UNL     1       5.115   9.779   8.213  0.00  0.00    +0.011 A 
ENDBRANCH   7  20
BRANCH   2  26
ATOM     26  C   UNL     1       3.115   6.110   1.343  0.00  0.00    +0.229 C 
ATOM     27  O   UNL     1       3.727   6.739   0.505  0.00  0.00    -0.275 OA
ATOM     28  N   UNL     1       2.280   5.122   0.966  0.00  0.00    -0.307 N 
ATOM     29  H   UNL     1       1.791   4.618   1.636  0.00  0.00    +0.149 HD
BRANCH  28  30
ATOM     30  C   UNL     1       2.110   4.807  -0.455  0.00  0.00    +0.178 C 
BRANCH  30  31
ATOM     31  C   UNL     1       1.129   3.673  -0.604  0.00  0.00    +0.122 A 
ATOM     32  C   UNL     1      -0.203   3.797  -0.743  0.00  0.00    +0.046 A 
ATOM     33  C   UNL     1      -0.727   2.489  -0.856  0.00  0.00    +0.041 A 
ATOM     34  C   UNL     1       0.316   1.643  -0.772  0.00  0.00    +0.195 A 
ATOM     35  O   UNL     1       1.438   2.366  -0.623  0.00  0.00    -0.466 OA
ENDBRANCH  30  31
ENDBRANCH  28  30
ENDBRANCH   2  26
TORSDOF 6
