REMARK  Name = ZINC39605362
REMARK  7 active torsions:
REMARK  status: ('A' for Active; 'I' for Inactive)
REMARK    1  A    between atoms: C_2  and  C_12
REMARK    2  A    between atoms: C_6  and  C_7
REMARK    3  A    between atoms: C_16  and  C_25
REMARK    4  A    between atoms: N_27  and  C_28
REMARK    5  A    between atoms: C_28  and  C_29
REMARK    6  A    between atoms: C_29  and  C_30
REMARK    7  A    between atoms: C_30  and  O_31
REMARK                            x       y       z     vdW  Elec       q    Type
REMARK                         _______ _______ _______ _____ _____    ______ ____
ROOT
ATOM      1  C   UNL     1       1.170   3.564   0.009  0.00  0.00    +0.247 C 
ATOM      2  O   UNL     1       0.116   4.161  -0.087  0.00  0.00    -0.270 OA
ATOM      3  N   UNL     1       2.327   4.249   0.104  0.00  0.00    -0.296 N 
ATOM      4  C   UNL     1       3.706   3.707   0.099  0.00  0.00    +0.121 C 
ATOM      5  C   UNL     1       4.520   4.718  -0.740  0.00  0.00    +0.100 C 
ATOM      6  C   UNL     1       3.729   6.034  -0.644  0.00  0.00    -0.004 C 
ATOM      7  C   UNL     1       2.507   5.715   0.230  0.00  0.00    +0.115 C 
ATOM      8  C   UNL     1       4.581   7.116   0.012  0.00  0.00    -0.010 C 
ATOM      9  C   UNL     1       3.794   8.429   0.043  0.00  0.00    -0.082 C 
ATOM     10  N   UNL     1       3.438   8.822  -1.325  0.00  0.00    +0.379 N 
ATOM     11  C   UNL     1       2.542   7.819  -1.916  0.00  0.00    -0.082 C 
ATOM     12  C   UNL     1       3.276   6.481  -2.031  0.00  0.00    -0.010 C 
ATOM     13  H   UNL     1       2.973   9.717  -1.307  0.00  0.00    -0.086 HD
ATOM     14  H   UNL     1       4.276   8.892  -1.883  0.00  0.00    -0.086 HD
ENDROOT
BRANCH   1  16
ATOM     15  C   UNL     1       0.139   1.371  -0.568  0.00  0.00    +0.025 A 
ATOM     16  C   UNL     1       1.183   2.085   0.021  0.00  0.00    +0.040 A 
ATOM     17  C   UNL     1       2.240   1.399   0.620  0.00  0.00    +0.051 A 
ATOM     18  C   UNL     1       2.246   0.017   0.627  0.00  0.00    +0.125 A 
ATOM     19  C   UNL     1       1.206  -0.685   0.041  0.00  0.00    +0.050 A 
ATOM     20  C   UNL     1       0.156  -0.009  -0.555  0.00  0.00    +0.058 A 
ATOM     21  F   UNL     1       3.268  -0.650   1.206  0.00  0.00    -0.205 F 
BRANCH  20  22
ATOM     22  C   UNL     1      -0.972  -0.781  -1.190  0.00  0.00    +0.418 C 
ATOM     23  F   UNL     1      -0.671  -1.022  -2.535  0.00  0.00    -0.166 F 
ATOM     24  F   UNL     1      -1.137  -1.999  -0.523  0.00  0.00    -0.166 F 
ATOM     25  F   UNL     1      -2.153  -0.037  -1.103  0.00  0.00    -0.166 F 
ENDBRANCH  20  22
ENDBRANCH   1  16
BRANCH   5  26
ATOM     26  C   UNL     1       5.900   4.890  -0.161  0.00  0.00    +0.218 C 
ATOM     27  O   UNL     1       6.097   4.667   1.015  0.00  0.00    -0.275 OA
ATOM     28  N   UNL     1       6.917   5.291  -0.949  0.00  0.00    -0.315 N 
ATOM     29  H   UNL     1       6.760   5.469  -1.890  0.00  0.00    +0.149 HD
BRANCH  28  30
ATOM     30  C   UNL     1       8.259   5.458  -0.386  0.00  0.00    +0.106 C 
BRANCH  30  31
ATOM     31  C   UNL     1       9.220   5.917  -1.485  0.00  0.00    +0.046 C 
BRANCH  31  32
ATOM     32  C   UNL     1      10.622   6.091  -0.897  0.00  0.00    +0.157 C 
BRANCH  32  33
ATOM     33  O   UNL     1      11.519   6.519  -1.923  0.00  0.00    -0.395 OA
ATOM     34  H   UNL     1      12.428   6.651  -1.621  0.00  0.00    +0.209 HD
ENDBRANCH  32  33
ENDBRANCH  31  32
ENDBRANCH  30  31
ENDBRANCH  28  30
ENDBRANCH   5  26
TORSDOF 7
