REMARK  Name = ZINC31490936
REMARK  11 active torsions:
REMARK  status: ('A' for Active; 'I' for Inactive)
REMARK    1  A    between atoms: C_1  and  C_2
REMARK    2  A    between atoms: C_4  and  O_9
REMARK    3  A    between atoms: O_9  and  C_10
REMARK    4  A    between atoms: C_10  and  C_11
REMARK    5  A    between atoms: C_14  and  C_17
REMARK    6  A    between atoms: N_19  and  N_20
REMARK    7  A    between atoms: C_21  and  C_23
REMARK    8  A    between atoms: C_23  and  C_24
REMARK    9  A    between atoms: C_24  and  N_25
REMARK   10  A    between atoms: C_26  and  C_28
REMARK   11  A    between atoms: C_31  and  C_33
REMARK                            x       y       z     vdW  Elec       q    Type
REMARK                         _______ _______ _______ _____ _____    ______ ____
ROOT
ATOM      1  C   UNL     1       1.641   3.566  11.910  0.00  0.00    +0.260 C 
ATOM      2  O   UNL     1       2.172   2.488  12.096  0.00  0.00    -0.269 OA
ATOM      3  N   UNL     1       1.137   3.869  10.697  0.00  0.00    -0.230 N 
ATOM      4  H   UNL     1       0.657   4.844  10.530  0.00  0.00    +0.173 HD
ENDROOT
BRANCH   1   8
ATOM      5  C   UNL     1       1.371   6.375  15.085  0.00  0.00    -0.010 A 
ATOM      6  C   UNL     1       1.976   5.149  15.299  0.00  0.00    +0.008 A 
ATOM      7  C   UNL     1       2.067   4.232  14.273  0.00  0.00    +0.013 A 
ATOM      8  C   UNL     1       1.547   4.544  13.015  0.00  0.00    +0.038 A 
ATOM      9  C   UNL     1       0.943   5.784  12.804  0.00  0.00    +0.013 A 
ATOM     10  C   UNL     1       0.854   6.690  13.841  0.00  0.00    +0.008 A 
BRANCH   5  11
ATOM     11  C   UNL     1       1.276   7.372  16.211  0.00  0.00    +0.264 C 
BRANCH  11  12
ATOM     12  O   UNL     1       2.433   8.210  16.205  0.00  0.00    -0.487 OA
BRANCH  12  16
ATOM     13  C   UNL     1       4.862  11.917  18.250  0.00  0.00    +0.045 C 
ATOM     14  C   UNL     1       3.671  10.995  18.192  0.00  0.00    -0.029 A 
ATOM     15  C   UNL     1       3.600  10.019  17.217  0.00  0.00    +0.050 A 
ATOM     16  C   UNL     1       2.505   9.170  17.164  0.00  0.00    +0.121 A 
ATOM     17  C   UNL     1       1.479   9.306  18.089  0.00  0.00    +0.047 A 
ATOM     18  C   UNL     1       1.556  10.280  19.066  0.00  0.00    +0.024 A 
ATOM     19  C   UNL     1       2.650  11.126  19.116  0.00  0.00    +0.044 A 
ATOM     20 CL   UNL     1       2.741  12.352  20.341  0.00  0.00    -0.083 Cl
ENDBRANCH  12  16
ENDBRANCH  11  12
ENDBRANCH   5  11
ENDBRANCH   1   8
BRANCH   3  21
ATOM     21  N   UNL     1       1.226   2.942   9.650  0.00  0.00    -0.234 N 
ATOM     22  C   UNL     1       0.723   3.246   8.438  0.00  0.00    +0.231 C 
ATOM     23  O   UNL     1       0.193   4.321   8.252  0.00  0.00    -0.274 OA
ATOM     24  H   UNL     1       1.707   1.967   9.818  0.00  0.00    +0.173 HD
BRANCH  22  25
ATOM     25  C   UNL     1       0.819   2.249   7.311  0.00  0.00    +0.116 C 
BRANCH  25  26
ATOM     26  C   UNL     1       0.176   2.838   6.053  0.00  0.00    +0.113 C 
BRANCH  26  27
ATOM     27  N   UNL     1       0.269   1.869   4.959  0.00  0.00    -0.315 N 
ATOM     28  C   UNL     1      -0.234   2.172   3.746  0.00  0.00    +0.216 C 
ATOM     29  O   UNL     1      -0.764   3.247   3.561  0.00  0.00    -0.276 OA
ATOM     30  H   UNL     1       0.750   0.894   5.126  0.00  0.00    +0.149 HD
BRANCH  28  31
ATOM     31  C   UNL     1      -0.139   1.175   2.619  0.00  0.00    +0.078 C 
ATOM     32  C   UNL     1      -1.439   0.535   2.131  0.00  0.00    +0.017 C 
ATOM     33  C   UNL     1      -0.729   1.579   1.267  0.00  0.00    -0.002 C 
ATOM     34  C   UNL     1      -0.013   1.086   0.008  0.00  0.00    +0.008 C 
ENDBRANCH  28  31
ENDBRANCH  26  27
ENDBRANCH  25  26
ENDBRANCH  22  25
ENDBRANCH   3  21
TORSDOF 9
