REMARK  Name = ZINC13110609
REMARK  9 active torsions:
REMARK  status: ('A' for Active; 'I' for Inactive)
REMARK    1  A    between atoms: C_1  and  C_2
REMARK    2  A    between atoms: C_2  and  O_3
REMARK    3  A    between atoms: O_3  and  C_4
REMARK    4  A    between atoms: C_10  and  C_28
REMARK    5  A    between atoms: C_12  and  N_14
REMARK    6  A    between atoms: N_17  and  C_18
REMARK    7  A    between atoms: C_18  and  N_20
REMARK    8  A    between atoms: N_20  and  C_21
REMARK    9  A    between atoms: C_25  and  C_27
REMARK                            x       y       z     vdW  Elec       q    Type
REMARK                         _______ _______ _______ _____ _____    ______ ____
ROOT
ATOM      1  N   UNL     1      -0.391  -8.490   2.596  0.00  0.00    -0.179 NA
ATOM      2  C   UNL     1      -1.079  -9.609   2.663  0.00  0.00    +0.195 C 
ATOM      3  N   UNL     1      -1.074 -10.348   3.815  0.00  0.00    -0.371 N 
ATOM      4  N   UNL     1      -1.802 -10.036   1.575  0.00  0.00    -0.268 N 
ATOM      5  H   UNL     1      -1.048 -11.316   3.769  0.00  0.00    +0.159 HD
ATOM      6  H   UNL     1      -2.577  -9.533   1.280  0.00  0.00    +0.157 HD
ATOM      7  H   UNL     1      -1.098  -9.903   4.676  0.00  0.00    +0.159 HD
ENDROOT
BRANCH   1  16
ATOM      8  C   UNL     1      -0.911  -5.747  -2.968  0.00  0.00    +0.121 A 
ATOM      9  C   UNL     1      -0.760  -7.125  -3.143  0.00  0.00    +0.048 A 
ATOM     10  C   UNL     1      -0.625  -7.958  -2.075  0.00  0.00    +0.032 A 
ATOM     11  C   UNL     1      -0.638  -7.428  -0.775  0.00  0.00    +0.077 A 
ATOM     12  C   UNL     1      -0.791  -6.029  -0.596  0.00  0.00    +0.025 A 
ATOM     13  C   UNL     1      -0.922  -5.197  -1.716  0.00  0.00    +0.057 A 
ATOM     14  C   UNL     1      -0.800  -5.518   0.717  0.00  0.00    +0.051 A 
ATOM     15  N   UNL     1      -0.667  -6.358   1.720  0.00  0.00    -0.215 NA
ATOM     16  C   UNL     1      -0.525  -7.671   1.517  0.00  0.00    +0.254 A 
ATOM     17  N   UNL     1      -0.509  -8.206   0.306  0.00  0.00    -0.211 NA
ATOM     18  C   UNL     1      -0.959  -4.040   0.966  0.00  0.00    +0.066 C 
BRANCH   8  19
ATOM     19  O   UNL     1      -1.043  -4.942  -4.055  0.00  0.00    -0.492 OA
BRANCH  19  21
ATOM     20  C   UNL     1      -1.183  -4.517  -6.430  0.00  0.00    +0.048 C 
ATOM     21  C   UNL     1      -1.023  -5.575  -5.337  0.00  0.00    +0.225 C 
ENDBRANCH  19  21
ENDBRANCH   8  19
ENDBRANCH   1  16
BRANCH   4  22
ATOM     22  C   UNL     1      -1.435 -11.155   0.918  0.00  0.00    +0.141 C 
ATOM     23  S   UNL     1       0.026 -11.947   1.328  0.00  0.00    -0.018 S 
BRANCH  22  24
ATOM     24  N   UNL     1      -2.219 -11.649  -0.060  0.00  0.00    -0.297 N 
ATOM     25  H   UNL     1      -3.002 -11.156  -0.351  0.00  0.00    +0.154 HD
BRANCH  24  26
ATOM     26  C   UNL     1      -1.903 -12.875  -0.656  0.00  0.00    +0.033 A 
ATOM     27  C   UNL     1      -0.580 -13.194  -0.934  0.00  0.00    +0.023 A 
ATOM     28  C   UNL     1      -0.272 -14.405  -1.522  0.00  0.00    +0.002 A 
ATOM     29  C   UNL     1      -1.279 -15.299  -1.835  0.00  0.00    +0.003 A 
ATOM     30  C   UNL     1      -2.598 -14.985  -1.561  0.00  0.00    -0.049 A 
ATOM     31  C   UNL     1      -2.912 -13.778  -0.967  0.00  0.00    +0.026 A 
ATOM     32  C   UNL     1      -3.692 -15.962  -1.904  0.00  0.00    +0.044 C 
ENDBRANCH  24  26
ENDBRANCH  22  24
ENDBRANCH   4  22
TORSDOF 6
