REMARK  Name = ZINC04834703
REMARK  7 active torsions:
REMARK  status: ('A' for Active; 'I' for Inactive)
REMARK    1  A    between atoms: C_1  and  C_2
REMARK    2  A    between atoms: C_4  and  N_21
REMARK    3  A    between atoms: C_7  and  N_8
REMARK    4  A    between atoms: C_9  and  C_11
REMARK    5  A    between atoms: C_11  and  C_12
REMARK    6  A    between atoms: C_12  and  S_13
REMARK    7  A    between atoms: S_13  and  C_14
REMARK                            x       y       z     vdW  Elec       q    Type
REMARK                         _______ _______ _______ _____ _____    ______ ____
ROOT
ATOM      1  N   UNL     1       4.857   7.512  -0.005  0.00  0.00    -0.285 N 
ATOM      2  C   UNL     1       4.500   6.213  -0.005  0.00  0.00    +0.218 C 
ATOM      3  O   UNL     1       5.352   5.349  -0.024  0.00  0.00    -0.275 OA
ATOM      4  H   UNL     1       4.178   8.202  -0.071  0.00  0.00    +0.155 HD
ENDROOT
BRANCH   1  11
ATOM      5  C   UNL     1       5.664  10.027  -1.064  0.00  0.00    +0.046 C 
ATOM      6  C   UNL     1       6.644   9.085  -0.414  0.00  0.00    -0.027 A 
ATOM      7  C   UNL     1       7.976   9.434  -0.314  0.00  0.00    +0.038 A 
ATOM      8  C   UNL     1       8.877   8.568   0.277  0.00  0.00    +0.127 A 
ATOM      9  C   UNL     1       8.447   7.351   0.775  0.00  0.00    +0.034 A 
ATOM     10  C   UNL     1       7.115   6.998   0.683  0.00  0.00    +0.026 A 
ATOM     11  C   UNL     1       6.207   7.867   0.090  0.00  0.00    +0.036 A 
BRANCH   8  12
ATOM     12  N   UNL     1      10.306   8.942   0.377  0.00  0.00    +0.056 N 
ATOM     13  O   UNL     1      11.101   8.180   0.897  0.00  0.00    -0.126 OA
ATOM     14  O   UNL     1      10.687  10.013  -0.061  0.00  0.00    -0.126 OA
ENDBRANCH   8  12
ENDBRANCH   1  11
BRANCH   2  15
ATOM     15  C   UNL     1       3.042   5.832   0.019  0.00  0.00    +0.107 C 
BRANCH  15  16
ATOM     16  C   UNL     1       2.913   4.307   0.013  0.00  0.00    +0.083 C 
BRANCH  16  17
ATOM     17  S   UNL     1       1.158   3.849   0.042  0.00  0.00    -0.125 S 
BRANCH  17  18
ATOM     18  C   UNL     1       1.177   2.087   0.033  0.00  0.00    +0.008 A 
ATOM     19  C   UNL     1      -0.018   1.377   0.051  0.00  0.00    +0.016 A 
ATOM     20  C   UNL     1       0.001  -0.003   0.043  0.00  0.00    +0.021 A 
ATOM     21  C   UNL     1       1.208  -0.680   0.019  0.00  0.00    +0.041 A 
ATOM     22  C   UNL     1       2.399   0.023   0.002  0.00  0.00    +0.021 A 
ATOM     23  C   UNL     1       2.387   1.404   0.008  0.00  0.00    +0.016 A 
ATOM     24 CL   UNL     1       1.227  -2.416   0.011  0.00  0.00    -0.084 Cl
ENDBRANCH  17  18
ENDBRANCH  16  17
ENDBRANCH  15  16
ENDBRANCH   2  15
TORSDOF 6
