REMARK  Name = ZINC12207130
REMARK  8 active torsions:
REMARK  status: ('A' for Active; 'I' for Inactive)
REMARK    1  A    between atoms: C_1  and  O_2
REMARK    2  A    between atoms: O_2  and  C_3
REMARK    3  A    between atoms: C_3  and  C_4
REMARK    4  A    between atoms: C_4  and  N_5
REMARK    5  A    between atoms: N_15  and  C_16
REMARK    6  A    between atoms: C_16  and  C_17
REMARK    7  A    between atoms: C_17  and  C_19
REMARK    8  A    between atoms: C_17  and  N_53
REMARK                            x       y       z     vdW  Elec       q    Type
REMARK                         _______ _______ _______ _____ _____    ______ ____
ROOT
ATOM      1  N   UNL     1      -6.874  -1.070   1.419  0.00  0.00    -0.324 N 
ATOM      2  C   UNL     1      -6.297  -0.725   2.625  0.00  0.00    +0.162 A 
ATOM      3  C   UNL     1      -4.976  -0.083   2.642  0.00  0.00    +0.161 A 
ATOM      4  N   UNL     1      -4.410   0.260   3.779  0.00  0.00    -0.204 NA
ATOM      5  C   UNL     1      -5.044   0.014   4.933  0.00  0.00    +0.244 A 
ATOM      6  C   UNL     1      -6.374  -0.639   4.917  0.00  0.00    +0.244 A 
ATOM      7  N   UNL     1      -6.933  -0.980   3.749  0.00  0.00    -0.204 NA
ATOM      8  N   UNL     1      -6.675  -0.715   6.192  0.00  0.00    -0.027 NA
ATOM      9  O   UNL     1      -5.770  -0.235   6.843  0.00  0.00    -0.238 OA
ATOM     10  N   UNL     1      -4.825   0.194   6.214  0.00  0.00    -0.027 NA
ATOM     11  N   UNL     1      -4.325   0.170   1.451  0.00  0.00    -0.328 N 
ATOM     12  H   UNL     1      -6.408  -0.888   0.589  0.00  0.00    +0.148 HD
ATOM     13  H   UNL     1      -4.737  -0.080   0.609  0.00  0.00    +0.147 HD
ENDROOT
BRANCH   1  14
ATOM     14  C   UNL     1      -8.191  -1.711   1.395  0.00  0.00    +0.131 C 
BRANCH  14  15
ATOM     15  C   UNL     1      -8.597  -1.986  -0.055  0.00  0.00    +0.178 C 
BRANCH  15  17
ATOM     16  C   UNL     1      -7.994  -3.269  -1.987  0.00  0.00    +0.194 C 
ATOM     17  O   UNL     1      -7.701  -2.941  -0.627  0.00  0.00    -0.381 OA
ENDBRANCH  15  17
ENDBRANCH  14  15
ENDBRANCH   1  14
BRANCH  11  18
ATOM     18  C   UNL     1      -3.010   0.816   1.458  0.00  0.00    +0.092 C 
BRANCH  18  19
ATOM     19  C   UNL     1      -2.513   0.978   0.020  0.00  0.00    -0.020 C 
BRANCH  19  20
ATOM     20  C   UNL     1      -1.220   1.751   0.019  0.00  0.00    -0.059 A 
ATOM     21  C   UNL     1      -0.213   1.412  -0.865  0.00  0.00    +0.005 A 
ATOM     22  C   UNL     1       0.972   2.123  -0.870  0.00  0.00    +0.038 A 
ATOM     23  C   UNL     1       1.152   3.173   0.014  0.00  0.00    +0.123 A 
ATOM     24  C   UNL     1       0.145   3.509   0.903  0.00  0.00    +0.038 A 
ATOM     25  C   UNL     1      -1.039   2.796   0.906  0.00  0.00    +0.005 A 
ATOM     26  F   UNL     1       2.310   3.869   0.010  0.00  0.00    -0.205 F 
ENDBRANCH  19  20
BRANCH  19  31
ATOM     27  C   UNL     1      -3.636   3.114  -0.308  0.00  0.00    -0.078 C 
ATOM     28  C   UNL     1      -4.289   3.828  -1.518  0.00  0.00    -0.020 C 
ATOM     29  C   UNL     1      -3.627   3.131  -2.729  0.00  0.00    -0.020 C 
ATOM     30  C   UNL     1      -3.129   1.776  -2.191  0.00  0.00    -0.078 C 
ATOM     31  N   UNL     1      -3.527   1.726  -0.783  0.00  0.00    +0.385 N 
ATOM     32  H   UNL     1      -4.437   1.258  -0.697  0.00  0.00    -0.081 HD
ENDBRANCH  19  31
ENDBRANCH  18  19
ENDBRANCH  11  18
TORSDOF 7
