REMARK  Name = ZINC05373423
REMARK  8 active torsions:
REMARK  status: ('A' for Active; 'I' for Inactive)
REMARK    1  A    between atoms: C_1  and  C_2
REMARK    2  A    between atoms: C_2  and  C_3
REMARK    3  A    between atoms: C_3  and  C_5
REMARK    4  A    between atoms: C_3  and  C_6
REMARK    5  A    between atoms: C_6  and  C_8
REMARK    6  A    between atoms: C_6  and  N_10
REMARK    7  A    between atoms: C_14  and  C_15
REMARK    8  A    between atoms: C_20  and  C_21
REMARK                            x       y       z     vdW  Elec       q    Type
REMARK                         _______ _______ _______ _____ _____    ______ ____
ROOT
ATOM      1  N   UNL     1      -1.213   1.206  -0.623  0.00  0.00    -0.241 N 
ATOM      2  C   UNL     1      -0.313   0.273  -0.359  0.00  0.00    +0.259 C 
ATOM      3  O   UNL     1      -0.635  -0.834   0.031  0.00  0.00    -0.269 OA
ATOM      4  C   UNL     1       1.103   0.641  -0.569  0.00  0.00    +0.077 C 
ATOM      5  C   UNL     1       2.225  -0.099  -0.389  0.00  0.00    +0.028 C 
ATOM      6  S   UNL     1       0.930   2.332  -1.125  0.00  0.00    -0.061 S 
ATOM      7  C   UNL     1      -0.851   2.433  -1.050  0.00  0.00    +0.121 C 
ATOM      8  S   UNL     1      -1.857   3.764  -1.434  0.00  0.00    -0.027 S 
ENDROOT
BRANCH   5   9
ATOM      9  C   UNL     1       3.526   0.418  -0.836  0.00  0.00    -0.021 A 
ATOM     10  C   UNL     1       3.587   1.472  -1.755  0.00  0.00    +0.008 A 
ATOM     11  C   UNL     1       4.811   1.951  -2.169  0.00  0.00    +0.001 A 
ATOM     12  C   UNL     1       5.979   1.393  -1.678  0.00  0.00    +0.000 A 
ATOM     13  C   UNL     1       5.928   0.351  -0.769  0.00  0.00    +0.004 A 
ATOM     14  C   UNL     1       4.711  -0.137  -0.341  0.00  0.00    -0.043 A 
ATOM     15  C   UNL     1       4.658  -1.268   0.654  0.00  0.00    +0.044 C 
ENDBRANCH   5   9
BRANCH   1  16
ATOM     16  C   UNL     1      -2.634   0.902  -0.442  0.00  0.00    +0.198 C 
BRANCH  16  17
ATOM     17  C   UNL     1      -3.224   1.846   0.574  0.00  0.00    +0.377 C 
ATOM     18  O   UNL     1      -2.631   2.853   0.878  0.00  0.00    -0.244 OA
ATOM     19  O   UNL     1      -4.409   1.567   1.140  0.00  0.00    -0.244 OA
ENDBRANCH  16  17
BRANCH  16  20
ATOM     20  C   UNL     1      -3.365   1.065  -1.776  0.00  0.00    +0.018 C 
ATOM     21  C   UNL     1      -2.703   0.179  -2.832  0.00  0.00    +0.010 C 
BRANCH  20  23
ATOM     22  C   UNL     1      -5.590   0.937  -2.906  0.00  0.00    +0.004 C 
ATOM     23  C   UNL     1      -4.829   0.653  -1.609  0.00  0.00    +0.002 C 
ENDBRANCH  20  23
ENDBRANCH  16  20
ENDBRANCH   1  16
TORSDOF 5
