REMARK  Name = ZINC02361216
REMARK  5 active torsions:
REMARK  status: ('A' for Active; 'I' for Inactive)
REMARK    1  A    between atoms: C_1  and  C_2
REMARK    2  A    between atoms: C_5  and  N_9
REMARK    3  A    between atoms: C_13  and  C_14
REMARK    4  A    between atoms: N_18  and  C_19
REMARK    5  A    between atoms: C_19  and  C_20
REMARK                            x       y       z     vdW  Elec       q    Type
REMARK                         _______ _______ _______ _____ _____    ______ ____
ROOT
ATOM      1  N   UNL     1      -0.853  -4.474   0.014  0.00  0.00    -0.188 N 
ATOM      2  C   UNL     1      -0.422  -5.095   1.133  0.00  0.00    +0.264 C 
ATOM      3  O   UNL     1      -0.142  -4.461   2.135  0.00  0.00    -0.269 OA
ATOM      4  C   UNL     1      -0.302  -6.562   1.105  0.00  0.00    +0.103 C 
ATOM      5  C   UNL     1       0.135  -7.273   2.222  0.00  0.00    +0.044 C 
ATOM      6  C   UNL     1      -0.649  -7.227  -0.104  0.00  0.00    +0.276 C 
ATOM      7  O   UNL     1      -0.562  -8.571  -0.196  0.00  0.00    -0.268 OA
ATOM      8  N   UNL     1      -1.059  -6.510  -1.137  0.00  0.00    -0.123 NA
ATOM      9  C   UNL     1      -1.163  -5.185  -1.083  0.00  0.00    +0.340 C 
ATOM     10  O   UNL     1      -1.554  -4.590  -2.072  0.00  0.00    -0.250 OA
ENDROOT
BRANCH   1  15
ATOM     11  C   UNL     1      -1.370   1.178  -0.054  0.00  0.00    +0.045 C 
ATOM     12  C   UNL     1      -1.233  -0.323  -0.036  0.00  0.00    -0.032 A 
ATOM     13  C   UNL     1       0.022  -0.901   0.029  0.00  0.00    +0.006 A 
ATOM     14  C   UNL     1       0.151  -2.276   0.045  0.00  0.00    +0.024 A 
ATOM     15  C   UNL     1      -0.981  -3.079  -0.003  0.00  0.00    +0.047 A 
ATOM     16  C   UNL     1      -2.240  -2.497  -0.067  0.00  0.00    +0.044 A 
ATOM     17  C   UNL     1      -2.363  -1.120  -0.078  0.00  0.00    +0.046 A 
ATOM     18 CL   UNL     1      -3.937  -0.391  -0.151  0.00  0.00    -0.083 Cl
ENDBRANCH   1  15
BRANCH   5  19
ATOM     19  C   UNL     1       0.379  -8.651   2.124  0.00  0.00    +0.043 A 
ATOM     20  C   UNL     1      -0.231  -9.652   2.874  0.00  0.00    +0.027 A 
ATOM     21  C   UNL     1       0.310 -10.863   2.449  0.00  0.00    +0.020 A 
ATOM     22  C   UNL     1       1.217 -10.597   1.472  0.00  0.00    +0.086 A 
ATOM     23  N   UNL     1       1.265  -9.266   1.263  0.00  0.00    -0.343 N 
BRANCH  23  24
ATOM     24  C   UNL     1       2.118  -8.585   0.285  0.00  0.00    +0.157 C 
BRANCH  24  25
ATOM     25  C   UNL     1       3.388  -8.131   0.957  0.00  0.00    -0.026 A 
ATOM     26  C   UNL     1       3.443  -6.888   1.562  0.00  0.00    +0.007 A 
ATOM     27  C   UNL     1       4.607  -6.470   2.178  0.00  0.00    +0.022 A 
ATOM     28  C   UNL     1       5.718  -7.294   2.190  0.00  0.00    +0.059 A 
ATOM     29  C   UNL     1       5.662  -8.538   1.585  0.00  0.00    +0.060 A 
ATOM     30  C   UNL     1       4.495  -8.958   0.974  0.00  0.00    +0.026 A 
ATOM     31 CL   UNL     1       7.056  -9.574   1.600  0.00  0.00    -0.082 Cl
ATOM     32 CL   UNL     1       7.181  -6.769   2.964  0.00  0.00    -0.082 Cl
ENDBRANCH  24  25
ENDBRANCH  23  24
ENDBRANCH   5  19
TORSDOF 4
