REMARK  Name = ZINC21898117
REMARK  5 active torsions:
REMARK  status: ('A' for Active; 'I' for Inactive)
REMARK    1  A    between atoms: C_1  and  C_2
REMARK    2  A    between atoms: C_3  and  C_22
REMARK    3  A    between atoms: C_8  and  C_10
REMARK    4  A    between atoms: C_25  and  O_28
REMARK    5  A    between atoms: O_28  and  C_29
REMARK                            x       y       z     vdW  Elec       q    Type
REMARK                         _______ _______ _______ _____ _____    ______ ____
ROOT
ATOM      1  C   UNL     1      -0.027   1.502  -0.082  0.00  0.00    +0.054 C 
ATOM      2  C   UNL     1      -0.002  -0.005  -0.040  0.00  0.00    +0.016 A 
ATOM      3  C   UNL     1      -1.034  -0.891   0.093  0.00  0.00    +0.083 A 
ATOM      4  N   UNL     1      -0.777  -2.190   0.105  0.00  0.00    -0.224 NA
ATOM      5  C   UNL     1       0.457  -2.646  -0.009  0.00  0.00    +0.165 A 
ATOM      6  S   UNL     1       1.385  -1.126  -0.158  0.00  0.00    -0.057 S 
ATOM      7  N   UNL     1       0.911  -3.959  -0.018  0.00  0.00    -0.264 N 
ATOM      8  C   UNL     1       2.228  -4.215  -0.146  0.00  0.00    +0.227 C 
ATOM      9  O   UNL     1       3.016  -3.300  -0.255  0.00  0.00    -0.275 OA
ATOM     10  H   UNL     1       0.281  -4.691   0.069  0.00  0.00    +0.157 HD
ENDROOT
BRANCH   8  11
ATOM     11  C   UNL     1       2.722  -5.639  -0.155  0.00  0.00    +0.116 C 
ATOM     12  C   UNL     1       2.340  -6.319   1.160  0.00  0.00    +0.113 C 
ATOM     13  C   UNL     1       3.175  -5.768   2.283  0.00  0.00    +0.218 C 
ATOM     14  O   UNL     1       2.688  -5.641   3.387  0.00  0.00    -0.275 OA
ATOM     15  N   UNL     1       4.457  -5.414   2.079  0.00  0.00    -0.285 N 
ATOM     16  C   UNL     1       5.032  -5.537   0.810  0.00  0.00    +0.037 A 
ATOM     17  C   UNL     1       4.220  -5.650  -0.311  0.00  0.00    -0.014 A 
ATOM     18  C   UNL     1       4.787  -5.773  -1.564  0.00  0.00    +0.006 A 
ATOM     19  C   UNL     1       6.163  -5.783  -1.702  0.00  0.00    +0.000 A 
ATOM     20  C   UNL     1       6.975  -5.670  -0.589  0.00  0.00    +0.002 A 
ATOM     21  C   UNL     1       6.413  -5.545   0.667  0.00  0.00    +0.023 A 
ATOM     22  H   UNL     1       4.986  -5.071   2.816  0.00  0.00    +0.155 HD
ENDBRANCH   8  11
BRANCH   3  23
ATOM     23  C   UNL     1      -2.428  -0.403   0.224  0.00  0.00    +0.001 A 
ATOM     24  C   UNL     1      -3.285  -0.978   1.161  0.00  0.00    +0.013 A 
ATOM     25  C   UNL     1      -4.581  -0.521   1.280  0.00  0.00    +0.046 A 
ATOM     26  C   UNL     1      -5.033   0.509   0.467  0.00  0.00    +0.127 A 
ATOM     27  C   UNL     1      -4.182   1.084  -0.467  0.00  0.00    +0.046 A 
ATOM     28  C   UNL     1      -2.883   0.637  -0.586  0.00  0.00    +0.013 A 
BRANCH  26  29
ATOM     29  O   UNL     1      -6.311   0.957   0.586  0.00  0.00    -0.434 OA
BRANCH  29  30
ATOM     30  C   UNL     1      -6.710   2.020  -0.281  0.00  0.00    +0.541 C 
ATOM     31  F   UNL     1      -5.898   3.137  -0.053  0.00  0.00    -0.166 F 
ATOM     32  F   UNL     1      -6.577   1.611  -1.612  0.00  0.00    -0.166 F 
ENDBRANCH  29  30
ENDBRANCH  26  29
ENDBRANCH   3  23
TORSDOF 4
