REMARK  Name = ZINC39694307
REMARK  8 active torsions:
REMARK  status: ('A' for Active; 'I' for Inactive)
REMARK    1  A    between atoms: C_1  and  C_2
REMARK    2  A    between atoms: C_2  and  C_4
REMARK    3  A    between atoms: C_2  and  O_33
REMARK    4  A    between atoms: C_8  and  C_17
REMARK    5  A    between atoms: N_19  and  C_20
REMARK    6  A    between atoms: C_20  and  C_21
REMARK    7  A    between atoms: C_26  and  N_27
REMARK    8  A    between atoms: O_33  and  C_34
REMARK                            x       y       z     vdW  Elec       q    Type
REMARK                         _______ _______ _______ _____ _____    ______ ____
ROOT
ATOM      1  C   UNL     1      -1.671   0.063   0.126  0.00  0.00    +0.256 C 
ATOM      2  O   UNL     1      -2.214  -0.474   1.068  0.00  0.00    -0.272 OA
ATOM      3  N   UNL     1      -2.322   0.182  -1.048  0.00  0.00    -0.297 N 
ATOM      4  C   UNL     1      -1.827   0.796  -2.303  0.00  0.00    +0.121 C 
ATOM      5  C   UNL     1      -2.360  -0.124  -3.424  0.00  0.00    +0.100 C 
ATOM      6  C   UNL     1      -3.586  -0.820  -2.811  0.00  0.00    -0.004 C 
ATOM      7  C   UNL     1      -3.692  -0.278  -1.378  0.00  0.00    +0.115 C 
ATOM      8  C   UNL     1      -3.377  -2.331  -2.782  0.00  0.00    -0.010 C 
ATOM      9  C   UNL     1      -4.632  -3.005  -2.221  0.00  0.00    -0.082 C 
ATOM     10  N   UNL     1      -5.787  -2.668  -3.060  0.00  0.00    +0.379 N 
ATOM     11  C   UNL     1      -6.039  -1.222  -3.009  0.00  0.00    -0.082 C 
ATOM     12  C   UNL     1      -4.843  -0.473  -3.603  0.00  0.00    -0.010 C 
ATOM     13  H   UNL     1      -5.601  -2.941  -4.013  0.00  0.00    -0.086 HD
ATOM     14  H   UNL     1      -6.601  -3.161  -2.725  0.00  0.00    -0.086 HD
ENDROOT
BRANCH   5  15
ATOM     15  C   UNL     1      -2.763   0.693  -4.625  0.00  0.00    +0.218 C 
ATOM     16  O   UNL     1      -3.387   1.722  -4.477  0.00  0.00    -0.275 OA
ATOM     17  N   UNL     1      -2.431   0.278  -5.864  0.00  0.00    -0.311 N 
ATOM     18  H   UNL     1      -1.932  -0.545  -5.982  0.00  0.00    +0.149 HD
BRANCH  17  19
ATOM     19  C   UNL     1      -2.823   1.072  -7.031  0.00  0.00    +0.141 C 
BRANCH  19  20
ATOM     20  C   UNL     1      -2.334   0.396  -8.286  0.00  0.00    -0.009 A 
ATOM     21  C   UNL     1      -1.179   0.835  -8.903  0.00  0.00    +0.007 A 
ATOM     22  C   UNL     1      -0.729   0.216 -10.054  0.00  0.00    +0.000 A 
ATOM     23  C   UNL     1      -1.433  -0.847 -10.592  0.00  0.00    +0.002 A 
ATOM     24  C   UNL     1      -2.588  -1.292  -9.980  0.00  0.00    +0.023 A 
ATOM     25  C   UNL     1      -3.040  -0.675  -8.820  0.00  0.00    +0.035 A 
BRANCH  25  26
ATOM     26  N   UNL     1      -4.205  -1.126  -8.195  0.00  0.00    -0.325 N 
ATOM     27  C   UNL     1      -5.521  -0.576  -8.558  0.00  0.00    +0.133 C 
ATOM     28  C   UNL     1      -6.471  -1.744  -8.845  0.00  0.00    +0.178 C 
ATOM     29  O   UNL     1      -6.445  -2.653  -7.742  0.00  0.00    -0.377 OA
ATOM     30  C   UNL     1      -5.170  -3.256  -7.511  0.00  0.00    +0.178 C 
ATOM     31  C   UNL     1      -4.154  -2.169  -7.159  0.00  0.00    +0.133 C 
ENDBRANCH  25  26
ENDBRANCH  19  20
ENDBRANCH  17  19
ENDBRANCH   5  15
BRANCH   1  33
ATOM     32  C   UNL     1      -0.287   2.121   0.119  0.00  0.00    +0.062 C 
ATOM     33  C   UNL     1      -0.270   0.598   0.268  0.00  0.00    +0.256 C 
BRANCH  33  34
ATOM     34  O   UNL     1       0.244   0.252   1.556  0.00  0.00    -0.480 OA
BRANCH  34  35
ATOM     35  C   UNL     1       1.593   0.146   1.674  0.00  0.00    +0.122 A 
ATOM     36  C   UNL     1       2.155  -0.299   2.862  0.00  0.00    +0.045 A 
ATOM     37  C   UNL     1       3.527  -0.407   2.979  0.00  0.00    +0.004 A 
ATOM     38  C   UNL     1       4.341  -0.072   1.913  0.00  0.00    +0.000 A 
ATOM     39  C   UNL     1       3.784   0.372   0.728  0.00  0.00    +0.004 A 
ATOM     40  C   UNL     1       2.413   0.476   0.604  0.00  0.00    +0.045 A 
ENDBRANCH  34  35
ENDBRANCH  33  34
ENDBRANCH   1  33
TORSDOF 7
