REMARK  Name = ZINC07206795
REMARK  10 active torsions:
REMARK  status: ('A' for Active; 'I' for Inactive)
REMARK    1  A    between atoms: C_1  and  C_2
REMARK    2  A    between atoms: C_5  and  N_9
REMARK    3  A    between atoms: C_6  and  C_8
REMARK    4  A    between atoms: C_10  and  C_12
REMARK    5  A    between atoms: C_12  and  C_14
REMARK    6  A    between atoms: C_12  and  O_15
REMARK    7  A    between atoms: O_15  and  C_16
REMARK    8  A    between atoms: C_16  and  C_18
REMARK    9  A    between atoms: C_20  and  N_25
REMARK   10  A    between atoms: C_23  and  N_24
REMARK                            x       y       z     vdW  Elec       q    Type
REMARK                         _______ _______ _______ _____ _____    ______ ____
ROOT
ATOM      1  O   UNL     1      -0.608   2.264  -1.185  0.00  0.00    -0.449 OA
ENDROOT
BRANCH   1   2
ATOM      2  C   UNL     1       0.116   1.795  -0.017  0.00  0.00    +0.259 C 
ATOM      3  C   UNL     1      -0.594   2.274   1.251  0.00  0.00    +0.062 C 
BRANCH   2   5
ATOM      4  N   UNL     1       0.790  -0.372   0.966  0.00  0.00    -0.282 N 
ATOM      5  C   UNL     1       0.164   0.289  -0.027  0.00  0.00    +0.258 C 
ATOM      6  O   UNL     1      -0.361  -0.328  -0.930  0.00  0.00    -0.271 OA
ATOM      7  H   UNL     1       1.279   0.120   1.644  0.00  0.00    +0.155 HD
BRANCH   4  12
ATOM      8  C   UNL     1       0.567  -6.037   1.184  0.00  0.00    +0.044 C 
ATOM      9  C   UNL     1       0.626  -4.532   1.126  0.00  0.00    -0.050 A 
ATOM     10  C   UNL     1      -0.371  -3.827   0.479  0.00  0.00    +0.005 A 
ATOM     11  C   UNL     1      -0.320  -2.448   0.424  0.00  0.00    +0.024 A 
ATOM     12  C   UNL     1       0.735  -1.770   1.020  0.00  0.00    +0.036 A 
ATOM     13  C   UNL     1       1.738  -2.481   1.665  0.00  0.00    -0.029 A 
ATOM     14  C   UNL     1       1.678  -3.860   1.720  0.00  0.00    +0.008 A 
ATOM     15  C   UNL     1       2.888  -1.749   2.307  0.00  0.00    +0.045 C 
ENDBRANCH   4  12
ENDBRANCH   2   5
ENDBRANCH   1   2
BRANCH   1  16
ATOM     16  C   UNL     1      -0.252   3.464  -1.684  0.00  0.00    +0.342 C 
ATOM     17  O   UNL     1       0.640   4.101  -1.159  0.00  0.00    -0.245 OA
BRANCH  16  18
ATOM     18  C   UNL     1      -0.943   4.004  -2.868  0.00  0.00    +0.082 A 
ATOM     19  C   UNL     1      -2.040   3.329  -3.410  0.00  0.00    +0.049 A 
ATOM     20  C   UNL     1      -2.685   3.841  -4.514  0.00  0.00    +0.127 A 
ATOM     21  C   UNL     1      -2.247   5.020  -5.097  0.00  0.00    +0.034 A 
ATOM     22  C   UNL     1      -1.163   5.696  -4.577  0.00  0.00    +0.026 A 
ATOM     23  C   UNL     1      -0.501   5.197  -3.461  0.00  0.00    +0.039 A 
BRANCH  23  24
ATOM     24  N   UNL     1       0.590   5.876  -2.935  0.00  0.00    -0.357 N 
ATOM     25  H   UNL     1       1.003   5.567  -2.114  0.00  0.00    +0.142 HD
ATOM     26  H   UNL     1       0.939   6.659  -3.389  0.00  0.00    +0.142 HD
ENDBRANCH  23  24
BRANCH  20  27
ATOM     27  N   UNL     1      -3.849   3.127  -5.084  0.00  0.00    +0.056 N 
ATOM     28  O   UNL     1      -4.419   3.574  -6.063  0.00  0.00    -0.126 OA
ATOM     29  O   UNL     1      -4.237   2.091  -4.575  0.00  0.00    -0.126 OA
ENDBRANCH  20  27
ENDBRANCH  16  18
ENDBRANCH   1  16
TORSDOF 7
