REMARK  Name = ZINC32594366
REMARK  13 active torsions:
REMARK  status: ('A' for Active; 'I' for Inactive)
REMARK    1  A    between atoms: C_1  and  C_2
REMARK    2  A    between atoms: C_2  and  C_3
REMARK    3  A    between atoms: C_3  and  C_4
REMARK    4  A    between atoms: C_4  and  C_5
REMARK    5  A    between atoms: C_5  and  N_6
REMARK    6  A    between atoms: C_7  and  C_31
REMARK    7  A    between atoms: N_9  and  C_12
REMARK    8  A    between atoms: C_14  and  N_27
REMARK    9  A    between atoms: C_16  and  O_26
REMARK   10  A    between atoms: C_18  and  O_25
REMARK   11  A    between atoms: C_20  and  C_23
REMARK   12  A    between atoms: C_23  and  O_24
REMARK   13  A    between atoms: C_28  and  C_30
REMARK                            x       y       z     vdW  Elec       q    Type
REMARK                         _______ _______ _______ _____ _____    ______ ____
ROOT
ATOM      1  C   UNL     1       3.388   2.966   1.088  0.00  0.00    +0.262 C 
ATOM      2  C   UNL     1       2.707   3.475  -0.184  0.00  0.00    +0.155 C 
ATOM      3  C   UNL     1       1.392   2.716  -0.389  0.00  0.00    +0.170 C 
ATOM      4  C   UNL     1       1.687   1.214  -0.449  0.00  0.00    +0.176 C 
ATOM      5  C   UNL     1       2.408   0.792   0.834  0.00  0.00    +0.177 C 
ATOM      6  O   UNL     1       3.606   1.558   0.979  0.00  0.00    -0.345 OA
ENDROOT
BRANCH   1  10
ATOM      7  N   UNL     1       6.236   4.980   1.982  0.00  0.00    -0.303 N 
ATOM      8  C   UNL     1       6.773   4.203   0.974  0.00  0.00    +0.163 A 
ATOM      9  N   UNL     1       5.846   3.399   0.533  0.00  0.00    -0.148 NA
ATOM     10  N   UNL     1       4.674   3.647   1.260  0.00  0.00    -0.209 N 
ATOM     11  C   UNL     1       4.944   4.630   2.143  0.00  0.00    +0.181 A 
ATOM     12  S   UNL     1       3.845   5.309   3.267  0.00  0.00    -0.011 S 
BRANCH   8  13
ATOM     13  C   UNL     1       8.165   4.272   0.479  0.00  0.00    +0.022 A 
ATOM     14  C   UNL     1       8.735   3.199  -0.216  0.00  0.00    +0.031 A 
ATOM     15  C   UNL     1      10.035   3.308  -0.664  0.00  0.00    +0.111 A 
ATOM     16  N   UNL     1      10.741   4.399  -0.437  0.00  0.00    -0.263 NA
ATOM     17  C   UNL     1      10.244   5.431   0.218  0.00  0.00    +0.111 A 
ATOM     18  C   UNL     1       8.950   5.410   0.697  0.00  0.00    +0.031 A 
ENDBRANCH   8  13
BRANCH   7  19
ATOM     19  C   UNL     1       6.946   6.012   2.742  0.00  0.00    +0.126 C 
BRANCH  19  20
ATOM     20  C   UNL     1       6.706   7.378   2.096  0.00  0.00    +0.022 C 
BRANCH  20  21
ATOM     21  C   UNL     1       7.448   8.455   2.890  0.00  0.00    +0.001 C 
BRANCH  21  23
ATOM     22  C   UNL     1       7.950  10.898   3.038  0.00  0.00    +0.004 C 
ATOM     23  C   UNL     1       7.208   9.821   2.244  0.00  0.00    -0.003 C 
ENDBRANCH  21  23
ENDBRANCH  20  21
ENDBRANCH  19  20
ENDBRANCH   7  19
ENDBRANCH   1  10
BRANCH   2  24
ATOM     24  N   UNL     1       2.429   4.908  -0.052  0.00  0.00    -0.306 N 
ATOM     25  C   UNL     1       2.308   5.675  -1.154  0.00  0.00    +0.210 C 
ATOM     26  O   UNL     1       2.429   5.180  -2.254  0.00  0.00    -0.276 OA
ATOM     27  C   UNL     1       2.023   7.149  -1.018  0.00  0.00    +0.109 C 
ATOM     28  H   UNL     1       2.320   5.357   0.946  0.00  0.00    +0.149 HD
ENDBRANCH   2  24
BRANCH   4  29
ATOM     29  O   UNL     1       0.460   0.491  -0.567  0.00  0.00    -0.387 OA
ATOM     30  H   UNL     1       0.472  -0.607  -0.625  0.00  0.00    +0.210 HD
ENDBRANCH   4  29
BRANCH   3  31
ATOM     31  O   UNL     1       0.783   3.133  -1.612  0.00  0.00    -0.387 OA
ATOM     32  H   UNL     1      -0.175   2.693  -1.928  0.00  0.00    +0.210 HD
ENDBRANCH   3  31
BRANCH   5  33
ATOM     33  C   UNL     1       2.759  -0.695   0.755  0.00  0.00    +0.190 C 
BRANCH  33  34
ATOM     34  O   UNL     1       3.327  -1.116   1.997  0.00  0.00    -0.392 OA
ATOM     35  H   UNL     1       3.644  -2.161   2.131  0.00  0.00    +0.210 HD
ENDBRANCH  33  34
ENDBRANCH   5  33
TORSDOF 11
