REMARK  Name = ZINC13407956
REMARK  14 active torsions:
REMARK  status: ('A' for Active; 'I' for Inactive)
REMARK    1  A    between atoms: C_1  and  C_2
REMARK    2  A    between atoms: C_2  and  O_3
REMARK    3  A    between atoms: O_3  and  C_4
REMARK    4  A    between atoms: C_4  and  C_6
REMARK    5  A    between atoms: C_8  and  C_29
REMARK    6  A    between atoms: C_9  and  C_24
REMARK    7  A    between atoms: C_11  and  C_19
REMARK    8  A    between atoms: C_11  and  O_23
REMARK    9  A    between atoms: C_13  and  C_14
REMARK   10  A    between atoms: C_13  and  O_18
REMARK   11  A    between atoms: C_24  and  O_26
REMARK   12  A    between atoms: O_26  and  C_27
REMARK   13  A    between atoms: C_27  and  C_28
REMARK   14  A    between atoms: C_32  and  C_35
REMARK                            x       y       z     vdW  Elec       q    Type
REMARK                         _______ _______ _______ _____ _____    ______ ____
ROOT
ATOM      1  C   UNL     1       2.850  -2.561  -2.545  0.00  0.00    +0.162 C 
ATOM      2  C   UNL     1       2.797  -4.087  -2.436  0.00  0.00    +0.055 C 
ATOM      3  C   UNL     1       2.225  -4.664  -3.733  0.00  0.00    +0.162 C 
ATOM      4  C   UNL     1       0.838  -4.068  -3.983  0.00  0.00    +0.230 C 
ATOM      5  N   UNL     1       0.943  -2.606  -4.081  0.00  0.00    -0.245 NA
ATOM      6  C   UNL     1       1.445  -2.025  -2.829  0.00  0.00    +0.230 C 
ATOM      7  H   UNL     1       1.521  -2.336  -4.862  0.00  0.00    +0.128 HD
ENDROOT
BRANCH   2   8
ATOM      8  C   UNL     1       4.187  -4.625  -2.215  0.00  0.00    -0.042 A 
ATOM      9  C   UNL     1       5.177  -4.387  -3.151  0.00  0.00    +0.004 A 
ATOM     10  C   UNL     1       6.452  -4.881  -2.948  0.00  0.00    +0.003 A 
ATOM     11  C   UNL     1       6.738  -5.611  -1.810  0.00  0.00    -0.050 A 
ATOM     12  C   UNL     1       5.749  -5.848  -0.874  0.00  0.00    +0.003 A 
ATOM     13  C   UNL     1       4.475  -5.351  -1.074  0.00  0.00    +0.004 A 
ATOM     14  C   UNL     1       8.128  -6.150  -1.590  0.00  0.00    +0.044 C 
ENDBRANCH   2   8
BRANCH   6  15
ATOM     15  C   UNL     1       1.498  -0.501  -2.960  0.00  0.00    +0.433 C 
ATOM     16  F   UNL     1       2.449  -0.148  -3.923  0.00  0.00    -0.166 F 
ATOM     17  F   UNL     1       0.242  -0.022  -3.346  0.00  0.00    -0.166 F 
ATOM     18  F   UNL     1       1.852   0.060  -1.728  0.00  0.00    -0.166 F 
ENDBRANCH   6  15
BRANCH   4  19
ATOM     19  C   UNL     1       0.271  -4.626  -5.290  0.00  0.00    +0.433 C 
ATOM     20  F   UNL     1       0.207  -6.022  -5.212  0.00  0.00    -0.166 F 
ATOM     21  F   UNL     1      -1.013  -4.111  -5.499  0.00  0.00    -0.166 F 
ATOM     22  F   UNL     1       1.101  -4.257  -6.354  0.00  0.00    -0.166 F 
ENDBRANCH   4  19
BRANCH   1  23
ATOM     23  C   UNL     1       3.357  -1.981  -1.249  0.00  0.00    +0.315 C 
ATOM     24  O   UNL     1       2.819  -2.270  -0.206  0.00  0.00    -0.250 OA
BRANCH  23  25
ATOM     25  O   UNL     1       4.406  -1.144  -1.253  0.00  0.00    -0.465 OA
BRANCH  25  27
ATOM     26  C   UNL     1       6.030   0.298  -0.193  0.00  0.00    +0.048 C 
ATOM     27  C   UNL     1       4.832  -0.632   0.011  0.00  0.00    +0.229 C 
ENDBRANCH  25  27
ENDBRANCH  23  25
ENDBRANCH   1  23
BRANCH   6  28
ATOM     28  O   UNL     1       0.573  -2.381  -1.755  0.00  0.00    -0.366 OA
ATOM     29  H   UNL     1      -0.337  -2.073  -1.869  0.00  0.00    +0.212 HD
ENDBRANCH   6  28
BRANCH   4  30
ATOM     30  O   UNL     1      -0.030  -4.412  -2.902  0.00  0.00    -0.366 OA
ATOM     31  H   UNL     1      -0.929  -4.066  -2.994  0.00  0.00    +0.212 HD
ENDBRANCH   4  30
BRANCH   3  32
ATOM     32  C   UNL     1       2.115  -6.162  -3.613  0.00  0.00    +0.315 C 
ATOM     33  O   UNL     1       1.535  -6.652  -2.672  0.00  0.00    -0.250 OA
BRANCH  32  34
ATOM     34  O   UNL     1       2.662  -6.953  -4.549  0.00  0.00    -0.465 OA
BRANCH  34  35
ATOM     35  C   UNL     1       2.519  -8.364  -4.371  0.00  0.00    +0.229 C 
ATOM     36  C   UNL     1       3.201  -9.095  -5.529  0.00  0.00    +0.048 C 
ENDBRANCH  34  35
ENDBRANCH  32  34
ENDBRANCH   3  32
TORSDOF 11
