REMARK  Name = ZINC37694603
REMARK  7 active torsions:
REMARK  status: ('A' for Active; 'I' for Inactive)
REMARK    1  A    between atoms: C_1  and  C_2
REMARK    2  A    between atoms: C_2  and  C_3
REMARK    3  A    between atoms: C_2  and  C_4
REMARK    4  A    between atoms: C_2  and  O_17
REMARK    5  A    between atoms: C_4  and  O_5
REMARK    6  A    between atoms: O_5  and  C_6
REMARK    7  A    between atoms: C_7  and  N_14
REMARK                            x       y       z     vdW  Elec       q    Type
REMARK                         _______ _______ _______ _____ _____    ______ ____
ROOT
ATOM      1  C   UNL     1      -2.617  -2.591   0.146  0.00  0.00    +0.165 A 
ATOM      2  C   UNL     1      -3.259  -2.818   1.355  0.00  0.00    +0.170 A 
ATOM      3  C   UNL     1      -4.481  -3.461   1.377  0.00  0.00    +0.056 A 
ATOM      4  C   UNL     1      -5.066  -3.880   0.194  0.00  0.00    +0.044 A 
ATOM      5  C   UNL     1      -4.428  -3.655  -1.012  0.00  0.00    +0.039 A 
ATOM      6  C   UNL     1      -3.207  -3.007  -1.039  0.00  0.00    +0.063 A 
ATOM      7 BR   UNL     1      -2.339  -2.693  -2.689  0.00  0.00    -0.046 Br
ATOM      8 CL   UNL     1      -6.602  -4.689   0.225  0.00  0.00    -0.083 Cl
ENDROOT
BRANCH   2   9
ATOM      9  N   UNL     1      -2.635  -2.371   2.620  0.00  0.00    +0.060 N 
ATOM     10  O   UNL     1      -3.195  -2.569   3.673  0.00  0.00    -0.126 OA
ATOM     11  O   UNL     1      -1.565  -1.808   2.600  0.00  0.00    -0.126 OA
ENDBRANCH   2   9
BRANCH   1  12
ATOM     12  O   UNL     1      -1.415  -1.958   0.122  0.00  0.00    -0.486 OA
BRANCH  12  13
ATOM     13  C   UNL     1      -1.433  -0.534   0.013  0.00  0.00    +0.263 C 
BRANCH  13  15
ATOM     14  C   UNL     1      -0.019   1.526   0.010  0.00  0.00    +0.044 C 
ATOM     15  C   UNL     1       0.002  -0.004   0.002  0.00  0.00    +0.094 C 
ATOM     16  C   UNL     1       0.742  -0.511   1.242  0.00  0.00    +0.044 C 
BRANCH  15  17
ATOM     17  O   UNL     1       0.671  -0.465  -1.174  0.00  0.00    -0.386 OA
ATOM     18  H   UNL     1       0.256  -0.181  -1.999  0.00  0.00    +0.210 HD
ENDBRANCH  15  17
ENDBRANCH  13  15
ENDBRANCH  12  13
ENDBRANCH   1  12
TORSDOF 5
