REMARK  Name = ZINC02918613
REMARK  4 active torsions:
REMARK  status: ('A' for Active; 'I' for Inactive)
REMARK    1  A    between atoms: C_4  and  O_25
REMARK    2  A    between atoms: C_5  and  C_7
REMARK    3  A    between atoms: C_10  and  C_18
REMARK    4  A    between atoms: O_25  and  C_26
REMARK                            x       y       z     vdW  Elec       q    Type
REMARK                         _______ _______ _______ _____ _____    ______ ____
ROOT
ATOM      1  C   UNL     1       1.227  -2.187  -0.022  0.00  0.00    +0.148 C 
ATOM      2  C   UNL     1       0.517  -2.717   1.231  0.00  0.00    +0.059 C 
ATOM      3  C   UNL     1       0.286  -4.227   1.095  0.00  0.00    +0.106 C 
ATOM      4  N   UNL     1      -0.602  -4.467  -0.059  0.00  0.00    -0.305 N 
ATOM      5  C   UNL     1      -0.324  -3.738  -1.207  0.00  0.00    +0.236 A 
ATOM      6  N   UNL     1       0.528  -2.678  -1.206  0.00  0.00    -0.206 N 
ATOM      7  N   UNL     1       0.556  -2.216  -2.521  0.00  0.00    -0.042 NA
ATOM      8  N   UNL     1      -0.237  -2.983  -3.198  0.00  0.00    -0.021 NA
ATOM      9  N   UNL     1      -0.762  -3.880  -2.426  0.00  0.00    -0.092 NA
ATOM     10  H   UNL     1      -1.336  -5.099  -0.019  0.00  0.00    +0.150 HD
ENDROOT
BRANCH   3  11
ATOM     11  C   UNL     1       1.605  -4.923   0.877  0.00  0.00    -0.027 A 
ATOM     12  C   UNL     1       2.183  -4.930  -0.378  0.00  0.00    +0.006 A 
ATOM     13  C   UNL     1       3.393  -5.569  -0.578  0.00  0.00    +0.015 A 
ATOM     14  C   UNL     1       4.024  -6.200   0.478  0.00  0.00    +0.013 A 
ATOM     15  C   UNL     1       3.445  -6.193   1.734  0.00  0.00    +0.015 A 
ATOM     16  C   UNL     1       2.238  -5.549   1.934  0.00  0.00    +0.006 A 
ATOM     17  I   UNL     1       5.857  -7.169   0.174  0.00  0.00    -0.044 I 
ENDBRANCH   3  11
BRANCH   1  22
ATOM     18  C   UNL     1      -0.017   1.378   0.010  0.00  0.00    +0.001 A 
ATOM     19  C   UNL     1       1.170   2.088   0.002  0.00  0.00    +0.004 A 
ATOM     20  C   UNL     1       2.377   1.417  -0.013  0.00  0.00    +0.046 A 
ATOM     21  C   UNL     1       2.399   0.030  -0.021  0.00  0.00    +0.132 A 
ATOM     22  C   UNL     1       1.207  -0.680  -0.013  0.00  0.00    +0.019 A 
ATOM     23  C   UNL     1       0.002  -0.004   0.002  0.00  0.00    +0.009 A 
BRANCH  21  24
ATOM     24  O   UNL     1       3.586  -0.632  -0.037  0.00  0.00    -0.434 OA
BRANCH  24  25
ATOM     25  C   UNL     1       4.772   0.164  -0.045  0.00  0.00    +0.541 C 
ATOM     26  F   UNL     1       4.781   0.977  -1.183  0.00  0.00    -0.166 F 
ATOM     27  F   UNL     1       4.804   0.965   1.101  0.00  0.00    -0.166 F 
ENDBRANCH  24  25
ENDBRANCH  21  24
ENDBRANCH   1  22
TORSDOF 4
