REMARK  Name = ZINC41154590
REMARK  4 active torsions:
REMARK  status: ('A' for Active; 'I' for Inactive)
REMARK    1  A    between atoms: C_1  and  C_2
REMARK    2  A    between atoms: C_7  and  C_9
REMARK    3  A    between atoms: C_7  and  N_22
REMARK    4  A    between atoms: C_11  and  C_14
REMARK                            x       y       z     vdW  Elec       q    Type
REMARK                         _______ _______ _______ _____ _____    ______ ____
ROOT
ATOM      1  C   UNL     1       2.674  -1.459   2.329  0.00  0.00    +0.161 A 
ATOM      2  N   UNL     1       3.948  -1.612   2.696  0.00  0.00    -0.193 NA
ATOM      3  C   UNL     1       4.030  -2.466   3.691  0.00  0.00    +0.259 A 
ATOM      4  O   UNL     1       2.786  -2.884   3.983  0.00  0.00    -0.333 OA
ATOM      5  N   UNL     1       1.920  -2.208   3.083  0.00  0.00    -0.062 NA
ENDROOT
BRANCH   3   6
ATOM      6  C   UNL     1       5.271  -2.894   4.370  0.00  0.00    +0.045 A 
ATOM      7  C   UNL     1       6.503  -2.375   3.969  0.00  0.00    +0.051 A 
ATOM      8  C   UNL     1       7.661  -2.778   4.607  0.00  0.00    +0.127 A 
ATOM      9  C   UNL     1       7.600  -3.694   5.644  0.00  0.00    +0.076 A 
ATOM     10  C   UNL     1       6.380  -4.212   6.047  0.00  0.00    +0.127 A 
ATOM     11  C   UNL     1       5.215  -3.813   5.419  0.00  0.00    +0.051 A 
ATOM     12  F   UNL     1       6.328  -5.106   7.058  0.00  0.00    -0.205 F 
ATOM     13  F   UNL     1       8.854  -2.277   4.219  0.00  0.00    -0.205 F 
ENDBRANCH   3   6
BRANCH   1  19
ATOM     14  C   UNL     1      -0.019   1.524   0.010  0.00  0.00    +0.007 C 
ATOM     15  C   UNL     1       0.002  -0.004   0.002  0.00  0.00    -0.015 C 
ATOM     16  C   UNL     1       0.627  -0.525  -1.285  0.00  0.00    +0.003 C 
ATOM     17  C   UNL     1       2.141  -0.325  -1.273  0.00  0.00    -0.001 C 
ATOM     18  C   UNL     1       2.734  -1.097  -0.096  0.00  0.00    -0.005 C 
ATOM     19  C   UNL     1       2.185  -0.560   1.223  0.00  0.00    -0.006 C 
ATOM     20  C   UNL     1       0.666  -0.561   1.247  0.00  0.00    -0.002 C 
BRANCH  19  21
ATOM     21  N   UNL     1       2.717   0.786   1.476  0.00  0.00    +0.387 N 
ATOM     22  H   UNL     1       2.443   1.403   0.727  0.00  0.00    -0.089 HD
ATOM     23  H   UNL     1       2.350   1.133   2.349  0.00  0.00    -0.089 HD
ATOM     24  H   UNL     1       3.724   0.745   1.528  0.00  0.00    -0.089 HD
ENDBRANCH  19  21
ENDBRANCH   1  19
TORSDOF 3
