REMARK  Name = ZINC01430854
REMARK  6 active torsions:
REMARK  status: ('A' for Active; 'I' for Inactive)
REMARK    1  A    between atoms: C_1  and  C_2
REMARK    2  A    between atoms: C_4  and  C_24
REMARK    3  A    between atoms: C_6  and  N_23
REMARK    4  A    between atoms: C_7  and  C_11
REMARK    5  A    between atoms: C_24  and  O_25
REMARK    6  A    between atoms: O_25  and  C_26
REMARK                            x       y       z     vdW  Elec       q    Type
REMARK                         _______ _______ _______ _____ _____    ______ ____
ROOT
ATOM      1  C   UNL     1       1.212  -2.196  -0.022  0.00  0.00    +0.065 C 
ATOM      2  C   UNL     1       1.208  -0.689  -0.013  0.00  0.00    +0.040 A 
ATOM      3  C   UNL     1       0.002  -0.004   0.002  0.00  0.00    +0.029 A 
ATOM      4  C   UNL     1      -0.017   1.371   0.010  0.00  0.00    -0.009 A 
ATOM      5  C   UNL     1       1.214   2.075   0.002  0.00  0.00    +0.034 A 
ATOM      6  C   UNL     1       1.438   3.512   0.007  0.00  0.00    +0.052 A 
ATOM      7  C   UNL     1       2.735   3.971  -0.004  0.00  0.00    +0.078 A 
ATOM      8  S   UNL     1       3.703   2.474  -0.021  0.00  0.00    -0.064 S 
ATOM      9  C   UNL     1       2.385   1.284  -0.014  0.00  0.00    +0.111 A 
ATOM     10  N   UNL     1       2.350  -0.031  -0.021  0.00  0.00    -0.245 NA
ENDROOT
BRANCH   7  11
ATOM     11  C   UNL     1       3.207   5.355  -0.001  0.00  0.00    +0.150 A 
ATOM     12  N   UNL     1       4.560   5.587  -0.013  0.00  0.00    -0.306 N 
ATOM     13  H   UNL     1       5.197   4.816  -0.023  0.00  0.00    +0.170 HD
ATOM     14  C   UNL     1       5.036   6.854  -0.011  0.00  0.00    +0.259 A 
ATOM     15  O   UNL     1       6.233   7.078  -0.021  0.00  0.00    -0.267 OA
ATOM     16  C   UNL     1       4.056   7.949   0.005  0.00  0.00    +0.065 A 
ATOM     17  C   UNL     1       4.450   9.286   0.008  0.00  0.00    +0.015 A 
ATOM     18  C   UNL     1       3.490  10.274   0.022  0.00  0.00    +0.001 A 
ATOM     19  C   UNL     1       2.140   9.948   0.034  0.00  0.00    +0.002 A 
ATOM     20  C   UNL     1       1.731   8.645   0.031  0.00  0.00    +0.028 A 
ATOM     21  C   UNL     1       2.681   7.618   0.017  0.00  0.00    +0.079 A 
ATOM     22  N   UNL     1       2.316   6.322   0.008  0.00  0.00    -0.228 NA
ENDBRANCH   7  11
BRANCH   6  23
ATOM     23  N   UNL     1       0.368   4.401   0.022  0.00  0.00    -0.356 N 
ATOM     24  H   UNL     1       0.531   5.357   0.026  0.00  0.00    +0.142 HD
ATOM     25  H   UNL     1      -0.542   4.064   0.029  0.00  0.00    +0.142 HD
ENDBRANCH   6  23
BRANCH   4  26
ATOM     26  C   UNL     1      -1.325   2.118   0.020  0.00  0.00    +0.195 C 
BRANCH  26  27
ATOM     27  O   UNL     1      -2.407   1.184   0.020  0.00  0.00    -0.378 OA
ATOM     28  C   UNL     1      -3.700   1.792   0.029  0.00  0.00    +0.194 C 
ENDBRANCH  26  27
ENDBRANCH   4  26
TORSDOF 4
