REMARK  Name = ZINC03350269
REMARK  9 active torsions:
REMARK  status: ('A' for Active; 'I' for Inactive)
REMARK    1  A    between atoms: C_1  and  O_2
REMARK    2  A    between atoms: O_2  and  C_3
REMARK    3  A    between atoms: C_3  and  C_4
REMARK    4  A    between atoms: C_4  and  N_5
REMARK    5  A    between atoms: N_5  and  C_6
REMARK    6  A    between atoms: C_7  and  N_22
REMARK    7  A    between atoms: N_8  and  C_15
REMARK    8  A    between atoms: C_15  and  C_16
REMARK    9  A    between atoms: C_23  and  C_25
REMARK                            x       y       z     vdW  Elec       q    Type
REMARK                         _______ _______ _______ _____ _____    ______ ____
ROOT
ATOM      1  N   UNL     1      -2.603   5.279   0.114  0.00  0.00    -0.258 N 
ATOM      2  C   UNL     1      -1.379   5.823  -0.038  0.00  0.00    +0.252 C 
ATOM      3  O   UNL     1      -1.263   7.021  -0.203  0.00  0.00    -0.270 OA
ENDROOT
BRANCH   2   4
ATOM      4  C   UNL     1      -0.175   4.960  -0.004  0.00  0.00    +0.051 A 
ATOM      5  C   UNL     1       0.147   4.165  -1.067  0.00  0.00    +0.083 A 
ATOM      6  C   UNL     1       1.302   3.347  -1.016  0.00  0.00    +0.250 A 
ATOM      7  O   UNL     1       1.573   2.643  -1.973  0.00  0.00    -0.268 OA
ATOM      8  N   UNL     1       2.106   3.327   0.060  0.00  0.00    -0.322 N 
ATOM      9  H   UNL     1       2.913   2.737   0.059  0.00  0.00    +0.169 HD
ATOM     10  C   UNL     1       1.838   4.105   1.167  0.00  0.00    +0.050 A 
ATOM     11  C   UNL     1       0.704   4.938   1.176  0.00  0.00    +0.011 A 
ATOM     12  C   UNL     1       0.430   5.729   2.294  0.00  0.00    +0.011 A 
ATOM     13  C   UNL     1       1.262   5.683   3.378  0.00  0.00    +0.001 A 
ATOM     14  C   UNL     1       2.384   4.866   3.371  0.00  0.00    +0.002 A 
ATOM     15  C   UNL     1       2.674   4.078   2.278  0.00  0.00    +0.026 A 
ENDBRANCH   2   4
BRANCH   1  16
ATOM     16  C   UNL     1      -3.752   6.081  -0.020  0.00  0.00    +0.140 A 
ATOM     17  C   UNL     1      -4.648   5.858  -1.047  0.00  0.00    +0.128 A 
ATOM     18  N   UNL     1      -5.764   6.656  -1.149  0.00  0.00    -0.276 N 
ATOM     19  C   UNL     1      -5.974   7.649  -0.265  0.00  0.00    +0.331 A 
ATOM     20  O   UNL     1      -6.964   8.346  -0.376  0.00  0.00    -0.246 OA
ATOM     21  N   UNL     1      -5.110   7.884   0.738  0.00  0.00    -0.273 N 
ATOM     22  H   UNL     1      -5.290   8.629   1.381  0.00  0.00    +0.173 HD
ATOM     23  C   UNL     1      -4.004   7.129   0.886  0.00  0.00    +0.277 A 
ATOM     24  O   UNL     1      -3.227   7.351   1.800  0.00  0.00    -0.266 OA
BRANCH  17  25
ATOM     25  N   UNL     1      -4.431   4.848  -1.952  0.00  0.00    -0.343 N 
ATOM     26  H   UNL     1      -3.663   4.265  -1.853  0.00  0.00    +0.144 HD
ATOM     27  H   UNL     1      -5.046   4.718  -2.691  0.00  0.00    +0.144 HD
ENDBRANCH  17  25
BRANCH  18  28
ATOM     28  C   UNL     1      -6.726   6.428  -2.230  0.00  0.00    +0.163 C 
BRANCH  28  29
ATOM     29  C   UNL     1      -6.332   7.245  -3.433  0.00  0.00    -0.028 A 
ATOM     30  C   UNL     1      -6.822   8.528  -3.588  0.00  0.00    +0.005 A 
ATOM     31  C   UNL     1      -6.457   9.279  -4.690  0.00  0.00    +0.000 A 
ATOM     32  C   UNL     1      -5.611   8.743  -5.642  0.00  0.00    +0.000 A 
ATOM     33  C   UNL     1      -5.125   7.458  -5.490  0.00  0.00    +0.000 A 
ATOM     34  C   UNL     1      -5.486   6.709  -4.386  0.00  0.00    +0.005 A 
ENDBRANCH  28  29
ENDBRANCH  18  28
ENDBRANCH   1  16
BRANCH   1  35
ATOM     35  C   UNL     1      -2.737   3.852   0.420  0.00  0.00    +0.142 C 
BRANCH  35  36
ATOM     36  C   UNL     1      -2.625   3.641   1.931  0.00  0.00    +0.179 C 
BRANCH  36  38
ATOM     37  C   UNL     1      -3.720   4.134   4.005  0.00  0.00    +0.194 C 
ATOM     38  O   UNL     1      -3.729   4.272   2.583  0.00  0.00    -0.381 OA
ENDBRANCH  36  38
ENDBRANCH  35  36
ENDBRANCH   1  35
TORSDOF 8
