REMARK  Name = ZINC44966538
REMARK  12 active torsions:
REMARK  status: ('A' for Active; 'I' for Inactive)
REMARK    1  A    between atoms: C_1  and  C_2
REMARK    2  A    between atoms: C_2  and  C_3
REMARK    3  A    between atoms: C_6  and  C_9
REMARK    4  A    between atoms: C_9  and  C_11
REMARK    5  A    between atoms: C_9  and  N_25
REMARK    6  A    between atoms: C_11  and  N_12
REMARK    7  A    between atoms: N_15  and  C_16
REMARK    8  A    between atoms: C_16  and  C_18
REMARK    9  A    between atoms: C_16  and  C_19
REMARK   10  A    between atoms: N_23  and  C_24
REMARK   11  A    between atoms: N_25  and  C_26
REMARK   12  A    between atoms: N_25  and  C_27
REMARK                            x       y       z     vdW  Elec       q    Type
REMARK                         _______ _______ _______ _____ _____    ______ ____
ROOT
ATOM      1  C   UNL     1      -5.480  -3.502  -0.017  0.00  0.00    +0.095 C 
ENDROOT
BRANCH   1   2
ATOM      2  N   UNL     1      -4.705  -4.072   1.088  0.00  0.00    -0.301 N 
ATOM      3  C   UNL     1      -4.524  -5.406   1.167  0.00  0.00    +0.300 C 
ATOM      4  O   UNL     1      -5.005  -6.136   0.322  0.00  0.00    -0.253 OA
ATOM      5  N   UNL     1      -3.811  -5.930   2.184  0.00  0.00    -0.290 N 
ATOM      6  H   UNL     1      -4.321  -3.490   1.762  0.00  0.00    +0.150 HD
ATOM      7  H   UNL     1      -3.428  -5.348   2.858  0.00  0.00    +0.151 HD
BRANCH   5   8
ATOM      8  C   UNL     1      -3.615  -7.379   2.270  0.00  0.00    +0.139 C 
ATOM      9  C   UNL     1      -4.814  -8.015   2.977  0.00  0.00    +0.036 C 
BRANCH   8  10
ATOM     10  C   UNL     1      -2.360  -7.671   3.050  0.00  0.00    +0.153 A 
ATOM     11  N   UNL     1      -1.999  -7.111   4.173  0.00  0.00    -0.133 NA
ATOM     12  N   UNL     1      -0.873  -7.599   4.558  0.00  0.00    -0.138 NA
ATOM     13  C   UNL     1      -0.464  -8.492   3.698  0.00  0.00    +0.224 A 
ATOM     14  N   UNL     1      -1.398  -8.566   2.719  0.00  0.00    -0.319 N 
ATOM     15  C   UNL     1      -1.373  -9.437   1.541  0.00  0.00    +0.151 C 
ENDBRANCH   8  10
ENDBRANCH   5   8
ENDBRANCH   1   2
BRANCH   1  16
ATOM     16  C   UNL     1      -5.422  -1.975   0.054  0.00  0.00    -0.021 C 
BRANCH  16  20
ATOM     17  C   UNL     1      -1.405  -0.674  -0.598  0.00  0.00    -0.048 A 
ATOM     18  C   UNL     1      -1.908  -0.748   0.688  0.00  0.00    +0.004 A 
ATOM     19  C   UNL     1      -3.208  -1.168   0.899  0.00  0.00    +0.002 A 
ATOM     20  C   UNL     1      -4.005  -1.516  -0.176  0.00  0.00    -0.059 A 
ATOM     21  C   UNL     1      -3.502  -1.441  -1.462  0.00  0.00    +0.002 A 
ATOM     22  C   UNL     1      -2.204  -1.016  -1.673  0.00  0.00    +0.004 A 
BRANCH  17  24
ATOM     23  C   UNL     1       0.034   1.305  -1.000  0.00  0.00    +0.009 C 
ATOM     24  C   UNL     1       0.011  -0.215  -0.827  0.00  0.00    +0.032 C 
ENDBRANCH  17  24
ENDBRANCH  16  20
BRANCH  16  25
ATOM     25  N   UNL     1      -6.296  -1.404  -0.979  0.00  0.00    +0.382 N 
ATOM     26  C   UNL     1      -7.679  -1.837  -0.745  0.00  0.00    -0.096 C 
ATOM     27  C   UNL     1      -6.226   0.063  -0.923  0.00  0.00    -0.096 C 
ATOM     28  H   UNL     1      -5.993  -1.720  -1.889  0.00  0.00    -0.082 HD
ENDBRANCH  16  25
ENDBRANCH   1  16
TORSDOF 7
