REMARK  Name = ZINC04177376
REMARK  9 active torsions:
REMARK  status: ('A' for Active; 'I' for Inactive)
REMARK    1  A    between atoms: C_2  and  C_3
REMARK    2  A    between atoms: C_3  and  N_4
REMARK    3  A    between atoms: N_4  and  C_5
REMARK    4  A    between atoms: N_4  and  S_8
REMARK    5  A    between atoms: C_5  and  C_6
REMARK    6  A    between atoms: S_8  and  C_11
REMARK    7  A    between atoms: C_14  and  C_17
REMARK    8  A    between atoms: N_19  and  C_20
REMARK    9  A    between atoms: C_21  and  C_30
REMARK                            x       y       z     vdW  Elec       q    Type
REMARK                         _______ _______ _______ _____ _____    ______ ____
ROOT
ATOM      1  C   UNL     1       2.124   1.410  -5.945  0.00  0.00    +0.249 C 
ATOM      2  O   UNL     1       2.301   2.610  -5.863  0.00  0.00    -0.270 OA
ATOM      3  N   UNL     1       2.865   0.676  -6.800  0.00  0.00    -0.275 N 
ATOM      4  H   UNL     1       2.724  -0.281  -6.866  0.00  0.00    +0.156 HD
ENDROOT
BRANCH   3   5
ATOM      5  C   UNL     1       3.827   1.290  -7.585  0.00  0.00    +0.085 A 
ATOM      6  C   UNL     1       4.669   0.704  -8.515  0.00  0.00    +0.068 A 
ATOM      7  C   UNL     1       5.603   1.574  -9.216  0.00  0.00    -0.023 A 
ATOM      8  C   UNL     1       5.521   2.870  -8.852  0.00  0.00    -0.004 A 
ATOM      9  S   UNL     1       4.235   2.918  -7.635  0.00  0.00    -0.077 S 
ATOM     10  C   UNL     1       6.341   4.016  -9.357  0.00  0.00    +0.043 C 
ATOM     11  C   UNL     1       6.362   3.982 -10.891  0.00  0.00    +0.005 C 
ATOM     12  C   UNL     1       7.540   3.125 -11.344  0.00  0.00    +0.001 C 
ATOM     13  C   UNL     1       7.785   1.996 -10.345  0.00  0.00    +0.005 C 
ATOM     14  C   UNL     1       6.573   1.072 -10.276  0.00  0.00    +0.037 C 
BRANCH   6  15
ATOM     15  C   UNL     1       4.624  -0.737  -8.781  0.00  0.00    +0.244 C 
ATOM     16  O   UNL     1       3.887  -1.173  -9.646  0.00  0.00    -0.270 OA
ATOM     17  N   UNL     1       5.398  -1.579  -8.068  0.00  0.00    -0.325 N 
ATOM     18  H   UNL     1       5.986  -1.232  -7.379  0.00  0.00    +0.145 HD
ATOM     19  H   UNL     1       5.368  -2.533  -8.245  0.00  0.00    +0.145 HD
ENDBRANCH   6  15
ENDBRANCH   3   5
BRANCH   1  23
ATOM     20  C   UNL     1      -0.827  -0.472  -3.539  0.00  0.00    +0.106 A 
ATOM     21  C   UNL     1      -0.628   0.894  -3.443  0.00  0.00    +0.029 A 
ATOM     22  C   UNL     1       0.329   1.511  -4.221  0.00  0.00    +0.015 A 
ATOM     23  C   UNL     1       1.098   0.755  -5.108  0.00  0.00    +0.037 A 
ATOM     24  C   UNL     1       0.892  -0.623  -5.200  0.00  0.00    +0.015 A 
ATOM     25  C   UNL     1      -0.065  -1.228  -4.412  0.00  0.00    +0.029 A 
BRANCH  20  26
ATOM     26  S   UNL     1      -2.051  -1.252  -2.542  0.00  0.00    +0.061 S 
ATOM     27  O   UNL     1      -2.414  -2.454  -3.208  0.00  0.00    -0.153 OA
ATOM     28  O   UNL     1      -3.002  -0.250  -2.207  0.00  0.00    -0.153 OA
BRANCH  26  29
ATOM     29  N   UNL     1      -1.318  -1.700  -1.126  0.00  0.00    -0.169 NA
BRANCH  29  30
ATOM     30  C   UNL     1      -1.293  -0.775   0.010  0.00  0.00    +0.136 C 
BRANCH  30  32
ATOM     31  C   UNL     1      -0.016   1.306   0.009  0.00  0.00    +0.005 C 
ATOM     32  C   UNL     1       0.002  -0.004   0.002  0.00  0.00    -0.018 C 
ENDBRANCH  30  32
ENDBRANCH  29  30
BRANCH  29  33
ATOM     33  C   UNL     1      -0.693  -3.020  -1.010  0.00  0.00    +0.136 C 
BRANCH  33  34
ATOM     34  C   UNL     1      -1.670  -3.985  -0.389  0.00  0.00    -0.018 C 
ATOM     35  C   UNL     1      -1.968  -5.103  -1.004  0.00  0.00    +0.005 C 
ENDBRANCH  33  34
ENDBRANCH  29  33
ENDBRANCH  26  29
ENDBRANCH  20  26
ENDBRANCH   1  23
TORSDOF 9
