REMARK  Name = ZINC51144596
REMARK  10 active torsions:
REMARK  status: ('A' for Active; 'I' for Inactive)
REMARK    1  A    between atoms: C_1  and  C_2
REMARK    2  A    between atoms: C_3  and  C_19
REMARK    3  A    between atoms: C_7  and  N_17
REMARK    4  A    between atoms: C_9  and  C_11
REMARK    5  A    between atoms: C_11  and  N_12
REMARK    6  A    between atoms: N_12  and  C_13
REMARK    7  A    between atoms: N_12  and  C_14
REMARK    8  A    between atoms: C_14  and  C_15
REMARK    9  A    between atoms: C_15  and  O_16
REMARK   10  A    between atoms: N_17  and  N_18
REMARK                            x       y       z     vdW  Elec       q    Type
REMARK                         _______ _______ _______ _____ _____    ______ ____
ROOT
ATOM      1  C   UNL     1      -0.262   1.400  -0.351  0.00  0.00    +0.045 C 
ATOM      2  C   UNL     1      -0.176  -0.103  -0.292  0.00  0.00    -0.028 A 
ATOM      3  C   UNL     1      -0.256  -0.832  -1.415  0.00  0.00    -0.008 A 
ATOM      4  S   UNL     1      -0.107  -2.511  -0.834  0.00  0.00    -0.074 S 
ATOM      5  C   UNL     1       0.058  -2.188   0.902  0.00  0.00    +0.114 A 
ATOM      6  C   UNL     1      -0.002  -0.779   0.982  0.00  0.00    +0.052 A 
ATOM      7  C   UNL     1       0.113  -0.237   2.291  0.00  0.00    +0.144 A 
ATOM      8  N   UNL     1       0.268  -1.058   3.318  0.00  0.00    -0.218 NA
ATOM      9  C   UNL     1       0.321  -2.369   3.168  0.00  0.00    +0.116 A 
ATOM     10  N   UNL     1       0.210  -2.932   1.980  0.00  0.00    -0.227 NA
ATOM     11  C   UNL     1      -0.430  -0.347  -2.831  0.00  0.00    +0.052 C 
ENDROOT
BRANCH   7  12
ATOM     12  N   UNL     1       0.064   1.131   2.489  0.00  0.00    -0.267 N 
ATOM     13  H   UNL     1      -0.107   1.723   1.741  0.00  0.00    +0.167 HD
BRANCH  12  14
ATOM     14  N   UNL     1       0.257   1.647   3.739  0.00  0.00    -0.255 NA
ATOM     15  H   UNL     1       1.140   1.345   4.123  0.00  0.00    +0.140 HD
ATOM     16  H   UNL     1       0.192   2.654   3.728  0.00  0.00    +0.140 HD
ENDBRANCH  12  14
ENDBRANCH   7  12
BRANCH   9  17
ATOM     17  C   UNL     1       0.499  -3.243   4.383  0.00  0.00    -0.002 C 
BRANCH  17  18
ATOM     18  N   UNL     1      -0.818  -3.598   4.929  0.00  0.00    +0.384 N 
ATOM     19  C   UNL     1      -1.542  -4.428   3.957  0.00  0.00    -0.095 C 
ATOM     20  H   UNL     1      -1.345  -2.757   5.112  0.00  0.00    -0.082 HD
BRANCH  18  21
ATOM     21  C   UNL     1      -0.644  -4.349   6.179  0.00  0.00    -0.050 C 
BRANCH  21  22
ATOM     22  C   UNL     1       0.121  -3.489   7.188  0.00  0.00    +0.137 C 
BRANCH  22  23
ATOM     23  O   UNL     1      -0.665  -2.347   7.534  0.00  0.00    -0.397 OA
ATOM     24  H   UNL     1      -0.241  -1.756   8.171  0.00  0.00    +0.209 HD
ENDBRANCH  22  23
ENDBRANCH  21  22
ENDBRANCH  18  21
ENDBRANCH  17  18
ENDBRANCH   9  17
TORSDOF 7
