REMARK  Name = ZINC44785118
REMARK  8 active torsions:
REMARK  status: ('A' for Active; 'I' for Inactive)
REMARK    1  A    between atoms: C_1  and  C_2
REMARK    2  A    between atoms: C_2  and  C_4
REMARK    3  A    between atoms: C_2  and  N_10
REMARK    4  A    between atoms: C_11  and  C_13
REMARK    5  A    between atoms: C_13  and  C_14
REMARK    6  A    between atoms: C_13  and  C_15
REMARK    7  A    between atoms: C_13  and  C_16
REMARK    8  A    between atoms: N_17  and  O_18
REMARK                            x       y       z     vdW  Elec       q    Type
REMARK                         _______ _______ _______ _____ _____    ______ ____
ROOT
ATOM      1  N   UNL     1       0.688  -0.476  -1.203  0.00  0.00    -0.309 N 
ATOM      2  C   UNL     1       0.006  -0.608  -2.358  0.00  0.00    +0.226 C 
ATOM      3  O   UNL     1      -1.175  -0.336  -2.400  0.00  0.00    -0.275 OA
ATOM      4  H   UNL     1       1.632  -0.695  -1.170  0.00  0.00    +0.149 HD
ENDROOT
BRANCH   2   5
ATOM      5  C   UNL     1       0.712  -1.094  -3.598  0.00  0.00    +0.099 C 
ATOM      6  C   UNL     1       1.849  -0.133  -3.948  0.00  0.00    +0.028 C 
ATOM      7  C   UNL     1       1.284  -2.490  -3.346  0.00  0.00    +0.028 C 
BRANCH   5   8
ATOM      8  C   UNL     1      -0.267  -1.152  -4.743  0.00  0.00    +0.146 C 
ATOM      9  N   UNL     1      -0.061  -0.446  -5.805  0.00  0.00    -0.076 NA
ATOM     10  N   UNL     1      -1.381  -1.957  -4.657  0.00  0.00    -0.343 N 
ATOM     11  H   UNL     1      -1.536  -2.487  -3.859  0.00  0.00    +0.144 HD
ATOM     12  H   UNL     1      -2.011  -1.994  -5.394  0.00  0.00    +0.144 HD
BRANCH   9  13
ATOM     13  O   UNL     1      -0.980  -0.500  -6.881  0.00  0.00    -0.408 OA
ATOM     14  H   UNL     1      -0.742   0.062  -7.631  0.00  0.00    +0.328 HD
ENDBRANCH   9  13
ENDBRANCH   5   8
ENDBRANCH   2   5
BRANCH   1  16
ATOM     15  C   UNL     1      -0.019   1.526   0.010  0.00  0.00    +0.030 C 
ATOM     16  C   UNL     1       0.002  -0.004   0.002  0.00  0.00    +0.099 C 
BRANCH  16  17
ATOM     17  C   UNL     1       0.742  -0.511   1.242  0.00  0.00    +0.138 C 
ATOM     18  C   UNL     1       0.915  -2.049   1.173  0.00  0.00    +0.035 C 
ATOM     19  C   UNL     1       2.161  -2.246   2.080  0.00  0.00    +0.031 C 
ATOM     20  C   UNL     1       2.979  -0.969   1.794  0.00  0.00    +0.160 C 
ATOM     21  O   UNL     1       2.077   0.018   1.276  0.00  0.00    -0.375 OA
ENDBRANCH  16  17
ENDBRANCH   1  16
TORSDOF 5
