REMARK  Name = ZINC63176416
REMARK  5 active torsions:
REMARK  status: ('A' for Active; 'I' for Inactive)
REMARK    1  A    between atoms: C_3  and  S_11
REMARK    2  A    between atoms: C_6  and  N_7
REMARK    3  A    between atoms: S_11  and  N_14
REMARK    4  A    between atoms: N_14  and  C_15
REMARK    5  A    between atoms: C_20  and  N_22
REMARK                            x       y       z     vdW  Elec       q    Type
REMARK                         _______ _______ _______ _____ _____    ______ ____
ROOT
ATOM      1  S   UNL     1       3.967   2.341  -0.055  0.00  0.00    +0.061 S 
ATOM      2  O   UNL     1       4.931   1.865  -0.984  0.00  0.00    -0.153 OA
ATOM      3  O   UNL     1       3.481   3.676  -0.079  0.00  0.00    -0.153 OA
ENDROOT
BRANCH   1   6
ATOM      4  C   UNL     1       1.456  -0.560  -1.249  0.00  0.00    +0.035 A 
ATOM      5  C   UNL     1       2.559   0.266  -1.132  0.00  0.00    +0.033 A 
ATOM      6  C   UNL     1       2.561   1.290  -0.205  0.00  0.00    +0.140 A 
ATOM      7  C   UNL     1       1.456   1.491   0.607  0.00  0.00    +0.152 A 
ATOM      8  C   UNL     1       0.352   0.664   0.488  0.00  0.00    +0.073 A 
ATOM      9  C   UNL     1       0.353  -0.361  -0.439  0.00  0.00    +0.129 A 
ATOM     10  F   UNL     1       1.457   2.492   1.514  0.00  0.00    -0.203 F 
BRANCH   9  11
ATOM     11  N   UNL     1      -0.827  -1.245  -0.566  0.00  0.00    +0.057 N 
ATOM     12  O   UNL     1      -0.827  -2.141  -1.377  0.00  0.00    -0.126 OA
ATOM     13  O   UNL     1      -1.792  -1.071   0.142  0.00  0.00    -0.126 OA
ENDBRANCH   9  11
ENDBRANCH   1   6
BRANCH   1  14
ATOM     14  N   UNL     1       4.603   2.096   1.454  0.00  0.00    -0.188 NA
ATOM     15  H   UNL     1       4.609   2.819   2.101  0.00  0.00    +0.148 HD
BRANCH  14  16
ATOM     16  C   UNL     1       5.156   0.788   1.812  0.00  0.00    +0.062 C 
ATOM     17  C   UNL     1       6.692   0.805   1.665  0.00  0.00    +0.019 C 
ATOM     18  C   UNL     1       7.207   1.112   3.093  0.00  0.00    -0.000 C 
ATOM     19  C   UNL     1       6.226   0.316   3.989  0.00  0.00    -0.015 C 
ATOM     20  C   UNL     1       4.859   0.476   3.289  0.00  0.00    -0.056 C 
BRANCH  20  21
ATOM     21  N   UNL     1       4.089  -0.770   3.396  0.00  0.00    +0.381 N 
ATOM     22  H   UNL     1       4.621  -1.529   2.997  0.00  0.00    -0.090 HD
ATOM     23  H   UNL     1       3.899  -0.967   4.367  0.00  0.00    -0.090 HD
ATOM     24  H   UNL     1       3.218  -0.672   2.896  0.00  0.00    -0.090 HD
ENDBRANCH  20  21
ENDBRANCH  14  16
ENDBRANCH   1  14
TORSDOF 5
