REMARK  Name = ZINC67063490
REMARK  5 active torsions:
REMARK  status: ('A' for Active; 'I' for Inactive)
REMARK    1  A    between atoms: C_1  and  C_2
REMARK    2  A    between atoms: C_2  and  C_4
REMARK    3  A    between atoms: C_2  and  N_15
REMARK    4  A    between atoms: N_18  and  C_19
REMARK    5  A    between atoms: C_19  and  C_20
REMARK                            x       y       z     vdW  Elec       q    Type
REMARK                         _______ _______ _______ _____ _____    ______ ____
ROOT
ATOM      1  N   UNL     1       0.711  -0.489   1.189  0.00  0.00    -0.293 N 
ATOM      2  C   UNL     1       2.054  -0.600   1.174  0.00  0.00    +0.300 C 
ATOM      3  O   UNL     1       2.677  -0.297   0.175  0.00  0.00    -0.253 OA
ATOM      4  N   UNL     1       2.706  -1.046   2.266  0.00  0.00    -0.295 N 
ATOM      5  H   UNL     1       0.213  -0.731   1.986  0.00  0.00    +0.151 HD
ATOM      6  H   UNL     1       2.208  -1.288   3.062  0.00  0.00    +0.151 HD
ENDROOT
BRANCH   1   8
ATOM      7  C   UNL     1      -0.019   1.526   0.010  0.00  0.00    +0.033 C 
ATOM      8  C   UNL     1       0.002  -0.004   0.002  0.00  0.00    +0.102 C 
BRANCH   8   9
ATOM      9  C   UNL     1      -1.412  -0.526   0.013  0.00  0.00    -0.025 A 
ATOM     10  C   UNL     1      -2.121  -0.570   1.199  0.00  0.00    +0.009 A 
ATOM     11  C   UNL     1      -3.420  -1.046   1.217  0.00  0.00    +0.048 A 
ATOM     12  C   UNL     1      -4.011  -1.480   0.044  0.00  0.00    +0.142 A 
ATOM     13  C   UNL     1      -3.296  -1.437  -1.152  0.00  0.00    +0.076 A 
ATOM     14  C   UNL     1      -1.998  -0.953  -1.165  0.00  0.00    +0.032 A 
ATOM     15  N   UNL     1      -3.906  -1.883  -2.333  0.00  0.00    -0.280 N 
ATOM     16  C   UNL     1      -5.247  -2.043  -2.357  0.00  0.00    +0.255 C 
ATOM     17  O   UNL     1      -5.793  -2.457  -3.357  0.00  0.00    -0.272 OA
ATOM     18  C   UNL     1      -6.062  -1.706  -1.134  0.00  0.00    +0.325 C 
ATOM     19  O   UNL     1      -5.287  -1.951   0.043  0.00  0.00    -0.481 OA
ATOM     20  H   UNL     1      -3.373  -2.072  -3.121  0.00  0.00    +0.155 HD
ENDBRANCH   8   9
ENDBRANCH   1   8
BRANCH   4  21
ATOM     21  C   UNL     1       4.166  -1.166   2.249  0.00  0.00    +0.141 C 
BRANCH  21  22
ATOM     22  C   UNL     1       4.642  -1.684   3.582  0.00  0.00    -0.027 A 
ATOM     23  C   UNL     1       4.952  -0.795   4.595  0.00  0.00    +0.009 A 
ATOM     24  C   UNL     1       5.389  -1.263   5.821  0.00  0.00    +0.050 A 
ATOM     25  C   UNL     1       5.516  -2.626   6.031  0.00  0.00    +0.162 A 
ATOM     26  C   UNL     1       5.205  -3.517   5.014  0.00  0.00    +0.162 A 
ATOM     27  C   UNL     1       4.763  -3.046   3.789  0.00  0.00    +0.054 A 
ATOM     28  O   UNL     1       5.333  -4.859   5.231  0.00  0.00    -0.488 OA
ATOM     29  C   UNL     1       6.668  -5.342   5.389  0.00  0.00    +0.232 C 
ATOM     30  C   UNL     1       7.134  -5.178   6.827  0.00  0.00    +0.082 C 
ATOM     31  C   UNL     1       7.234  -3.718   7.241  0.00  0.00    +0.232 C 
ATOM     32  O   UNL     1       5.946  -3.101   7.236  0.00  0.00    -0.488 OA
ENDBRANCH  21  22
ENDBRANCH   4  21
TORSDOF 4
