REMARK  Name = ZINC28535824
REMARK  6 active torsions:
REMARK  status: ('A' for Active; 'I' for Inactive)
REMARK    1  A    between atoms: C_1  and  C_2
REMARK    2  A    between atoms: C_3  and  N_9
REMARK    3  A    between atoms: N_13  and  N_26
REMARK    4  A    between atoms: C_14  and  S_17
REMARK    5  A    between atoms: S_17  and  C_18
REMARK    6  A    between atoms: C_18  and  C_19
REMARK                            x       y       z     vdW  Elec       q    Type
REMARK                         _______ _______ _______ _____ _____    ______ ____
ROOT
ATOM      1  N   UNL     1       3.620  -0.651  -0.037  0.00  0.00    -0.293 N 
ATOM      2  C   UNL     1       3.643  -2.043   0.061  0.00  0.00    +0.212 A 
ATOM      3  C   UNL     1       4.879  -2.736   0.152  0.00  0.00    +0.312 A 
ATOM      4  O   UNL     1       5.939  -2.134   0.147  0.00  0.00    -0.262 OA
ATOM      5  N   UNL     1       4.845  -4.086   0.245  0.00  0.00    -0.205 N 
ATOM      6  C   UNL     1       3.631  -4.710   0.246  0.00  0.00    +0.210 A 
ATOM      7  N   UNL     1       2.517  -4.010   0.158  0.00  0.00    -0.121 NA
ATOM      8  N   UNL     1       2.519  -2.728   0.074  0.00  0.00    -0.126 NA
ATOM      9  H   UNL     1       4.553  -0.077   0.060  0.00  0.00    +0.154 HD
ENDROOT
BRANCH   1  12
ATOM     10  C   UNL     1       3.427   2.078   0.745  0.00  0.00    +0.047 C 
ATOM     11  C   UNL     1       2.273   1.347   0.109  0.00  0.00    -0.011 A 
ATOM     12  C   UNL     1       2.411   0.014  -0.257  0.00  0.00    +0.037 A 
ATOM     13  C   UNL     1       1.345  -0.657  -0.844  0.00  0.00    +0.023 A 
ATOM     14  C   UNL     1       0.151   0.003  -1.061  0.00  0.00    +0.003 A 
ATOM     15  C   UNL     1       0.016   1.330  -0.696  0.00  0.00    +0.020 A 
ATOM     16  C   UNL     1       1.076   2.001  -0.111  0.00  0.00    +0.046 A 
ATOM     17 CL   UNL     1       0.902   3.667   0.346  0.00  0.00    -0.083 Cl
ENDBRANCH   1  12
BRANCH   5  18
ATOM     18  N   UNL     1       6.001  -4.808   0.336  0.00  0.00    -0.293 N 
ATOM     19  H   UNL     1       5.960  -5.905   0.411  0.00  0.00    +0.163 HD
ATOM     20  H   UNL     1       6.973  -4.293   0.334  0.00  0.00    +0.163 HD
ENDBRANCH   5  18
BRANCH   6  21
ATOM     21  S   UNL     1       3.552  -6.466   0.366  0.00  0.00    -0.080 S 
BRANCH  21  22
ATOM     22  C   UNL     1       1.758  -6.703   0.320  0.00  0.00    +0.114 C 
BRANCH  22  23
ATOM     23  C   UNL     1       1.443  -8.174   0.411  0.00  0.00    -0.019 A 
ATOM     24  C   UNL     1       1.335  -8.931  -0.740  0.00  0.00    +0.006 A 
ATOM     25  C   UNL     1       1.051 -10.281  -0.656  0.00  0.00    +0.000 A 
ATOM     26  C   UNL     1       0.865 -10.873   0.580  0.00  0.00    +0.001 A 
ATOM     27  C   UNL     1       0.968 -10.117   1.731  0.00  0.00    +0.020 A 
ATOM     28  C   UNL     1       1.257  -8.766   1.648  0.00  0.00    +0.045 A 
ATOM     29 CL   UNL     1       1.385  -7.814   3.094  0.00  0.00    -0.083 Cl
ENDBRANCH  22  23
ENDBRANCH  21  22
ENDBRANCH   6  21
TORSDOF 5
