REMARK  Name = ZINC39670600
REMARK  5 active torsions:
REMARK  status: ('A' for Active; 'I' for Inactive)
REMARK    1  A    between atoms: C_1  and  C_2
REMARK    2  A    between atoms: C_7  and  C_11
REMARK    3  A    between atoms: C_11  and  N_12
REMARK    4  A    between atoms: C_13  and  C_15
REMARK    5  A    between atoms: C_26  and  C_28
REMARK                            x       y       z     vdW  Elec       q    Type
REMARK                         _______ _______ _______ _____ _____    ______ ____
ROOT
ATOM      1  C   UNL     1       3.156  -7.614   3.257  0.00  0.00    +0.100 C 
ATOM      2  C   UNL     1       3.727  -7.995   1.873  0.00  0.00    +0.121 C 
ATOM      3  N   UNL     1       4.569  -9.187   2.131  0.00  0.00    -0.295 N 
ATOM      4  C   UNL     1       3.801  -9.972   3.127  0.00  0.00    +0.115 C 
ATOM      5  C   UNL     1       3.205  -8.914   4.077  0.00  0.00    -0.004 C 
ATOM      6  C   UNL     1       1.799  -9.323   4.505  0.00  0.00    -0.010 C 
ATOM      7  C   UNL     1       1.880 -10.585   5.368  0.00  0.00    -0.082 C 
ATOM      8  N   UNL     1       2.715 -10.323   6.546  0.00  0.00    +0.379 N 
ATOM      9  C   UNL     1       4.090 -10.022   6.128  0.00  0.00    -0.082 C 
ATOM     10  C   UNL     1       4.102  -8.735   5.298  0.00  0.00    -0.010 C 
ATOM     11  C   UNL     1       5.764  -9.489   1.585  0.00  0.00    +0.265 C 
ATOM     12  O   UNL     1       6.296 -10.551   1.837  0.00  0.00    -0.268 OA
ATOM     13  H   UNL     1       2.339  -9.537   7.054  0.00  0.00    -0.086 HD
ATOM     14  H   UNL     1       2.717 -11.136   7.143  0.00  0.00    -0.086 HD
ENDROOT
BRANCH  11  15
ATOM     15  C   UNL     1       6.428  -8.524   0.676  0.00  0.00    +0.126 A 
ATOM     16  C   UNL     1       7.614  -8.898   0.026  0.00  0.00    +0.033 A 
ATOM     17  C   UNL     1       8.235  -8.020  -0.814  0.00  0.00    +0.012 A 
ATOM     18  C   UNL     1       7.653  -6.751  -0.999  0.00  0.00    +0.000 A 
ATOM     19  C   UNL     1       8.238  -5.798  -1.849  0.00  0.00    +0.010 A 
ATOM     20  C   UNL     1       7.647  -4.582  -2.004  0.00  0.00    +0.001 A 
ATOM     21  C   UNL     1       6.467  -4.267  -1.330  0.00  0.00    +0.002 A 
ATOM     22  C   UNL     1       5.872  -5.165  -0.499  0.00  0.00    +0.028 A 
ATOM     23  C   UNL     1       6.452  -6.434  -0.312  0.00  0.00    +0.072 A 
ATOM     24  N   UNL     1       5.888  -7.335   0.492  0.00  0.00    -0.242 NA
ENDBRANCH  11  15
BRANCH   1  26
ATOM     25  N   UNL     1       1.187  -6.370   4.091  0.00  0.00    -0.309 N 
ATOM     26  C   UNL     1       1.734  -7.132   3.123  0.00  0.00    +0.219 C 
ATOM     27  O   UNL     1       1.083  -7.429   2.145  0.00  0.00    -0.275 OA
ATOM     28  H   UNL     1       1.708  -6.132   4.874  0.00  0.00    +0.149 HD
BRANCH  25  29
ATOM     29  C   UNL     1      -0.195  -5.902   3.961  0.00  0.00    +0.159 C 
BRANCH  29  36
ATOM     30  C   UNL     1      -2.517  -3.045  10.370  0.00  0.00    +0.045 C 
ATOM     31  C   UNL     1      -1.899  -3.159   9.000  0.00  0.00    -0.034 A 
ATOM     32  C   UNL     1      -1.334  -2.026   8.391  0.00  0.00    +0.008 A 
ATOM     33  C   UNL     1      -0.777  -2.132   7.155  0.00  0.00    +0.045 A 
ATOM     34  C   UNL     1      -0.776  -3.382   6.504  0.00  0.00    +0.115 A 
ATOM     35  N   UNL     1      -0.315  -3.773   5.324  0.00  0.00    -0.342 N 
ATOM     36  C   UNL     1      -0.561  -5.076   5.168  0.00  0.00    +0.051 A 
ATOM     37  C   UNL     1      -1.193  -5.531   6.271  0.00  0.00    +0.115 A 
ATOM     38  N   UNL     1      -1.335  -4.470   7.123  0.00  0.00    -0.308 N 
ATOM     39  C   UNL     1      -1.886  -4.350   8.366  0.00  0.00    +0.096 A 
ATOM     40  H   UNL     1       0.129  -3.204   4.677  0.00  0.00    +0.167 HD
ENDBRANCH  29  36
ENDBRANCH  25  29
ENDBRANCH   1  26
TORSDOF 4
