REMARK  Name = ZINC32111959
REMARK  7 active torsions:
REMARK  status: ('A' for Active; 'I' for Inactive)
REMARK    1  A    between atoms: C_1  and  C_2
REMARK    2  A    between atoms: C_4  and  N_20
REMARK    3  A    between atoms: C_7  and  N_8
REMARK    4  A    between atoms: C_9  and  C_11
REMARK    5  A    between atoms: C_21  and  C_23
REMARK    6  A    between atoms: C_23  and  O_24
REMARK    7  A    between atoms: O_24  and  C_25
REMARK                            x       y       z     vdW  Elec       q    Type
REMARK                         _______ _______ _______ _____ _____    ______ ____
ROOT
ATOM      1  C   UNL     1      -6.766   6.284  -0.104  0.00  0.00    +0.046 C 
ATOM      2  C   UNL     1      -7.530   4.985  -0.111  0.00  0.00    -0.027 A 
ATOM      3  C   UNL     1      -8.907   4.995  -0.205  0.00  0.00    +0.028 A 
ATOM      4  C   UNL     1      -9.612   3.798  -0.205  0.00  0.00    +0.034 A 
ATOM      5  C   UNL     1      -8.931   2.591  -0.116  0.00  0.00    +0.025 A 
ATOM      6  C   UNL     1      -7.553   2.581  -0.028  0.00  0.00    +0.025 A 
ATOM      7  C   UNL     1      -6.848   3.778  -0.028  0.00  0.00    +0.037 A 
ENDROOT
BRANCH   7   8
ATOM      8  N   UNL     1      -5.452   3.768   0.062  0.00  0.00    -0.279 N 
ATOM      9  C   UNL     1      -4.821   2.723   0.634  0.00  0.00    +0.284 C 
ATOM     10  O   UNL     1      -5.467   1.837   1.161  0.00  0.00    -0.266 OA
ATOM     11  H   UNL     1      -4.869   4.612  -0.334  0.00  0.00    +0.155 HD
BRANCH   9  12
ATOM     12  C   UNL     1      -3.353   2.653   0.620  0.00  0.00    +0.191 A 
ATOM     13  C   UNL     1      -2.613   1.652   1.163  0.00  0.00    +0.063 A 
ATOM     14  C   UNL     1      -1.215   2.002   0.913  0.00  0.00    +0.021 A 
ATOM     15  C   UNL     1       0.009   1.397   1.213  0.00  0.00    +0.011 A 
ATOM     16  C   UNL     1       1.173   1.995   0.823  0.00  0.00    +0.001 A 
ATOM     17  C   UNL     1       1.149   3.202   0.138  0.00  0.00    +0.004 A 
ATOM     18  C   UNL     1      -0.047   3.818  -0.163  0.00  0.00    +0.047 A 
ATOM     19  C   UNL     1      -1.245   3.228   0.223  0.00  0.00    +0.136 A 
ATOM     20  O   UNL     1      -2.537   3.580   0.076  0.00  0.00    -0.450 OA
ENDBRANCH   9  12
ENDBRANCH   7   8
BRANCH   4  21
ATOM     21  N   UNL     1     -11.010   3.808  -0.295  0.00  0.00    -0.283 N 
ATOM     22  C   UNL     1     -11.630   4.743  -1.042  0.00  0.00    +0.255 C 
ATOM     23  O   UNL     1     -10.985   5.627  -1.567  0.00  0.00    -0.272 OA
ATOM     24  H   UNL     1     -11.601   3.054   0.244  0.00  0.00    +0.155 HD
BRANCH  22  25
ATOM     25  C   UNL     1     -13.125   4.691  -1.227  0.00  0.00    +0.324 C 
BRANCH  25  26
ATOM     26  O   UNL     1     -13.542   5.780  -2.052  0.00  0.00    -0.483 OA
BRANCH  26  27
ATOM     27  C   UNL     1     -14.871   5.879  -2.318  0.00  0.00    +0.121 A 
ATOM     28  C   UNL     1     -15.754   4.943  -1.800  0.00  0.00    +0.047 A 
ATOM     29  C   UNL     1     -17.106   5.048  -2.068  0.00  0.00    +0.023 A 
ATOM     30  C   UNL     1     -17.576   6.080  -2.861  0.00  0.00    +0.041 A 
ATOM     31  C   UNL     1     -16.696   7.011  -3.383  0.00  0.00    +0.023 A 
ATOM     32  C   UNL     1     -15.345   6.912  -3.113  0.00  0.00    +0.047 A 
ATOM     33 CL   UNL     1     -19.274   6.207  -3.201  0.00  0.00    -0.084 Cl
ENDBRANCH  26  27
ENDBRANCH  25  26
ENDBRANCH  22  25
ENDBRANCH   4  21
TORSDOF 6
