REMARK  Name = ZINC66908005
REMARK  7 active torsions:
REMARK  status: ('A' for Active; 'I' for Inactive)
REMARK    1  A    between atoms: C_1  and  C_2
REMARK    2  A    between atoms: C_2  and  N_3
REMARK    3  A    between atoms: C_11  and  C_12
REMARK    4  A    between atoms: C_12  and  N_13
REMARK    5  A    between atoms: N_16  and  C_17
REMARK    6  A    between atoms: C_17  and  C_18
REMARK    7  A    between atoms: C_18  and  O_28
REMARK                            x       y       z     vdW  Elec       q    Type
REMARK                         _______ _______ _______ _____ _____    ______ ____
ROOT
ATOM      1  N   UNL     1      -1.420  -2.006  -3.116  0.00  0.00    -0.292 N 
ATOM      2  C   UNL     1      -0.799  -2.013  -4.312  0.00  0.00    +0.300 C 
ATOM      3  O   UNL     1      -0.779  -1.006  -4.992  0.00  0.00    -0.253 OA
ATOM      4  N   UNL     1      -0.200  -3.136  -4.753  0.00  0.00    -0.296 N 
ATOM      5  H   UNL     1      -1.436  -2.809  -2.573  0.00  0.00    +0.151 HD
ATOM      6  H   UNL     1      -0.215  -3.940  -4.210  0.00  0.00    +0.150 HD
ENDROOT
BRANCH   1   7
ATOM      7  C   UNL     1      -2.072  -0.784  -2.636  0.00  0.00    +0.180 C 
BRANCH   7  16
ATOM      8  N   UNL     1      -2.055  -0.860  -0.094  0.00  0.00    -0.327 N 
ATOM      9  C   UNL     1      -2.951  -1.195   0.902  0.00  0.00    +0.069 A 
ATOM     10  C   UNL     1      -2.894  -1.211   2.289  0.00  0.00    +0.028 A 
ATOM     11  C   UNL     1      -3.997  -1.611   3.013  0.00  0.00    +0.002 A 
ATOM     12  C   UNL     1      -5.162  -1.996   2.365  0.00  0.00    +0.002 A 
ATOM     13  C   UNL     1      -5.236  -1.987   1.001  0.00  0.00    +0.030 A 
ATOM     14  C   UNL     1      -4.131  -1.585   0.246  0.00  0.00    +0.089 A 
ATOM     15  N   UNL     1      -3.899  -1.470  -1.087  0.00  0.00    -0.231 NA
ATOM     16  C   UNL     1      -2.687  -1.041  -1.285  0.00  0.00    +0.128 A 
BRANCH   8  18
ATOM     17  C   UNL     1      -0.673   1.136   0.206  0.00  0.00    +0.027 C 
ATOM     18  C   UNL     1      -0.680  -0.390   0.097  0.00  0.00    +0.120 C 
ENDBRANCH   8  18
ENDBRANCH   7  16
ENDBRANCH   1   7
BRANCH   4  19
ATOM     19  C   UNL     1       0.476  -3.144  -6.053  0.00  0.00    +0.145 C 
BRANCH  19  20
ATOM     20  C   UNL     1       1.180  -4.488  -6.254  0.00  0.00    +0.107 C 
ATOM     21  C   UNL     1       2.152  -4.725  -5.100  0.00  0.00    +0.041 C 
ATOM     22  C   UNL     1       2.999  -5.960  -5.428  0.00  0.00    +0.008 C 
ATOM     23  C   UNL     1       3.944  -5.605  -6.574  0.00  0.00    +0.035 C 
ATOM     24  C   UNL     1       3.181  -4.989  -7.717  0.00  0.00    -0.041 A 
ATOM     25  C   UNL     1       1.913  -4.472  -7.570  0.00  0.00    -0.011 A 
ATOM     26  C   UNL     1       1.267  -3.912  -8.664  0.00  0.00    +0.007 A 
ATOM     27  C   UNL     1       1.884  -3.872  -9.897  0.00  0.00    +0.000 A 
ATOM     28  C   UNL     1       3.155  -4.394 -10.046  0.00  0.00    +0.000 A 
ATOM     29  C   UNL     1       3.800  -4.949  -8.960  0.00  0.00    +0.004 A 
BRANCH  20  30
ATOM     30  O   UNL     1       0.205  -5.532  -6.270  0.00  0.00    -0.382 OA
ATOM     31  H   UNL     1      -0.454  -5.445  -6.973  0.00  0.00    +0.211 HD
ENDBRANCH  20  30
ENDBRANCH  19  20
ENDBRANCH   4  19
TORSDOF 6
