REMARK  Name = ZINC02900813
REMARK  14 active torsions:
REMARK  status: ('A' for Active; 'I' for Inactive)
REMARK    1  A    between atoms: C_1  and  C_2
REMARK    2  A    between atoms: C_2  and  C_3
REMARK    3  A    between atoms: C_2  and  C_4
REMARK    4  A    between atoms: C_2  and  N_45
REMARK    5  A    between atoms: C_5  and  C_7
REMARK    6  A    between atoms: C_5  and  N_11
REMARK    7  A    between atoms: C_5  and  N_45
REMARK    8  A    between atoms: N_14  and  C_15
REMARK    9  A    between atoms: C_15  and  C_17
REMARK   10  A    between atoms: C_15  and  N_48
REMARK   11  A    between atoms: C_21  and  C_22
REMARK   12  A    between atoms: C_21  and  C_23
REMARK   13  A    between atoms: C_21  and  C_24
REMARK   14  A    between atoms: C_21  and  N_48
REMARK                            x       y       z     vdW  Elec       q    Type
REMARK                         _______ _______ _______ _____ _____    ______ ____
ROOT
ATOM      1  N   UNL     1      -2.583   2.873  -0.307  0.00  0.00    -0.310 N 
ATOM      2  C   UNL     1      -2.091   4.054  -0.731  0.00  0.00    +0.297 C 
ATOM      3  O   UNL     1      -1.533   4.129  -1.808  0.00  0.00    -0.253 OA
ATOM      4  N   UNL     1      -2.220   5.152   0.040  0.00  0.00    -0.310 N 
ATOM      5  H   UNL     1      -3.070   2.822   0.530  0.00  0.00    +0.148 HD
ATOM      6  H   UNL     1      -2.609   5.081   0.925  0.00  0.00    +0.148 HD
ENDROOT
BRANCH   1   7
ATOM      7  C   UNL     1      -2.380   1.665  -1.110  0.00  0.00    +0.070 C 
BRANCH   7   8
ATOM      8  C   UNL     1      -3.708   0.917  -1.251  0.00  0.00    +0.194 C 
ATOM      9 CL   UNL     1      -4.315   0.457   0.383  0.00  0.00    -0.084 Cl
ATOM     10 CL   UNL     1      -4.915   1.983  -2.062  0.00  0.00    -0.084 Cl
ATOM     11 CL   UNL     1      -3.458  -0.570  -2.240  0.00  0.00    -0.084 Cl
ENDBRANCH   7   8
BRANCH   7  12
ATOM     12  N   UNL     1      -1.399   0.790  -0.441  0.00  0.00    +0.397 N 
ATOM     13  H   UNL     1      -1.228   1.139   0.510  0.00  0.00    -0.082 HD
ATOM     14  H   UNL     1      -1.773  -0.164  -0.392  0.00  0.00    -0.082 HD
BRANCH  12  16
ATOM     15  C   UNL     1       0.483   2.181  -1.189  0.00  0.00    -0.011 C 
ATOM     16  C   UNL     1      -0.129   0.778  -1.190  0.00  0.00    -0.074 C 
ATOM     17  C   UNL     1       0.839  -0.201  -0.521  0.00  0.00    -0.011 C 
ATOM     18  C   UNL     1      -0.386   0.335  -2.632  0.00  0.00    -0.011 C 
ENDBRANCH  12  16
ENDBRANCH   7  12
ENDBRANCH   1   7
BRANCH   4  19
ATOM     19  C   UNL     1      -1.771   6.454  -0.460  0.00  0.00    +0.070 C 
BRANCH  19  20
ATOM     20  C   UNL     1      -2.878   7.489  -0.253  0.00  0.00    +0.194 C 
ATOM     21 CL   UNL     1      -3.259   7.619   1.504  0.00  0.00    -0.084 Cl
ATOM     22 CL   UNL     1      -2.326   9.092  -0.869  0.00  0.00    -0.084 Cl
ATOM     23 CL   UNL     1      -4.355   6.977  -1.152  0.00  0.00    -0.084 Cl
ENDBRANCH  19  20
BRANCH  19  24
ATOM     24  N   UNL     1      -0.567   6.875   0.282  0.00  0.00    +0.397 N 
ATOM     25  H   UNL     1      -0.448   6.271   1.104  0.00  0.00    -0.082 HD
ATOM     26  H   UNL     1      -0.680   7.849   0.586  0.00  0.00    -0.082 HD
BRANCH  24  27
ATOM     27  C   UNL     1       0.627   6.769  -0.577  0.00  0.00    -0.074 C 
ATOM     28  C   UNL     1       0.499   7.736  -1.756  0.00  0.00    -0.011 C 
ATOM     29  C   UNL     1       1.868   7.126   0.243  0.00  0.00    -0.011 C 
ATOM     30  C   UNL     1       0.758   5.338  -1.103  0.00  0.00    -0.011 C 
ENDBRANCH  24  27
ENDBRANCH  19  24
ENDBRANCH   4  19
TORSDOF 8
