REMARK  Name = ZINC44483419
REMARK  6 active torsions:
REMARK  status: ('A' for Active; 'I' for Inactive)
REMARK    1  A    between atoms: C_3  and  O_20
REMARK    2  A    between atoms: C_4  and  C_8
REMARK    3  A    between atoms: C_6  and  N_7
REMARK    4  A    between atoms: C_8  and  N_9
REMARK    5  A    between atoms: C_10  and  C_12
REMARK    6  A    between atoms: C_17  and  O_18
REMARK                            x       y       z     vdW  Elec       q    Type
REMARK                         _______ _______ _______ _____ _____    ______ ____
ROOT
ATOM      1  N   UNL     1       4.303  -0.627  -1.377  0.00  0.00    -0.307 N 
ATOM      2  C   UNL     1       5.489  -1.216  -1.630  0.00  0.00    +0.248 C 
ATOM      3  O   UNL     1       6.071  -1.814  -0.746  0.00  0.00    -0.270 OA
ATOM      4  H   UNL     1       3.839  -0.149  -2.082  0.00  0.00    +0.149 HD
ENDROOT
BRANCH   2   5
ATOM      5  C   UNL     1       6.080  -1.134  -2.979  0.00  0.00    +0.078 A 
ATOM      6  C   UNL     1       5.417  -0.442  -3.996  0.00  0.00    +0.018 A 
ATOM      7  C   UNL     1       5.975  -0.368  -5.253  0.00  0.00    +0.016 A 
ATOM      8  C   UNL     1       7.192  -0.979  -5.515  0.00  0.00    +0.021 A 
ATOM      9  C   UNL     1       7.857  -1.666  -4.519  0.00  0.00    +0.061 A 
ATOM     10  C   UNL     1       7.313  -1.745  -3.246  0.00  0.00    +0.130 A 
ATOM     11 BR   UNL     1       7.945  -0.869  -7.247  0.00  0.00    -0.050 Br
BRANCH  10  12
ATOM     12  O   UNL     1       7.968  -2.415  -2.265  0.00  0.00    -0.506 OA
ATOM     13  H   UNL     1       7.740  -3.353  -2.210  0.00  0.00    +0.292 HD
ENDBRANCH  10  12
ENDBRANCH   2   5
BRANCH   1  14
ATOM     14  C   UNL     1       3.716  -0.708  -0.038  0.00  0.00    +0.143 C 
BRANCH  14  18
ATOM     15  C   UNL     1      -0.017   1.384   0.010  0.00  0.00    +0.026 A 
ATOM     16  C   UNL     1       1.170   2.091   0.002  0.00  0.00    +0.047 A 
ATOM     17  C   UNL     1       2.380   1.414  -0.013  0.00  0.00    +0.122 A 
ATOM     18  C   UNL     1       2.400   0.027  -0.021  0.00  0.00    +0.013 A 
ATOM     19  C   UNL     1       1.214  -0.681  -0.013  0.00  0.00    +0.031 A 
ATOM     20  C   UNL     1       0.002  -0.004   0.002  0.00  0.00    +0.025 A 
BRANCH  20  21
ATOM     21  N   UNL     1      -1.200  -0.721   0.010  0.00  0.00    -0.358 N 
ATOM     22  H   UNL     1      -2.047  -0.247   0.021  0.00  0.00    +0.142 HD
ATOM     23  H   UNL     1      -1.186  -1.690   0.005  0.00  0.00    +0.142 HD
ENDBRANCH  20  21
BRANCH  17  24
ATOM     24  O   UNL     1       3.549   2.110  -0.021  0.00  0.00    -0.506 OA
ATOM     25  H   UNL     1       3.895   2.307   0.860  0.00  0.00    +0.292 HD
ENDBRANCH  17  24
ENDBRANCH  14  18
ENDBRANCH   1  14
TORSDOF 6
