REMARK  Name = ZINC04674746
REMARK  6 active torsions:
REMARK  status: ('A' for Active; 'I' for Inactive)
REMARK    1  A    between atoms: C_1  and  C_2
REMARK    2  A    between atoms: C_2  and  N_3
REMARK    3  A    between atoms: C_6  and  C_14
REMARK    4  A    between atoms: N_16  and  C_17
REMARK    5  A    between atoms: C_22  and  C_27
REMARK    6  A    between atoms: C_24  and  C_26
REMARK                            x       y       z     vdW  Elec       q    Type
REMARK                         _______ _______ _______ _____ _____    ______ ____
ROOT
ATOM      1  N   UNL     1      -0.749   3.044   1.275  0.00  0.00    -0.270 N 
ATOM      2  C   UNL     1      -1.782   3.663   0.575  0.00  0.00    +0.050 A 
ATOM      3  C   UNL     1      -2.942   2.954   0.307  0.00  0.00    +0.037 A 
ATOM      4  C   UNL     1      -3.985   3.557  -0.398  0.00  0.00    +0.039 A 
ATOM      5  C   UNL     1      -3.865   4.880  -0.835  0.00  0.00    +0.014 A 
ATOM      6  C   UNL     1      -2.713   5.587  -0.567  0.00  0.00    +0.017 A 
ATOM      7  C   UNL     1      -1.676   4.987   0.135  0.00  0.00    +0.030 A 
ATOM      8  S   UNL     1      -0.202   5.893   0.486  0.00  0.00    -0.114 S 
ATOM      9  C   UNL     1       0.354   5.149   2.050  0.00  0.00    +0.170 C 
ATOM     10  C   UNL     1       0.219   3.654   1.954  0.00  0.00    +0.230 C 
ATOM     11  O   UNL     1       1.040   2.967   2.524  0.00  0.00    -0.274 OA
ENDROOT
BRANCH   4  12
ATOM     12  C   UNL     1      -5.218   2.798  -0.680  0.00  0.00    +0.244 C 
ATOM     13  O   UNL     1      -5.324   1.648  -0.301  0.00  0.00    -0.270 OA
ATOM     14  N   UNL     1      -6.226   3.379  -1.360  0.00  0.00    -0.308 N 
ATOM     15  H   UNL     1      -6.142   4.297  -1.663  0.00  0.00    +0.149 HD
BRANCH  14  16
ATOM     16  C   UNL     1      -7.450   2.625  -1.641  0.00  0.00    +0.076 C 
ATOM     17  C   UNL     1      -8.396   2.723  -0.442  0.00  0.00    +0.022 C 
ATOM     18  C   UNL     1      -9.675   1.936  -0.736  0.00  0.00    +0.002 C 
ATOM     19  C   UNL     1     -10.359   2.517  -1.975  0.00  0.00    +0.003 C 
ATOM     20  C   UNL     1      -9.413   2.419  -3.173  0.00  0.00    -0.009 C 
ATOM     21  C   UNL     1      -8.135   3.207  -2.880  0.00  0.00    +0.009 C 
ATOM     22  C   UNL     1      -7.189   3.108  -4.078  0.00  0.00    +0.009 C 
ATOM     23  C   UNL     1      -9.061   0.952  -3.426  0.00  0.00    +0.008 C 
ENDBRANCH  14  16
ENDBRANCH   4  12
BRANCH   1  25
ATOM     24  C   UNL     1      -1.425   1.053   2.523  0.00  0.00    +0.025 C 
ATOM     25  C   UNL     1      -0.729   1.579   1.267  0.00  0.00    +0.110 C 
ENDBRANCH   1  25
TORSDOF 3
