REMARK  Name = ZINC38056075
REMARK  4 active torsions:
REMARK  status: ('A' for Active; 'I' for Inactive)
REMARK    1  A    between atoms: C_4  and  O_8
REMARK    2  A    between atoms: C_5  and  N_7
REMARK    3  A    between atoms: O_8  and  C_9
REMARK    4  A    between atoms: C_9  and  C_10
REMARK                            x       y       z     vdW  Elec       q    Type
REMARK                         _______ _______ _______ _____ _____    ______ ____
ROOT
ATOM      1  C   UNL     1      -0.017   1.378   0.010  0.00  0.00    +0.002 A 
ATOM      2  C   UNL     1       1.169   2.089   0.002  0.00  0.00    +0.004 A 
ATOM      3  C   UNL     1       2.380   1.421  -0.013  0.00  0.00    +0.047 A 
ATOM      4  C   UNL     1       2.407   0.036  -0.021  0.00  0.00    +0.141 A 
ATOM      5  C   UNL     1       1.213  -0.681  -0.013  0.00  0.00    +0.067 A 
ATOM      6  C   UNL     1       0.002  -0.004   0.002  0.00  0.00    +0.026 A 
ENDROOT
BRANCH   5   7
ATOM      7  N   UNL     1       1.235  -2.080  -0.021  0.00  0.00    -0.355 N 
ATOM      8  H   UNL     1       2.082  -2.552  -0.032  0.00  0.00    +0.142 HD
ATOM      9  H   UNL     1       0.402  -2.578  -0.016  0.00  0.00    +0.142 HD
ENDBRANCH   5   7
BRANCH   4  10
ATOM     10  O   UNL     1       3.598  -0.622  -0.036  0.00  0.00    -0.486 OA
BRANCH  10  11
ATOM     11  C   UNL     1       4.781   0.178  -0.044  0.00  0.00    +0.275 C 
BRANCH  11  12
ATOM     12  C   UNL     1       6.012  -0.731  -0.061  0.00  0.00    +0.232 C 
ATOM     13  C   UNL     1       7.314   0.102  -0.121  0.00  0.00    +0.155 C 
ATOM     14  N   UNL     1       8.220  -0.671   0.751  0.00  0.00    -0.277 N 
ATOM     15  C   UNL     1       7.469  -1.538   1.457  0.00  0.00    +0.401 C 
ATOM     16  O   UNL     1       7.930  -2.337   2.248  0.00  0.00    -0.226 OA
ATOM     17  O   UNL     1       6.156  -1.425   1.194  0.00  0.00    -0.442 OA
ATOM     18  H   UNL     1       9.183  -0.573   0.806  0.00  0.00    +0.152 HD
ENDBRANCH  11  12
ENDBRANCH  10  11
ENDBRANCH   4  10
TORSDOF 4
