REMARK  Name = ZINC64097984
REMARK  7 active torsions:
REMARK  status: ('A' for Active; 'I' for Inactive)
REMARK    1  A    between atoms: C_1  and  C_2
REMARK    2  A    between atoms: C_7  and  N_8
REMARK    3  A    between atoms: C_9  and  O_35
REMARK    4  A    between atoms: C_12  and  O_34
REMARK    5  A    between atoms: C_13  and  C_17
REMARK    6  A    between atoms: C_24  and  O_29
REMARK    7  A    between atoms: O_29  and  C_30
REMARK                            x       y       z     vdW  Elec       q    Type
REMARK                         _______ _______ _______ _____ _____    ______ ____
ROOT
ATOM      1  N   UNL     1       3.286   1.764   2.972  0.00  0.00    -0.225 N 
ATOM      2  C   UNL     1       3.114   0.657   2.042  0.00  0.00    +0.338 C 
ATOM      3  N   UNL     1       1.759   0.132   2.060  0.00  0.00    -0.204 NA
ATOM      4  C   UNL     1       0.935   0.304   3.020  0.00  0.00    +0.200 C 
ATOM      5  C   UNL     1       1.276   1.084   4.256  0.00  0.00    +0.179 C 
ATOM      6  C   UNL     1       2.461   1.973   4.006  0.00  0.00    +0.237 C 
ATOM      7  O   UNL     1       2.673   2.902   4.756  0.00  0.00    -0.274 OA
ENDROOT
BRANCH   5   8
ATOM      8  C   UNL     1       1.612   0.113   5.390  0.00  0.00    +0.101 C 
ATOM      9  C   UNL     1       1.848   0.894   6.685  0.00  0.00    +0.124 C 
ATOM     10  C   UNL     1       2.341  -0.121   7.711  0.00  0.00    -0.036 C 
ATOM     11  C   UNL     1       1.540  -0.011   8.761  0.00  0.00    +0.003 A 
ATOM     12  C   UNL     1       1.557  -0.655  10.084  0.00  0.00    +0.055 A 
ATOM     13  C   UNL     1       0.554  -0.318  10.941  0.00  0.00    +0.121 A 
ATOM     14  C   UNL     1      -0.469   0.590  10.631  0.00  0.00    +0.047 A 
ATOM     15  C   UNL     1      -0.578   1.244   9.447  0.00  0.00    +0.029 A 
ATOM     16  C   UNL     1       0.454   0.966   8.438  0.00  0.00    +0.043 A 
ATOM     17  N   UNL     1       0.617   1.465   7.230  0.00  0.00    -0.376 N 
ATOM     18  C   UNL     1       3.472  -1.071   7.404  0.00  0.00    +0.048 C 
ATOM     19  C   UNL     1       3.157  -1.683   6.026  0.00  0.00    +0.085 C 
ATOM     20  N   UNL     1       2.843  -0.624   5.063  0.00  0.00    -0.310 NA
ATOM     21  H   UNL     1       2.807  -0.989   4.123  0.00  0.00    +0.122 HD
ATOM     22  H   UNL     1       0.032   2.091   6.775  0.00  0.00    +0.160 HD
BRANCH  13  23
ATOM     23  O   UNL     1       0.543  -0.897  12.170  0.00  0.00    -0.495 OA
ATOM     24  C   UNL     1      -0.519  -0.528  13.052  0.00  0.00    +0.277 C 
ENDBRANCH  13  23
ENDBRANCH   5   8
BRANCH   1  31
ATOM     25  C   UNL     1       2.869   4.059   1.342  0.00  0.00    +0.045 C 
ATOM     26  C   UNL     1       4.198   3.774   1.992  0.00  0.00    -0.029 A 
ATOM     27  C   UNL     1       5.257   4.643   1.809  0.00  0.00    +0.006 A 
ATOM     28  C   UNL     1       6.477   4.383   2.405  0.00  0.00    +0.020 A 
ATOM     29  C   UNL     1       6.642   3.253   3.187  0.00  0.00    +0.043 A 
ATOM     30  C   UNL     1       5.586   2.381   3.373  0.00  0.00    +0.044 A 
ATOM     31  C   UNL     1       4.358   2.642   2.780  0.00  0.00    +0.045 A 
ATOM     32 CL   UNL     1       8.176   2.931   3.933  0.00  0.00    -0.083 Cl
ENDBRANCH   1  31
BRANCH   4  33
ATOM     33  O   UNL     1      -0.296  -0.238   2.918  0.00  0.00    -0.495 OA
ATOM     34  H   UNL     1      -0.445  -0.725   2.096  0.00  0.00    +0.293 HD
ENDBRANCH   4  33
BRANCH   2  35
ATOM     35  O   UNL     1       3.418   1.109   0.721  0.00  0.00    -0.356 OA
ATOM     36  H   UNL     1       3.327   0.427   0.042  0.00  0.00    +0.214 HD
ENDBRANCH   2  35
TORSDOF 5
