REMARK  Name = ZINC57572289
REMARK  8 active torsions:
REMARK  status: ('A' for Active; 'I' for Inactive)
REMARK    1  A    between atoms: C_1  and  C_2
REMARK    2  A    between atoms: C_2  and  O_3
REMARK    3  A    between atoms: O_3  and  C_4
REMARK    4  A    between atoms: C_7  and  N_10
REMARK    5  A    between atoms: N_10  and  C_11
REMARK    6  A    between atoms: C_11  and  C_13
REMARK    7  A    between atoms: C_11  and  C_17
REMARK    8  A    between atoms: C_13  and  N_14
REMARK                            x       y       z     vdW  Elec       q    Type
REMARK                         _______ _______ _______ _____ _____    ______ ____
ROOT
ATOM      1  N   UNL     1      -1.908  -6.254  -0.006  0.00  0.00    -0.333 N 
ATOM      2  H   UNL     1      -1.182  -6.890  -0.102  0.00  0.00    +0.147 HD
ENDROOT
BRANCH   1   6
ATOM      3  C   UNL     1      -1.097  -2.167   0.112  0.00  0.00    +0.121 A 
ATOM      4  C   UNL     1      -0.053  -3.081   0.111  0.00  0.00    +0.047 A 
ATOM      5  C   UNL     1      -0.321  -4.435   0.072  0.00  0.00    +0.026 A 
ATOM      6  C   UNL     1      -1.636  -4.882   0.034  0.00  0.00    +0.028 A 
ATOM      7  C   UNL     1      -2.679  -3.966   0.035  0.00  0.00    +0.026 A 
ATOM      8  C   UNL     1      -2.410  -2.612   0.080  0.00  0.00    +0.047 A 
BRANCH   3   9
ATOM      9  O   UNL     1      -0.832  -0.833   0.151  0.00  0.00    -0.492 OA
BRANCH   9  11
ATOM     10  C   UNL     1       0.642   1.081   0.224  0.00  0.00    +0.048 C 
ATOM     11  C   UNL     1       0.543  -0.446   0.183  0.00  0.00    +0.225 C 
ENDBRANCH   9  11
ENDBRANCH   3   9
ENDBRANCH   1   6
BRANCH   1  12
ATOM     12  C   UNL     1      -3.290  -6.730   0.097  0.00  0.00    +0.163 C 
BRANCH  12  13
ATOM     13  C   UNL     1      -3.300  -8.123   0.672  0.00  0.00    +0.127 A 
ATOM     14  C   UNL     1      -4.186  -8.598   1.565  0.00  0.00    +0.046 A 
ATOM     15  C   UNL     1      -3.824  -9.940   1.826  0.00  0.00    +0.041 A 
ATOM     16  C   UNL     1      -2.738 -10.204   1.077  0.00  0.00    +0.195 A 
ATOM     17  O   UNL     1      -2.428  -9.101   0.376  0.00  0.00    -0.466 OA
ENDBRANCH  12  13
BRANCH  12  18
ATOM     18  C   UNL     1      -3.928  -6.748  -1.294  0.00  0.00    +0.241 C 
BRANCH  18  19
ATOM     19  N   UNL     1      -5.345  -7.099  -1.176  0.00  0.00    +0.025 N 
ATOM     20  O   UNL     1      -6.035  -6.559  -0.342  0.00  0.00    -0.132 OA
ATOM     21  O   UNL     1      -5.826  -7.928  -1.913  0.00  0.00    -0.132 OA
ENDBRANCH  18  19
ENDBRANCH  12  18
ENDBRANCH   1  12
TORSDOF 7
