REMARK  Name = ZINC32123068
REMARK  7 active torsions:
REMARK  status: ('A' for Active; 'I' for Inactive)
REMARK    1  A    between atoms: C_1  and  C_2
REMARK    2  A    between atoms: C_4  and  C_21
REMARK    3  A    between atoms: C_6  and  O_8
REMARK    4  A    between atoms: O_8  and  C_9
REMARK    5  A    between atoms: C_9  and  C_11
REMARK    6  A    between atoms: C_9  and  C_12
REMARK    7  A    between atoms: C_17  and  O_20
REMARK                            x       y       z     vdW  Elec       q    Type
REMARK                         _______ _______ _______ _____ _____    ______ ____
ROOT
ATOM      1  C   UNL     1       0.000  -0.011   0.000  0.00  0.00    +0.256 C 
ATOM      2  C   UNL     1       0.198   1.499  -0.139  0.00  0.00    +0.062 C 
ENDROOT
BRANCH   1   3
ATOM      3  C   UNL     1      -1.469  -0.316   0.137  0.00  0.00    +0.256 C 
ATOM      4  O   UNL     1      -1.896  -0.793   1.167  0.00  0.00    -0.272 OA
ATOM      5  N   UNL     1      -2.309  -0.057  -0.885  0.00  0.00    -0.298 N 
ATOM      6  C   UNL     1      -1.808   0.528  -2.136  0.00  0.00    +0.110 C 
ATOM      7  C   UNL     1      -2.253  -0.364  -3.305  0.00  0.00    +0.050 C 
ATOM      8  C   UNL     1      -3.773  -0.537  -3.257  0.00  0.00    +0.118 C 
ATOM      9  C   UNL     1      -4.169  -1.225  -1.948  0.00  0.00    +0.050 C 
ATOM     10  C   UNL     1      -3.744  -0.348  -0.766  0.00  0.00    +0.110 C 
BRANCH   8  11
ATOM     11  O   UNL     1      -4.196  -1.337  -4.362  0.00  0.00    -0.392 OA
ATOM     12  H   UNL     1      -5.263  -1.571  -4.496  0.00  0.00    +0.210 HD
ENDBRANCH   8  11
ENDBRANCH   1   3
BRANCH   1  13
ATOM     13  O   UNL     1       0.693  -0.477   1.160  0.00  0.00    -0.480 OA
BRANCH  13  19
ATOM     14  C   UNL     1       4.697  -0.497  -1.631  0.00  0.00    +0.044 C 
ATOM     15  C   UNL     1       3.999  -0.788  -0.328  0.00  0.00    -0.047 A 
ATOM     16  C   UNL     1       4.702  -1.347   0.723  0.00  0.00    +0.007 A 
ATOM     17  C   UNL     1       4.064  -1.615   1.920  0.00  0.00    -0.047 A 
ATOM     18  C   UNL     1       2.722  -1.325   2.068  0.00  0.00    +0.049 A 
ATOM     19  C   UNL     1       2.014  -0.764   1.016  0.00  0.00    +0.122 A 
ATOM     20  C   UNL     1       2.655  -0.501  -0.186  0.00  0.00    +0.049 A 
ATOM     21  C   UNL     1       4.834  -2.225   3.063  0.00  0.00    +0.044 C 
ENDBRANCH  13  19
ENDBRANCH   1  13
TORSDOF 4
