REMARK  Name = ZINC43464101
REMARK  2 active torsions:
REMARK  status: ('A' for Active; 'I' for Inactive)
REMARK    1  A    between atoms: C_6  and  C_7
REMARK    2  A    between atoms: C_17  and  C_18
REMARK                            x       y       z     vdW  Elec       q    Type
REMARK                         _______ _______ _______ _____ _____    ______ ____
ROOT
ATOM      1  C   UNL     1      -1.260  -0.760   0.011  0.00  0.00    +0.014 C 
ATOM      2  C   UNL     1      -1.241  -2.105  -0.099  0.00  0.00    -0.009 C 
ATOM      3  C   UNL     1       0.061  -2.882  -0.113  0.00  0.00    +0.118 C 
ATOM      4  N   UNL     1      -0.058  -3.926  -1.145  0.00  0.00    -0.308 NA
ATOM      5  C   UNL     1      -1.095  -4.902  -0.799  0.00  0.00    +0.120 C 
ATOM      6  C   UNL     1      -2.413  -4.227  -0.549  0.00  0.00    +0.020 A 
ATOM      7  C   UNL     1      -2.479  -2.882  -0.203  0.00  0.00    +0.054 A 
ATOM      8  N   UNL     1      -3.698  -2.304   0.029  0.00  0.00    -0.306 N 
ATOM      9  C   UNL     1      -4.816  -3.050  -0.081  0.00  0.00    +0.347 A 
ATOM     10  N   UNL     1      -4.755  -4.339  -0.411  0.00  0.00    -0.189 NA
ATOM     11  C   UNL     1      -3.601  -4.942  -0.654  0.00  0.00    +0.155 A 
ATOM     12  O   UNL     1      -5.903  -2.535   0.125  0.00  0.00    -0.245 OA
ATOM     13  H   UNL     1      -0.232  -3.520  -2.052  0.00  0.00    +0.123 HD
ATOM     14  H   UNL     1      -3.757  -1.366   0.271  0.00  0.00    +0.170 HD
ENDROOT
BRANCH   1  20
ATOM     15  C   UNL     1       0.174   1.257  -0.239  0.00  0.00    +0.011 A 
ATOM     16  C   UNL     1       1.343   1.939   0.019  0.00  0.00    +0.039 A 
ATOM     17  C   UNL     1       2.333   1.354   0.795  0.00  0.00    +0.123 A 
ATOM     18  C   UNL     1       2.154   0.081   1.315  0.00  0.00    +0.039 A 
ATOM     19  C   UNL     1       0.989  -0.612   1.064  0.00  0.00    +0.011 A 
ATOM     20  C   UNL     1      -0.014  -0.027   0.282  0.00  0.00    -0.024 A 
ATOM     21  F   UNL     1       3.477   2.027   1.045  0.00  0.00    -0.205 F 
ENDBRANCH   1  20
BRANCH  11  22
ATOM     22  C   UNL     1      -3.573  -6.403  -1.023  0.00  0.00    +0.435 C 
ATOM     23  F   UNL     1      -4.880  -6.899  -1.065  0.00  0.00    -0.164 F 
ATOM     24  F   UNL     1      -2.976  -6.555  -2.279  0.00  0.00    -0.164 F 
ATOM     25  F   UNL     1      -2.836  -7.111  -0.068  0.00  0.00    -0.164 F 
ENDBRANCH  11  22
TORSDOF 2
