REMARK  Name = ZINC09630066
REMARK  9 active torsions:
REMARK  status: ('A' for Active; 'I' for Inactive)
REMARK    1  A    between atoms: C_1  and  C_2
REMARK    2  A    between atoms: C_2  and  N_50
REMARK    3  A    between atoms: C_8  and  N_14
REMARK    4  A    between atoms: C_9  and  C_10
REMARK    5  A    between atoms: C_10  and  O_12
REMARK    6  A    between atoms: O_12  and  C_13
REMARK    7  A    between atoms: C_15  and  C_17
REMARK    8  A    between atoms: C_17  and  S_18
REMARK    9  A    between atoms: S_18  and  C_21
REMARK                            x       y       z     vdW  Elec       q    Type
REMARK                         _______ _______ _______ _____ _____    ______ ____
ROOT
ATOM      1  C   UNL     1       4.581   5.500   0.426  0.00  0.00    -0.074 C 
ATOM      2  C   UNL     1       3.114   5.395   0.001  0.00  0.00    +0.018 C 
ATOM      3  C   UNL     1       2.724   3.921  -0.004  0.00  0.00    -0.025 A 
ATOM      4  C   UNL     1       3.682   2.967  -0.019  0.00  0.00    -0.021 A 
ATOM      5  S   UNL     1       2.795   1.437  -0.018  0.00  0.00    -0.079 S 
ATOM      6  C   UNL     1       1.175   2.053   0.002  0.00  0.00    +0.086 A 
ATOM      7  C   UNL     1       1.359   3.430   0.002  0.00  0.00    +0.091 A 
ATOM      8  C   UNL     1       5.162   3.193  -0.034  0.00  0.00    -0.035 C 
ATOM      9  N   UNL     1       5.401   4.605  -0.417  0.00  0.00    +0.383 N 
ATOM     10  H   UNL     1       5.133   4.735  -1.400  0.00  0.00    -0.081 HD
ENDROOT
BRANCH   6  11
ATOM     11  N   UNL     1      -0.016   1.344   0.009  0.00  0.00    -0.278 N 
ATOM     12  C   UNL     1       0.002  -0.004   0.002  0.00  0.00    +0.239 C 
ATOM     13  O   UNL     1       1.060  -0.596  -0.011  0.00  0.00    -0.274 OA
ATOM     14  H   UNL     1      -0.863   1.817   0.016  0.00  0.00    +0.155 HD
BRANCH  12  15
ATOM     15  C   UNL     1      -1.293  -0.775   0.010  0.00  0.00    +0.267 C 
BRANCH  15  16
ATOM     16  S   UNL     1      -0.937  -2.554  -0.003  0.00  0.00    +0.005 S 
ATOM     17  O   UNL     1      -0.357  -2.928  -1.245  0.00  0.00    -0.169 OA
ATOM     18  O   UNL     1      -0.334  -2.942   1.224  0.00  0.00    -0.169 OA
BRANCH  16  19
ATOM     19  C   UNL     1      -2.518  -3.332   0.008  0.00  0.00    +0.089 A 
ATOM     20  C   UNL     1      -3.124  -3.648   1.210  0.00  0.00    +0.030 A 
ATOM     21  C   UNL     1      -4.366  -4.254   1.220  0.00  0.00    +0.040 A 
ATOM     22  C   UNL     1      -4.999  -4.554   0.025  0.00  0.00    +0.124 A 
ATOM     23  C   UNL     1      -4.389  -4.241  -1.178  0.00  0.00    +0.040 A 
ATOM     24  C   UNL     1      -3.149  -3.630  -1.185  0.00  0.00    +0.030 A 
ATOM     25  F   UNL     1      -6.211  -5.150   0.034  0.00  0.00    -0.205 F 
ENDBRANCH  16  19
ENDBRANCH  15  16
ENDBRANCH  12  15
ENDBRANCH   6  11
BRANCH   9  27
ATOM     26  C   UNL     1       7.244   4.856   1.210  0.00  0.00    -0.017 C 
ATOM     27  C   UNL     1       6.834   4.936  -0.262  0.00  0.00    -0.082 C 
ENDBRANCH   9  27
BRANCH   7  28
ATOM     28  C   UNL     1       0.220   4.350   0.010  0.00  0.00    +0.342 C 
ATOM     29  O   UNL     1      -0.246   4.732   1.067  0.00  0.00    -0.245 OA
BRANCH  28  30
ATOM     30  O   UNL     1      -0.313   4.774  -1.154  0.00  0.00    -0.464 OA
ATOM     31  C   UNL     1      -1.441   5.685  -1.069  0.00  0.00    +0.280 C 
ENDBRANCH  28  30
ENDBRANCH   7  28
TORSDOF 7
