REMARK  Name = ZINC59016998
REMARK  9 active torsions:
REMARK  status: ('A' for Active; 'I' for Inactive)
REMARK    1  A    between atoms: C_6  and  C_7
REMARK    2  A    between atoms: C_7  and  C_8
REMARK    3  A    between atoms: C_8  and  N_9
REMARK    4  A    between atoms: C_10  and  C_12
REMARK    5  A    between atoms: C_12  and  S_13
REMARK    6  A    between atoms: S_13  and  C_14
REMARK    7  A    between atoms: N_19  and  N_20
REMARK    8  A    between atoms: C_21  and  C_22
REMARK    9  A    between atoms: C_27  and  O_28
REMARK                            x       y       z     vdW  Elec       q    Type
REMARK                         _______ _______ _______ _____ _____    ______ ____
ROOT
ATOM      1  C   UNL     1      -6.931  -4.085  -4.104  0.00  0.00    +0.211 A 
ATOM      2  N   UNL     1      -7.692  -4.533  -5.108  0.00  0.00    -0.186 NA
ATOM      3  C   UNL     1      -8.742  -5.162  -4.622  0.00  0.00    +0.232 A 
ATOM      4  N   UNL     1      -8.664  -5.123  -3.275  0.00  0.00    -0.245 N 
ATOM      5  N   UNL     1      -7.484  -4.428  -2.964  0.00  0.00    -0.144 NA
ATOM      6  N   UNL     1      -9.748  -5.757  -5.361  0.00  0.00    -0.205 N 
ATOM      7  H   UNL     1     -10.484  -6.198  -4.910  0.00  0.00    +0.177 HD
ATOM      8  H   UNL     1      -9.297  -5.503  -2.645  0.00  0.00    +0.192 HD
ENDROOT
BRANCH   6   9
ATOM      9  N   UNL     1      -9.702  -5.722  -6.761  0.00  0.00    -0.187 NA
ATOM     10  C   UNL     1     -10.647  -6.280  -7.455  0.00  0.00    +0.142 C 
BRANCH  10  11
ATOM     11  C   UNL     1     -10.599  -6.243  -8.928  0.00  0.00    +0.037 A 
ATOM     12  C   UNL     1     -11.616  -6.838  -9.678  0.00  0.00    +0.028 A 
ATOM     13  C   UNL     1     -11.565  -6.799 -11.057  0.00  0.00    +0.019 A 
ATOM     14  C   UNL     1     -10.510  -6.173 -11.699  0.00  0.00    +0.019 A 
ATOM     15  C   UNL     1      -9.498  -5.582 -10.967  0.00  0.00    +0.047 A 
ATOM     16  C   UNL     1      -9.536  -5.606  -9.582  0.00  0.00    +0.126 A 
ATOM     17 BR   UNL     1     -12.942  -7.605 -12.072  0.00  0.00    -0.050 Br
BRANCH  16  18
ATOM     18  O   UNL     1      -8.545  -5.020  -8.862  0.00  0.00    -0.506 OA
ATOM     19  H   UNL     1      -7.806  -5.609  -8.659  0.00  0.00    +0.292 HD
ENDBRANCH  16  18
ENDBRANCH  10  11
ENDBRANCH   6   9
BRANCH   1  20
ATOM     20  S   UNL     1      -5.426  -3.187  -4.282  0.00  0.00    -0.075 S 
BRANCH  20  21
ATOM     21  C   UNL     1      -4.889  -2.887  -2.575  0.00  0.00    +0.173 C 
BRANCH  21  23
ATOM     22  N   UNL     1      -3.004  -1.778  -1.420  0.00  0.00    -0.314 N 
ATOM     23  C   UNL     1      -3.595  -2.116  -2.584  0.00  0.00    +0.223 C 
ATOM     24  O   UNL     1      -3.084  -1.800  -3.637  0.00  0.00    -0.275 OA
ATOM     25  H   UNL     1      -3.413  -2.030  -0.578  0.00  0.00    +0.149 HD
BRANCH  22  26
ATOM     26  C   UNL     1      -1.745  -1.028  -1.429  0.00  0.00    +0.109 C 
BRANCH  26  27
ATOM     27  C   UNL     1      -1.293  -0.775   0.011  0.00  0.00    +0.054 C 
BRANCH  27  33
ATOM     28  C   UNL     1      -0.017   1.378   0.010  0.00  0.00    +0.005 A 
ATOM     29  C   UNL     1       1.171   2.086   0.002  0.00  0.00    +0.020 A 
ATOM     30  C   UNL     1       2.378   1.410  -0.013  0.00  0.00    +0.041 A 
ATOM     31  C   UNL     1       2.396   0.027  -0.021  0.00  0.00    +0.020 A 
ATOM     32  C   UNL     1       1.208  -0.679  -0.013  0.00  0.00    +0.005 A 
ATOM     33  C   UNL     1       0.002  -0.004   0.002  0.00  0.00    -0.046 A 
ATOM     34 CL   UNL     1       3.870   2.298  -0.023  0.00  0.00    -0.084 Cl
ENDBRANCH  27  33
ENDBRANCH  26  27
ENDBRANCH  22  26
ENDBRANCH  21  23
ENDBRANCH  20  21
ENDBRANCH   1  20
TORSDOF 9
