REMARK  Name = ZINC61473905
REMARK  4 active torsions:
REMARK  status: ('A' for Active; 'I' for Inactive)
REMARK    1  A    between atoms: C_3  and  C_9
REMARK    2  A    between atoms: C_6  and  C_7
REMARK    3  A    between atoms: N_11  and  N_12
REMARK    4  A    between atoms: C_13  and  C_15
REMARK                            x       y       z     vdW  Elec       q    Type
REMARK                         _______ _______ _______ _____ _____    ______ ____
ROOT
ATOM      1  C   UNL     1       3.656   2.173  -0.021  0.00  0.00    +0.260 C 
ATOM      2  O   UNL     1       3.639   3.388  -0.015  0.00  0.00    -0.269 OA
ATOM      3  N   UNL     1       4.832   1.515  -0.036  0.00  0.00    -0.230 N 
ATOM      4  H   UNL     1       4.845   0.545  -0.041  0.00  0.00    +0.173 HD
ENDROOT
BRANCH   1   7
ATOM      5  C   UNL     1      -0.017   1.393   0.010  0.00  0.00    +0.019 A 
ATOM      6  C   UNL     1       1.167   2.097   0.002  0.00  0.00    +0.014 A 
ATOM      7  C   UNL     1       2.385   1.416  -0.013  0.00  0.00    +0.038 A 
ATOM      8  C   UNL     1       2.404   0.019  -0.021  0.00  0.00    +0.014 A 
ATOM      9  C   UNL     1       1.221  -0.686  -0.014  0.00  0.00    +0.019 A 
ATOM     10  C   UNL     1       0.002  -0.004   0.002  0.00  0.00    +0.052 A 
BRANCH  10  11
ATOM     11  C   UNL     1      -1.228  -0.737   0.010  0.00  0.00    +0.099 C 
ATOM     12  N   UNL     1      -2.204  -1.318   0.017  0.00  0.00    -0.191 NA
ENDBRANCH  10  11
ENDBRANCH   1   7
BRANCH   3  13
ATOM     13  N   UNL     1       6.035   2.232  -0.044  0.00  0.00    -0.230 N 
ATOM     14  C   UNL     1       7.212   1.574  -0.058  0.00  0.00    +0.260 C 
ATOM     15  O   UNL     1       7.228   0.358  -0.065  0.00  0.00    -0.269 OA
ATOM     16  H   UNL     1       6.022   3.202  -0.038  0.00  0.00    +0.173 HD
BRANCH  14  17
ATOM     17  C   UNL     1       8.481   2.330  -0.066  0.00  0.00    +0.041 A 
ATOM     18  C   UNL     1       8.464   3.727  -0.053  0.00  0.00    +0.016 A 
ATOM     19  C   UNL     1       9.651   4.428  -0.061  0.00  0.00    +0.042 A 
ATOM     20  C   UNL     1      10.860   3.751  -0.082  0.00  0.00    +0.158 A 
ATOM     21  C   UNL     1      10.883   2.363  -0.096  0.00  0.00    +0.159 A 
ATOM     22  C   UNL     1       9.701   1.651  -0.082  0.00  0.00    +0.054 A 
ATOM     23  F   UNL     1      12.065   1.708  -0.117  0.00  0.00    -0.202 F 
ATOM     24  F   UNL     1      12.020   4.444  -0.090  0.00  0.00    -0.202 F 
ENDBRANCH  14  17
ENDBRANCH   3  13
TORSDOF 4
