REMARK  Name = ZINC37786225
REMARK  7 active torsions:
REMARK  status: ('A' for Active; 'I' for Inactive)
REMARK    1  A    between atoms: C_1  and  C_2
REMARK    2  A    between atoms: C_2  and  C_3
REMARK    3  A    between atoms: C_2  and  C_4
REMARK    4  A    between atoms: C_2  and  N_5
REMARK    5  A    between atoms: C_8  and  N_11
REMARK    6  A    between atoms: N_11  and  C_12
REMARK    7  A    between atoms: C_20  and  O_22
REMARK                            x       y       z     vdW  Elec       q    Type
REMARK                         _______ _______ _______ _____ _____    ______ ____
ROOT
ATOM      1  N   UNL     1       2.760  -0.677  -4.877  0.00  0.00    -0.304 NA
ATOM      2  H   UNL     1       3.056  -1.622  -4.683  0.00  0.00    +0.123 HD
ENDROOT
BRANCH   1   3
ATOM      3  C   UNL     1       3.893   0.150  -5.313  0.00  0.00    +0.126 C 
ATOM      4  C   UNL     1       3.439   1.211  -6.344  0.00  0.00    +0.252 C 
ATOM      5  O   UNL     1       3.665   0.551  -7.601  0.00  0.00    -0.490 OA
ATOM      6  C   UNL     1       4.672  -0.354  -7.459  0.00  0.00    +0.129 A 
ATOM      7  C   UNL     1       4.882  -0.668  -6.120  0.00  0.00    +0.015 A 
ATOM      8  C   UNL     1       5.850  -1.576  -5.750  0.00  0.00    +0.012 A 
ATOM      9  C   UNL     1       6.634  -2.184  -6.713  0.00  0.00    +0.046 A 
ATOM     10  C   UNL     1       6.442  -1.875  -8.052  0.00  0.00    +0.120 A 
ATOM     11  C   UNL     1       5.465  -0.964  -8.426  0.00  0.00    +0.091 A 
BRANCH  10  12
ATOM     12  O   UNL     1       7.213  -2.468  -9.001  0.00  0.00    -0.507 OA
ATOM     13  H   UNL     1       6.849  -3.296  -9.343  0.00  0.00    +0.292 HD
ENDBRANCH  10  12
ENDBRANCH   1   3
BRANCH   1  17
ATOM     14  N   UNL     1       0.690  -0.478  -1.207  0.00  0.00    +0.383 N 
ATOM     15  C   UNL     1      -0.026   0.002  -2.395  0.00  0.00    -0.077 C 
ATOM     16  C   UNL     1       0.638  -0.556  -3.655  0.00  0.00    -0.000 C 
ATOM     17  C   UNL     1       2.094  -0.083  -3.709  0.00  0.00    +0.051 C 
ATOM     18  C   UNL     1       2.812  -0.525  -2.431  0.00  0.00    -0.000 C 
ATOM     19  C   UNL     1       2.067   0.031  -1.216  0.00  0.00    -0.077 C 
ATOM     20  H   UNL     1       0.705  -1.487  -1.210  0.00  0.00    -0.081 HD
BRANCH  14  22
ATOM     21  C   UNL     1      -0.019   1.526   0.010  0.00  0.00    -0.010 C 
ATOM     22  C   UNL     1       0.002  -0.004   0.002  0.00  0.00    -0.074 C 
ATOM     23  C   UNL     1       0.742  -0.511   1.242  0.00  0.00    -0.010 C 
ATOM     24  C   UNL     1      -1.433  -0.534   0.013  0.00  0.00    -0.010 C 
ENDBRANCH  14  22
ENDBRANCH   1  17
TORSDOF 4
