REMARK  Name = ZINC46694729
REMARK  12 active torsions:
REMARK  status: ('A' for Active; 'I' for Inactive)
REMARK    1  A    between atoms: C_1  and  C_2
REMARK    2  A    between atoms: C_2  and  C_3
REMARK    3  A    between atoms: N_5  and  C_6
REMARK    4  A    between atoms: C_9  and  C_12
REMARK    5  A    between atoms: C_12  and  C_14
REMARK    6  A    between atoms: C_12  and  N_15
REMARK    7  A    between atoms: N_18  and  N_19
REMARK    8  A    between atoms: C_20  and  O_22
REMARK    9  A    between atoms: O_22  and  C_23
REMARK   10  A    between atoms: C_23  and  C_24
REMARK   11  A    between atoms: C_23  and  C_25
REMARK   12  A    between atoms: C_23  and  C_26
REMARK                            x       y       z     vdW  Elec       q    Type
REMARK                         _______ _______ _______ _____ _____    ______ ____
ROOT
ATOM      1  N   UNL     1       3.185  -4.560  -6.641  0.00  0.00    -0.292 N 
ATOM      2  C   UNL     1       3.383  -4.801  -7.953  0.00  0.00    +0.316 C 
ATOM      3  O   UNL     1       4.111  -4.074  -8.601  0.00  0.00    -0.251 OA
ATOM      4  N   UNL     1       2.775  -5.847  -8.545  0.00  0.00    -0.216 N 
ATOM      5  H   UNL     1       2.604  -5.140  -6.124  0.00  0.00    +0.151 HD
ATOM      6  H   UNL     1       2.917  -6.020  -9.489  0.00  0.00    +0.174 HD
ENDROOT
BRANCH   4   7
ATOM      7  N   UNL     1       1.936  -6.684  -7.798  0.00  0.00    -0.198 N 
ATOM      8  C   UNL     1       1.327  -7.731  -8.391  0.00  0.00    +0.417 C 
ATOM      9  O   UNL     1       0.600  -8.457  -7.744  0.00  0.00    -0.225 OA
ATOM     10  H   UNL     1       1.793  -6.511  -6.855  0.00  0.00    +0.176 HD
BRANCH   8  11
ATOM     11  O   UNL     1       1.525  -7.971  -9.701  0.00  0.00    -0.444 OA
BRANCH  11  12
ATOM     12  C   UNL     1       0.849  -9.097 -10.264  0.00  0.00    +0.107 C 
ATOM     13  C   UNL     1      -0.662  -8.917 -10.103  0.00  0.00    +0.055 C 
ATOM     14  C   UNL     1       1.193  -9.209 -11.750  0.00  0.00    +0.055 C 
ATOM     15  C   UNL     1       1.290 -10.371  -9.540  0.00  0.00    +0.055 C 
ENDBRANCH  11  12
ENDBRANCH   8  11
ENDBRANCH   4   7
BRANCH   1  16
ATOM     16  C   UNL     1       3.847  -3.423  -5.997  0.00  0.00    +0.102 C 
ATOM     17  C   UNL     1       5.254  -3.833  -5.559  0.00  0.00    +0.033 C 
BRANCH  16  21
ATOM     18  C   UNL     1       1.587  -2.209  -2.579  0.00  0.00    +0.033 A 
ATOM     19  C   UNL     1       2.161  -1.255  -3.408  0.00  0.00    +0.023 A 
ATOM     20  C   UNL     1       2.891  -1.650  -4.511  0.00  0.00    +0.007 A 
ATOM     21  C   UNL     1       3.050  -2.995  -4.792  0.00  0.00    -0.027 A 
ATOM     22  C   UNL     1       2.478  -3.948  -3.969  0.00  0.00    +0.007 A 
ATOM     23  C   UNL     1       1.753  -3.559  -2.860  0.00  0.00    +0.023 A 
BRANCH  18  26
ATOM     24  C   UNL     1       0.888  -2.545  -0.330  0.00  0.00    +0.217 C 
ATOM     25  O   UNL     1       1.498  -3.593  -0.308  0.00  0.00    -0.275 OA
ATOM     26  N   UNL     1       0.847  -1.812  -1.460  0.00  0.00    -0.286 N 
ATOM     27  H   UNL     1       0.304  -1.009  -1.497  0.00  0.00    +0.155 HD
BRANCH  24  29
ATOM     28  C   UNL     1       0.379  -3.073   2.039  0.00  0.00    +0.013 C 
ATOM     29  C   UNL     1       0.175  -2.063   0.908  0.00  0.00    +0.093 C 
ENDBRANCH  24  29
ENDBRANCH  18  26
ENDBRANCH  16  21
ENDBRANCH   1  16
TORSDOF 7
