REMARK  Name = ZINC46338607
REMARK  9 active torsions:
REMARK  status: ('A' for Active; 'I' for Inactive)
REMARK    1  A    between atoms: C_1  and  C_2
REMARK    2  A    between atoms: C_4  and  C_8
REMARK    3  A    between atoms: C_5  and  C_7
REMARK    4  A    between atoms: N_10  and  N_11
REMARK    5  A    between atoms: N_14  and  C_15
REMARK    6  A    between atoms: C_15  and  C_16
REMARK    7  A    between atoms: C_16  and  C_18
REMARK    8  A    between atoms: C_16  and  N_19
REMARK    9  A    between atoms: C_24  and  C_26
REMARK                            x       y       z     vdW  Elec       q    Type
REMARK                         _______ _______ _______ _____ _____    ______ ____
ROOT
ATOM      1  N   UNL     1      -4.577  -5.094  -0.129  0.00  0.00    -0.218 N 
ATOM      2  C   UNL     1      -5.778  -4.628   0.266  0.00  0.00    +0.316 C 
ATOM      3  O   UNL     1      -6.558  -5.364   0.839  0.00  0.00    -0.251 OA
ATOM      4  N   UNL     1      -6.115  -3.345   0.026  0.00  0.00    -0.300 N 
ATOM      5  H   UNL     1      -4.334  -6.018   0.044  0.00  0.00    +0.174 HD
ATOM      6  H   UNL     1      -5.492  -2.757  -0.430  0.00  0.00    +0.150 HD
ENDROOT
BRANCH   1   9
ATOM      7  C   UNL     1      -2.477  -4.712  -1.183  0.00  0.00    +0.263 C 
ATOM      8  O   UNL     1      -2.173  -5.870  -0.967  0.00  0.00    -0.269 OA
ATOM      9  N   UNL     1      -3.678  -4.246  -0.788  0.00  0.00    -0.229 N 
ATOM     10  H   UNL     1      -3.920  -3.323  -0.961  0.00  0.00    +0.173 HD
BRANCH   7  14
ATOM     11  C   UNL     1      -0.348  -0.627  -3.376  0.00  0.00    +0.086 C 
ATOM     12  C   UNL     1      -0.610  -2.010  -2.838  0.00  0.00    +0.103 A 
ATOM     13  C   UNL     1      -1.733  -2.404  -2.217  0.00  0.00    +0.057 A 
ATOM     14  C   UNL     1      -1.531  -3.820  -1.877  0.00  0.00    +0.079 A 
ATOM     15  C   UNL     1      -0.286  -4.135  -2.337  0.00  0.00    +0.114 A 
ATOM     16  O   UNL     1       0.239  -3.047  -2.910  0.00  0.00    -0.464 OA
ATOM     17  C   UNL     1       0.380  -5.482  -2.226  0.00  0.00    +0.087 C 
ENDBRANCH   7  14
ENDBRANCH   1   9
BRANCH   4  18
ATOM     18  C   UNL     1      -7.420  -2.838   0.456  0.00  0.00    +0.090 C 
BRANCH  18  19
ATOM     19  C   UNL     1      -7.478  -1.325   0.234  0.00  0.00    -0.054 C 
ATOM     20  C   UNL     1      -8.908  -0.830   0.462  0.00  0.00    -0.012 C 
BRANCH  19  21
ATOM     21  N   UNL     1      -6.573  -0.657   1.179  0.00  0.00    +0.384 N 
ATOM     22  C   UNL     1      -6.870  -1.111   2.543  0.00  0.00    -0.078 C 
ATOM     23  C   UNL     1      -5.985  -0.358   3.539  0.00  0.00    -0.019 C 
ATOM     24  C   UNL     1      -4.514  -0.635   3.217  0.00  0.00    -0.003 C 
ATOM     25  C   UNL     1      -4.233  -0.227   1.768  0.00  0.00    -0.016 C 
ATOM     26  C   UNL     1      -5.183  -0.984   0.837  0.00  0.00    -0.071 C 
ATOM     27  C   UNL     1      -4.906  -0.580  -0.612  0.00  0.00    -0.013 C 
ATOM     28  H   UNL     1      -6.706   0.341   1.122  0.00  0.00    -0.081 HD
ENDBRANCH  19  21
ENDBRANCH  18  19
ENDBRANCH   4  18
TORSDOF 5
