REMARK  Name = ZINC14146913
REMARK  10 active torsions:
REMARK  status: ('A' for Active; 'I' for Inactive)
REMARK    1  A    between atoms: C_1  and  C_2
REMARK    2  A    between atoms: C_2  and  C_4
REMARK    3  A    between atoms: C_2  and  N_10
REMARK    4  A    between atoms: C_11  and  C_13
REMARK    5  A    between atoms: C_18  and  N_19
REMARK    6  A    between atoms: C_20  and  C_22
REMARK    7  A    between atoms: C_22  and  O_23
REMARK    8  A    between atoms: O_23  and  C_24
REMARK    9  A    between atoms: C_24  and  C_26
REMARK   10  A    between atoms: C_26  and  O_32
REMARK                            x       y       z     vdW  Elec       q    Type
REMARK                         _______ _______ _______ _____ _____    ______ ____
ROOT
ATOM      1  C   UNL     1       3.365  -4.272  -5.879  0.00  0.00    +0.058 A 
ATOM      2  C   UNL     1       3.168  -5.609  -6.229  0.00  0.00    +0.015 A 
ATOM      3  C   UNL     1       2.279  -6.383  -5.514  0.00  0.00    +0.001 A 
ATOM      4  C   UNL     1       1.580  -5.840  -4.448  0.00  0.00    +0.002 A 
ATOM      5  C   UNL     1       1.768  -4.521  -4.087  0.00  0.00    +0.024 A 
ATOM      6  C   UNL     1       2.656  -3.726  -4.799  0.00  0.00    +0.046 A 
ENDROOT
BRANCH   1   8
ATOM      7  N   UNL     1       4.912  -3.933  -7.743  0.00  0.00    -0.305 N 
ATOM      8  C   UNL     1       4.315  -3.438  -6.641  0.00  0.00    +0.246 C 
ATOM      9  O   UNL     1       4.559  -2.305  -6.274  0.00  0.00    -0.270 OA
ATOM     10  H   UNL     1       4.718  -4.837  -8.035  0.00  0.00    +0.150 HD
BRANCH   7  12
ATOM     11  C   UNL     1       7.247  -3.216  -7.873  0.00  0.00    +0.033 C 
ATOM     12  C   UNL     1       5.855  -3.105  -8.499  0.00  0.00    +0.100 C 
BRANCH  12  13
ATOM     13  C   UNL     1       5.907  -3.581  -9.928  0.00  0.00    -0.027 A 
ATOM     14  C   UNL     1       5.892  -4.935 -10.207  0.00  0.00    +0.005 A 
ATOM     15  C   UNL     1       5.935  -5.371 -11.518  0.00  0.00    +0.000 A 
ATOM     16  C   UNL     1       6.003  -4.454 -12.550  0.00  0.00    +0.000 A 
ATOM     17  C   UNL     1       6.023  -3.100 -12.271  0.00  0.00    +0.000 A 
ATOM     18  C   UNL     1       5.976  -2.664 -10.960  0.00  0.00    +0.005 A 
ENDBRANCH  12  13
ENDBRANCH   7  12
ENDBRANCH   1   8
BRANCH   6  19
ATOM     19  N   UNL     1       2.845  -2.393  -4.440  0.00  0.00    -0.282 N 
ATOM     20  C   UNL     1       2.804  -2.033  -3.142  0.00  0.00    +0.255 C 
ATOM     21  O   UNL     1       2.523  -2.853  -2.294  0.00  0.00    -0.272 OA
ATOM     22  H   UNL     1       3.005  -1.724  -5.124  0.00  0.00    +0.155 HD
BRANCH  20  23
ATOM     23  C   UNL     1       3.106  -0.611  -2.744  0.00  0.00    +0.328 C 
BRANCH  23  24
ATOM     24  O   UNL     1       2.997  -0.478  -1.303  0.00  0.00    -0.453 OA
BRANCH  24  25
ATOM     25  C   UNL     1       3.237   0.736  -0.783  0.00  0.00    +0.340 C 
ATOM     26  O   UNL     1       3.530   1.657  -1.509  0.00  0.00    -0.248 OA
BRANCH  25  27
ATOM     27  C   UNL     1       3.143   0.951   0.706  0.00  0.00    +0.162 C 
ATOM     28  C   UNL     1       4.471   0.568   1.361  0.00  0.00    +0.046 C 
ATOM     29  C   UNL     1       4.375   0.786   2.873  0.00  0.00    +0.003 C 
ATOM     30  C   UNL     1       4.071   2.258   3.158  0.00  0.00    +0.000 C 
ATOM     31  C   UNL     1       2.743   2.641   2.502  0.00  0.00    +0.003 C 
ATOM     32  C   UNL     1       2.839   2.423   0.990  0.00  0.00    +0.046 C 
BRANCH  27  33
ATOM     33  O   UNL     1       2.097   0.137   1.239  0.00  0.00    -0.377 OA
ATOM     34  H   UNL     1       2.223  -0.811   1.095  0.00  0.00    +0.211 HD
ENDBRANCH  27  33
ENDBRANCH  25  27
ENDBRANCH  24  25
ENDBRANCH  23  24
ENDBRANCH  20  23
ENDBRANCH   6  19
TORSDOF 9
