REMARK  Name = ZINC02962203
REMARK  15 active torsions:
REMARK  status: ('A' for Active; 'I' for Inactive)
REMARK    1  A    between atoms: C_1  and  C_2
REMARK    2  A    between atoms: C_2  and  O_3
REMARK    3  A    between atoms: O_3  and  C_4
REMARK    4  A    between atoms: C_4  and  C_5
REMARK    5  A    between atoms: C_4  and  O_33
REMARK    6  A    between atoms: C_5  and  C_6
REMARK    7  A    between atoms: C_6  and  N_7
REMARK    8  A    between atoms: C_20  and  S_21
REMARK    9  A    between atoms: S_21  and  C_22
REMARK   10  A    between atoms: C_22  and  C_23
REMARK   11  A    between atoms: C_23  and  C_25
REMARK   12  A    between atoms: C_28  and  O_32
REMARK   13  A    between atoms: C_29  and  O_31
REMARK   14  A    between atoms: O_33  and  C_34
REMARK   15  A    between atoms: C_34  and  C_35
REMARK                            x       y       z     vdW  Elec       q    Type
REMARK                         _______ _______ _______ _____ _____    ______ ____
ROOT
ATOM      1  N   UNL     1      -0.835   1.912   2.699  0.00  0.00    -0.287 N 
ATOM      2  C   UNL     1      -0.995   0.759   3.391  0.00  0.00    +0.269 A 
ATOM      3  O   UNL     1      -1.602  -0.182   2.907  0.00  0.00    -0.266 OA
ATOM      4  C   UNL     1      -0.442   0.674   4.672  0.00  0.00    +0.103 A 
ATOM      5  C   UNL     1       0.249   1.745   5.237  0.00  0.00    +0.094 A 
ATOM      6  C   UNL     1       0.778   1.530   6.597  0.00  0.00    +0.015 A 
ATOM      7  C   UNL     1       1.508   2.445   7.389  0.00  0.00    +0.011 A 
ATOM      8  C   UNL     1       1.933   2.102   8.635  0.00  0.00    +0.001 A 
ATOM      9  C   UNL     1       1.667   0.849   9.171  0.00  0.00    +0.001 A 
ATOM     10  C   UNL     1       0.957  -0.072   8.427  0.00  0.00    +0.016 A 
ATOM     11  C   UNL     1       0.521   0.268   7.160  0.00  0.00    +0.022 A 
ATOM     12  S   UNL     1      -0.396  -0.595   5.910  0.00  0.00    -0.081 S 
ATOM     13  N   UNL     1       0.360   2.868   4.476  0.00  0.00    -0.222 NA
ATOM     14  C   UNL     1      -0.154   2.944   3.276  0.00  0.00    +0.173 A 
ENDROOT
BRANCH   1  15
ATOM     15  C   UNL     1      -1.391   2.051   1.351  0.00  0.00    +0.132 C 
BRANCH  15  16
ATOM     16  C   UNL     1      -0.352   1.600   0.322  0.00  0.00    +0.083 C 
BRANCH  16  17
ATOM     17  C   UNL     1      -0.933   1.745  -1.086  0.00  0.00    +0.252 C 
BRANCH  17  18
ATOM     18  O   UNL     1       0.074   1.435  -2.051  0.00  0.00    -0.352 OA
BRANCH  18  20
ATOM     19  C   UNL     1       0.969   1.625  -4.288  0.00  0.00    +0.034 C 
ATOM     20  C   UNL     1      -0.070   2.136  -3.288  0.00  0.00    +0.159 C 
ENDBRANCH  18  20
ENDBRANCH  17  18
BRANCH  17  21
ATOM     21  O   UNL     1      -2.034   0.848  -1.242  0.00  0.00    -0.352 OA
BRANCH  21  22
ATOM     22  C   UNL     1      -2.841   1.113  -2.392  0.00  0.00    +0.159 C 
ATOM     23  C   UNL     1      -4.074   0.207  -2.369  0.00  0.00    +0.034 C 
ENDBRANCH  21  22
ENDBRANCH  17  21
ENDBRANCH  16  17
ENDBRANCH  15  16
ENDBRANCH   1  15
BRANCH  14  24
ATOM     24  S   UNL     1       0.041   4.441   2.366  0.00  0.00    -0.080 S 
BRANCH  24  25
ATOM     25  C   UNL     1       0.982   5.417   3.565  0.00  0.00    +0.157 C 
BRANCH  25  26
ATOM     26  C   UNL     1       1.272   6.779   2.987  0.00  0.00    +0.173 C 
ATOM     27  O   UNL     1       0.881   7.061   1.874  0.00  0.00    -0.291 OA
BRANCH  26  28
ATOM     28  C   UNL     1       2.028   7.763   3.772  0.00  0.00    +0.022 A 
ATOM     29  C   UNL     1       2.475   7.442   5.059  0.00  0.00    +0.015 A 
ATOM     30  C   UNL     1       3.189   8.365   5.789  0.00  0.00    +0.050 A 
ATOM     31  C   UNL     1       3.457   9.620   5.258  0.00  0.00    +0.158 A 
ATOM     32  C   UNL     1       3.010   9.950   3.978  0.00  0.00    +0.159 A 
ATOM     33  C   UNL     1       2.299   9.029   3.236  0.00  0.00    +0.060 A 
BRANCH  32  34
ATOM     34  O   UNL     1       3.275  11.180   3.462  0.00  0.00    -0.503 OA
ATOM     35  H   UNL     1       2.597  11.842   3.655  0.00  0.00    +0.292 HD
ENDBRANCH  32  34
BRANCH  31  36
ATOM     36  O   UNL     1       4.156  10.528   5.986  0.00  0.00    -0.503 OA
ATOM     37  H   UNL     1       3.605  11.097   6.539  0.00  0.00    +0.292 HD
ENDBRANCH  31  36
ENDBRANCH  26  28
ENDBRANCH  25  26
ENDBRANCH  24  25
ENDBRANCH  14  24
TORSDOF 13
