REMARK  Name = ZINC67513734
REMARK  8 active torsions:
REMARK  status: ('A' for Active; 'I' for Inactive)
REMARK    1  A    between atoms: C_1  and  C_2
REMARK    2  A    between atoms: C_2  and  C_3
REMARK    3  A    between atoms: C_3  and  C_10
REMARK    4  A    between atoms: C_16  and  C_18
REMARK    5  A    between atoms: C_19  and  C_28
REMARK    6  A    between atoms: C_20  and  C_25
REMARK    7  A    between atoms: C_23  and  C_24
REMARK    8  A    between atoms: C_25  and  C_27
REMARK                            x       y       z     vdW  Elec       q    Type
REMARK                         _______ _______ _______ _____ _____    ______ ____
ROOT
ATOM      1  C   UNL     1      -1.441  -2.063   0.058  0.00  0.00    +0.024 C 
ATOM      2  C   UNL     1      -0.716  -2.613  -1.173  0.00  0.00    +0.025 C 
ATOM      3  C   UNL     1      -0.695  -4.143  -1.107  0.00  0.00    +0.108 C 
ATOM      4  N   UNL     1      -2.073  -4.629  -0.951  0.00  0.00    -0.297 N 
ATOM      5  C   UNL     1      -2.890  -4.096   0.148  0.00  0.00    +0.108 C 
ATOM      6  C   UNL     1      -2.886  -2.566   0.068  0.00  0.00    +0.025 C 
ATOM      7  C   UNL     1      -2.579  -5.545  -1.800  0.00  0.00    +0.249 C 
ATOM      8  O   UNL     1      -1.893  -5.978  -2.706  0.00  0.00    -0.270 OA
ENDROOT
BRANCH   1   9
ATOM      9  C   UNL     1      -1.433  -0.534   0.013  0.00  0.00    +0.115 C 
ATOM     10  C   UNL     1      -2.205   0.042   1.184  0.00  0.00    +0.244 C 
ATOM     11  O   UNL     1      -1.958  -0.098   2.363  0.00  0.00    -0.273 OA
ATOM     12  N   UNL     1      -3.222   0.740   0.642  0.00  0.00    -0.238 N 
ATOM     13  C   UNL     1      -3.200   0.687  -0.695  0.00  0.00    +0.307 C 
ATOM     14  O   UNL     1      -4.016   1.240  -1.406  0.00  0.00    -0.252 OA
ATOM     15  N   UNL     1      -2.175  -0.046  -1.163  0.00  0.00    -0.285 N 
ATOM     16  H   UNL     1      -3.888   1.222   1.157  0.00  0.00    +0.159 HD
ATOM     17  H   UNL     1      -1.964  -0.220  -2.094  0.00  0.00    +0.151 HD
BRANCH   9  19
ATOM     18  C   UNL     1      -0.019   1.526   0.010  0.00  0.00    +0.006 C 
ATOM     19  C   UNL     1       0.002  -0.004   0.002  0.00  0.00    +0.032 C 
ENDBRANCH   9  19
ENDBRANCH   1   9
BRANCH   7  20
ATOM     20  C   UNL     1      -3.963  -6.022  -1.631  0.00  0.00    +0.061 A 
ATOM     21  C   UNL     1      -5.119  -5.465  -2.217  0.00  0.00    -0.010 A 
ATOM     22  C   UNL     1      -6.188  -6.222  -1.790  0.00  0.00    +0.086 A 
ATOM     23  N   UNL     1      -5.705  -7.217  -0.965  0.00  0.00    -0.355 N 
ATOM     24  H   UNL     1      -6.244  -7.893  -0.526  0.00  0.00    +0.166 HD
ATOM     25  C   UNL     1      -4.371  -7.105  -0.872  0.00  0.00    +0.026 A 
ATOM     26  C   UNL     1      -3.468  -8.006  -0.070  0.00  0.00    +0.064 C 
ATOM     27  C   UNL     1      -5.173  -4.270  -3.134  0.00  0.00    +0.047 C 
BRANCH  22  28
ATOM     28  C   UNL     1      -7.545  -6.016  -2.137  0.00  0.00    +0.176 C 
ATOM     29  O   UNL     1      -7.850  -5.101  -2.875  0.00  0.00    -0.291 OA
ATOM     30  C   UNL     1      -8.610  -6.930  -1.590  0.00  0.00    +0.093 C 
ENDBRANCH  22  28
ENDBRANCH   7  20
TORSDOF 4
