REMARK  Name = ZINC59274362
REMARK  8 active torsions:
REMARK  status: ('A' for Active; 'I' for Inactive)
REMARK    1  A    between atoms: C_1  and  C_2
REMARK    2  A    between atoms: C_2  and  C_3
REMARK    3  A    between atoms: C_2  and  C_4
REMARK    4  A    between atoms: C_7  and  N_10
REMARK    5  A    between atoms: N_13  and  C_14
REMARK    6  A    between atoms: N_13  and  C_22
REMARK    7  A    between atoms: C_14  and  C_15
REMARK    8  A    between atoms: C_22  and  C_23
REMARK                            x       y       z     vdW  Elec       q    Type
REMARK                         _______ _______ _______ _____ _____    ______ ____
ROOT
ATOM      1  N   UNL     1      -5.320  -1.968   0.043  0.00  0.00    -0.269 N 
ATOM      2  C   UNL     1      -5.790  -2.663  -1.012  0.00  0.00    +0.307 C 
ATOM      3  O   UNL     1      -5.048  -2.948  -1.932  0.00  0.00    -0.252 OA
ATOM      4  N   UNL     1      -7.083  -3.043  -1.047  0.00  0.00    -0.274 N 
ATOM      5  H   UNL     1      -5.891  -1.808   0.811  0.00  0.00    +0.156 HD
ENDROOT
BRANCH   1   9
ATOM      6  C   UNL     1      -1.418  -0.508   0.004  0.00  0.00    -0.045 A 
ATOM      7  C   UNL     1      -2.138  -0.585  -1.174  0.00  0.00    +0.006 A 
ATOM      8  C   UNL     1      -3.431  -1.069  -1.165  0.00  0.00    +0.023 A 
ATOM      9  C   UNL     1      -4.010  -1.478   0.030  0.00  0.00    +0.035 A 
ATOM     10  C   UNL     1      -3.284  -1.399   1.211  0.00  0.00    +0.023 A 
ATOM     11  C   UNL     1      -1.989  -0.920   1.195  0.00  0.00    +0.006 A 
BRANCH   6  13
ATOM     12  C   UNL     1       0.856  -0.855  -0.920  0.00  0.00    +0.012 C 
ATOM     13  C   UNL     1      -0.007   0.020  -0.009  0.00  0.00    +0.013 C 
ATOM     14  C   UNL     1      -0.006   1.458  -0.533  0.00  0.00    +0.012 C 
ENDBRANCH   6  13
ENDBRANCH   1   9
BRANCH   4  15
ATOM     15  C   UNL     1      -7.593  -3.799  -2.194  0.00  0.00    +0.145 C 
BRANCH  15  16
ATOM     16  C   UNL     1      -7.429  -5.274  -1.937  0.00  0.00    -0.030 A 
ATOM     17  C   UNL     1      -6.266  -5.917  -2.319  0.00  0.00    +0.006 A 
ATOM     18  C   UNL     1      -6.114  -7.270  -2.083  0.00  0.00    +0.020 A 
ATOM     19  C   UNL     1      -7.126  -7.982  -1.465  0.00  0.00    +0.041 A 
ATOM     20  C   UNL     1      -8.290  -7.339  -1.082  0.00  0.00    +0.020 A 
ATOM     21  C   UNL     1      -8.438  -5.984  -1.313  0.00  0.00    +0.006 A 
ATOM     22 CL   UNL     1      -6.936  -9.682  -1.169  0.00  0.00    -0.084 Cl
ENDBRANCH  15  16
ENDBRANCH   4  15
BRANCH   4  23
ATOM     23  C   UNL     1      -7.977  -2.700   0.061  0.00  0.00    +0.183 C 
BRANCH  23  24
ATOM     24  C   UNL     1      -8.624  -1.366  -0.209  0.00  0.00    +0.122 A 
ATOM     25  C   UNL     1      -9.788  -1.173  -0.854  0.00  0.00    +0.046 A 
ATOM     26  C   UNL     1     -10.014   0.223  -0.882  0.00  0.00    +0.041 A 
ATOM     27  C   UNL     1      -8.974   0.798  -0.251  0.00  0.00    +0.195 A 
ATOM     28  O   UNL     1      -8.139  -0.169   0.159  0.00  0.00    -0.466 OA
ENDBRANCH  23  24
ENDBRANCH   4  23
TORSDOF 6
