REMARK  Name = ZINC42139843
REMARK  7 active torsions:
REMARK  status: ('A' for Active; 'I' for Inactive)
REMARK    1  A    between atoms: C_1  and  C_2
REMARK    2  A    between atoms: C_5  and  O_12
REMARK    3  A    between atoms: C_8  and  C_10
REMARK    4  A    between atoms: C_8  and  C_11
REMARK    5  A    between atoms: O_12  and  C_13
REMARK    6  A    between atoms: C_14  and  C_20
REMARK    7  A    between atoms: C_16  and  N_19
REMARK                            x       y       z     vdW  Elec       q    Type
REMARK                         _______ _______ _______ _____ _____    ______ ____
ROOT
ATOM      1  C   UNL     1      -1.677  -1.404  -2.167  0.00  0.00    +0.228 A 
ATOM      2  C   UNL     1      -3.002  -1.860  -2.216  0.00  0.00    +0.100 A 
ATOM      3  C   UNL     1      -3.758  -1.618  -3.368  0.00  0.00    +0.042 A 
ATOM      4  C   UNL     1      -3.157  -0.933  -4.418  0.00  0.00    +0.044 A 
ATOM      5  C   UNL     1      -1.839  -0.515  -4.290  0.00  0.00    +0.137 A 
ATOM      6  N   UNL     1      -1.152  -0.753  -3.189  0.00  0.00    -0.219 NA
ENDROOT
BRANCH   2   7
ATOM      7  C   UNL     1      -3.590  -2.583  -1.072  0.00  0.00    +0.247 C 
ATOM      8  O   UNL     1      -2.924  -2.788  -0.075  0.00  0.00    -0.270 OA
ATOM      9  N   UNL     1      -4.865  -3.016  -1.131  0.00  0.00    -0.325 N 
ATOM     10  H   UNL     1      -5.396  -2.852  -1.926  0.00  0.00    +0.145 HD
ATOM     11  H   UNL     1      -5.251  -3.491  -0.379  0.00  0.00    +0.145 HD
ENDBRANCH   2   7
BRANCH   4  12
ATOM     12  N   UNL     1      -3.873  -0.668  -5.591  0.00  0.00    -0.357 N 
ATOM     13  H   UNL     1      -4.794  -0.962  -5.675  0.00  0.00    +0.142 HD
ATOM     14  H   UNL     1      -3.449  -0.189  -6.320  0.00  0.00    +0.142 HD
ENDBRANCH   4  12
BRANCH   1  15
ATOM     15  O   UNL     1      -0.929  -1.629  -1.058  0.00  0.00    -0.473 OA
BRANCH  15  19
ATOM     16  C   UNL     1      -0.075   1.709   1.481  0.00  0.00    +0.007 C 
ATOM     17  C   UNL     1      -0.097   0.284   0.924  0.00  0.00    -0.010 C 
ATOM     18  C   UNL     1       0.433   0.290  -0.511  0.00  0.00    +0.048 C 
ATOM     19  C   UNL     1       0.411  -1.135  -1.069  0.00  0.00    +0.176 C 
ATOM     20  C   UNL     1       1.294  -2.035  -0.202  0.00  0.00    +0.051 C 
ATOM     21  C   UNL     1       0.763  -2.041   1.233  0.00  0.00    -0.031 C 
ATOM     22  C   UNL     1       0.785  -0.616   1.790  0.00  0.00    +0.010 C 
ATOM     23  C   UNL     1      -0.673  -2.570   1.244  0.00  0.00    +0.011 C 
ATOM     24  C   UNL     1       1.645  -2.941   2.100  0.00  0.00    +0.011 C 
ENDBRANCH  15  19
ENDBRANCH   1  15
TORSDOF 4
