REMARK  Name = ZINC15959890
REMARK  6 active torsions:
REMARK  status: ('A' for Active; 'I' for Inactive)
REMARK    1  A    between atoms: C_1  and  C_2
REMARK    2  A    between atoms: C_2  and  C_4
REMARK    3  A    between atoms: C_2  and  O_35
REMARK    4  A    between atoms: N_12  and  C_15
REMARK    5  A    between atoms: C_15  and  C_16
REMARK    6  A    between atoms: C_16  and  C_17
REMARK                            x       y       z     vdW  Elec       q    Type
REMARK                         _______ _______ _______ _____ _____    ______ ____
ROOT
ATOM      1  C   UNL     1       0.718  -0.497  -1.257  0.00  0.00    +0.096 C 
ATOM      2  C   UNL     1       0.784  -2.039  -1.268  0.00  0.00    +0.109 C 
ATOM      3  C   UNL     1       2.179  -2.376  -1.863  0.00  0.00    +0.122 C 
ATOM      4  C   UNL     1       2.898  -3.040  -0.710  0.00  0.00    +0.228 C 
ATOM      5  O   UNL     1       4.031  -3.469  -0.746  0.00  0.00    -0.275 OA
ATOM      6  N   UNL     1       2.089  -3.081   0.354  0.00  0.00    -0.241 N 
ATOM      7  C   UNL     1       0.863  -2.546   0.154  0.00  0.00    +0.227 C 
ATOM      8  O   UNL     1      -0.029  -2.478   0.973  0.00  0.00    -0.275 OA
ATOM      9  C   UNL     1       2.809  -1.009  -2.163  0.00  0.00    +0.136 C 
ATOM     10  N   UNL     1       2.137  -0.052  -1.253  0.00  0.00    -0.293 NA
ATOM     11  C   UNL     1       4.293  -1.022  -1.933  0.00  0.00    +0.005 A 
ATOM     12  C   UNL     1       5.082  -1.285  -0.835  0.00  0.00    +0.008 A 
ATOM     13  C   UNL     1       6.460  -1.216  -0.938  0.00  0.00    +0.002 A 
ATOM     14  C   UNL     1       7.044  -0.883  -2.146  0.00  0.00    +0.022 A 
ATOM     15  C   UNL     1       6.259  -0.617  -3.249  0.00  0.00    +0.062 A 
ATOM     16  C   UNL     1       4.870  -0.684  -3.154  0.00  0.00    +0.057 A 
ATOM     17  N   UNL     1       3.877  -0.463  -4.112  0.00  0.00    -0.282 N 
ATOM     18  C   UNL     1       2.640  -0.633  -3.609  0.00  0.00    +0.243 C 
ATOM     19  O   UNL     1       1.592  -0.508  -4.207  0.00  0.00    -0.273 OA
ATOM     20 CL   UNL     1       7.003  -0.199  -4.761  0.00  0.00    -0.082 Cl
ATOM     21  H   UNL     1       2.221   0.892  -1.601  0.00  0.00    +0.124 HD
ATOM     22  H   UNL     1       4.059  -0.215  -5.032  0.00  0.00    +0.155 HD
ENDROOT
BRANCH   1  24
ATOM     23  C   UNL     1      -0.019   1.526   0.010  0.00  0.00    +0.039 C 
ATOM     24  C   UNL     1       0.002  -0.004   0.002  0.00  0.00    +0.129 C 
BRANCH  24  25
ATOM     25  O   UNL     1       0.693  -0.477   1.160  0.00  0.00    -0.390 OA
ATOM     26  H   UNL     1       0.294  -0.202   1.996  0.00  0.00    +0.210 HD
ENDBRANCH  24  25
ENDBRANCH   1  24
BRANCH   6  27
ATOM     27  C   UNL     1       2.495  -3.664   1.636  0.00  0.00    +0.121 C 
BRANCH  27  28
ATOM     28  C   UNL     1       3.134  -2.582   2.509  0.00  0.00    +0.054 C 
BRANCH  28  29
ATOM     29  C   UNL     1       3.551  -3.182   3.827  0.00  0.00    -0.046 A 
ATOM     30  C   UNL     1       2.667  -3.199   4.889  0.00  0.00    +0.004 A 
ATOM     31  C   UNL     1       3.050  -3.749   6.098  0.00  0.00    +0.000 A 
ATOM     32  C   UNL     1       4.316  -4.282   6.245  0.00  0.00    +0.000 A 
ATOM     33  C   UNL     1       5.200  -4.266   5.182  0.00  0.00    +0.000 A 
ATOM     34  C   UNL     1       4.816  -3.720   3.972  0.00  0.00    +0.004 A 
ENDBRANCH  28  29
ENDBRANCH  27  28
ENDBRANCH   6  27
TORSDOF 5
