REMARK  Name = ZINC35334680
REMARK  6 active torsions:
REMARK  status: ('A' for Active; 'I' for Inactive)
REMARK    1  A    between atoms: C_1  and  C_2
REMARK    2  A    between atoms: C_4  and  C_12
REMARK    3  A    between atoms: C_5  and  O_11
REMARK    4  A    between atoms: C_6  and  N_8
REMARK    5  A    between atoms: N_13  and  C_14
REMARK    6  A    between atoms: N_22  and  C_23
REMARK                            x       y       z     vdW  Elec       q    Type
REMARK                         _______ _______ _______ _____ _____    ______ ____
ROOT
ATOM      1  C   UNL     1       0.028  -2.813  -2.479  0.00  0.00    +0.126 C 
ATOM      2  N   UNL     1       0.046  -4.121  -2.482  0.00  0.00    -0.220 NA
ENDROOT
BRANCH   2   3
ATOM      3  C   UNL     1       0.049  -4.797  -3.660  0.00  0.00    +0.231 A 
ATOM      4  N   UNL     1       0.041  -4.242  -4.851  0.00  0.00    -0.211 NA
ATOM      5  C   UNL     1       0.047  -5.207  -5.803  0.00  0.00    +0.091 A 
ATOM      6  C   UNL     1       0.043  -5.176  -7.202  0.00  0.00    +0.031 A 
ATOM      7  C   UNL     1       0.052  -6.344  -7.909  0.00  0.00    +0.017 A 
ATOM      8  C   UNL     1       0.064  -7.568  -7.254  0.00  0.00    +0.020 A 
ATOM      9  C   UNL     1       0.069  -7.624  -5.875  0.00  0.00    +0.043 A 
ATOM     10  C   UNL     1       0.060  -6.447  -5.139  0.00  0.00    +0.071 A 
ATOM     11  N   UNL     1       0.067  -6.163  -3.786  0.00  0.00    -0.311 N 
ATOM     12  C   UNL     1       0.086  -7.137  -2.693  0.00  0.00    +0.152 C 
ATOM     13 BR   UNL     1       0.075  -9.171  -8.258  0.00  0.00    -0.050 Br
ENDBRANCH   2   3
BRANCH   1  17
ATOM     14  C   UNL     1      -0.018   1.503   0.010  0.00  0.00    +0.044 C 
ATOM     15  C   UNL     1       0.002  -0.004   0.002  0.00  0.00    -0.047 A 
ATOM     16  C   UNL     1       0.006  -0.683  -1.197  0.00  0.00    +0.016 A 
ATOM     17  C   UNL     1       0.025  -2.082  -1.206  0.00  0.00    +0.037 A 
ATOM     18  C   UNL     1       0.040  -2.783   0.012  0.00  0.00    +0.156 A 
ATOM     19  C   UNL     1       0.036  -2.081   1.207  0.00  0.00    +0.168 A 
ATOM     20  C   UNL     1       0.023  -0.700   1.200  0.00  0.00    +0.040 A 
BRANCH  19  21
ATOM     21  N   UNL     1       0.052  -2.813   2.494  0.00  0.00    +0.060 N 
ATOM     22  O   UNL     1       0.049  -2.202   3.537  0.00  0.00    -0.126 OA
ATOM     23  O   UNL     1       0.069  -4.022   2.501  0.00  0.00    -0.126 OA
ENDBRANCH  19  21
BRANCH  18  24
ATOM     24  O   UNL     1       0.058  -4.139   0.018  0.00  0.00    -0.504 OA
ATOM     25  H   UNL     1       0.946  -4.521   0.015  0.00  0.00    +0.292 HD
ENDBRANCH  18  24
ENDBRANCH   1  17
TORSDOF 4
