REMARK  Name = ZINC17067434
REMARK  8 active torsions:
REMARK  status: ('A' for Active; 'I' for Inactive)
REMARK    1  A    between atoms: C_1  and  C_2
REMARK    2  A    between atoms: C_4  and  C_11
REMARK    3  A    between atoms: C_7  and  N_8
REMARK    4  A    between atoms: N_13  and  N_14
REMARK    5  A    between atoms: C_15  and  C_16
REMARK    6  A    between atoms: C_15  and  C_17
REMARK    7  A    between atoms: C_19  and  O_24
REMARK    8  A    between atoms: C_21  and  O_23
REMARK                            x       y       z     vdW  Elec       q    Type
REMARK                         _______ _______ _______ _____ _____    ______ ____
ROOT
ATOM      1  C   UNL     1      -2.582   3.650   0.531  0.00  0.00    +0.263 C 
ATOM      2  O   UNL     1      -2.663   4.839   0.770  0.00  0.00    -0.268 OA
ATOM      3  N   UNL     1      -3.695   2.890   0.510  0.00  0.00    -0.203 N 
ATOM      4  H   UNL     1      -3.630   1.941   0.320  0.00  0.00    +0.178 HD
ENDROOT
BRANCH   1   8
ATOM      5  C   UNL     1       2.366   4.088   0.059  0.00  0.00    +0.046 C 
ATOM      6  C   UNL     1       1.119   3.243   0.036  0.00  0.00    -0.020 A 
ATOM      7  C   UNL     1      -0.109   3.821   0.286  0.00  0.00    +0.018 A 
ATOM      8  C   UNL     1      -1.264   3.037   0.265  0.00  0.00    +0.039 A 
ATOM      9  C   UNL     1      -1.168   1.673  -0.015  0.00  0.00    +0.015 A 
ATOM     10  C   UNL     1       0.066   1.106  -0.257  0.00  0.00    +0.034 A 
ATOM     11  C   UNL     1       1.207   1.889  -0.235  0.00  0.00    +0.129 A 
BRANCH  11  12
ATOM     12  N   UNL     1       2.527   1.276  -0.502  0.00  0.00    +0.057 N 
ATOM     13  O   UNL     1       3.371   1.895  -1.126  0.00  0.00    -0.126 OA
ATOM     14  O   UNL     1       2.770   0.153  -0.098  0.00  0.00    -0.126 OA
ENDBRANCH  11  12
ENDBRANCH   1   8
BRANCH   3  15
ATOM     15  N   UNL     1      -4.944   3.470   0.763  0.00  0.00    -0.184 NA
ATOM     16  C   UNL     1      -6.016   2.739   0.742  0.00  0.00    +0.064 C 
ATOM     17  C   UNL     1      -5.916   1.264   0.447  0.00  0.00    +0.068 C 
BRANCH  16  18
ATOM     18  C   UNL     1      -7.332   3.350   1.008  0.00  0.00    +0.004 A 
ATOM     19  C   UNL     1      -8.487   2.566   0.981  0.00  0.00    +0.055 A 
ATOM     20  C   UNL     1      -9.719   3.143   1.236  0.00  0.00    +0.121 A 
ATOM     21  C   UNL     1      -9.809   4.501   1.508  0.00  0.00    +0.090 A 
ATOM     22  C   UNL     1      -8.664   5.285   1.531  0.00  0.00    +0.121 A 
ATOM     23  C   UNL     1      -7.427   4.716   1.282  0.00  0.00    +0.055 A 
BRANCH  22  24
ATOM     24  O   UNL     1      -8.758   6.614   1.798  0.00  0.00    -0.507 OA
ATOM     25  H   UNL     1      -8.882   7.165   1.014  0.00  0.00    +0.292 HD
ENDBRANCH  22  24
BRANCH  20  26
ATOM     26  O   UNL     1     -10.843   2.380   1.215  0.00  0.00    -0.507 OA
ATOM     27  H   UNL     1     -11.266   2.325   0.347  0.00  0.00    +0.292 HD
ENDBRANCH  20  26
ENDBRANCH  16  18
ENDBRANCH   3  15
TORSDOF 6
