REMARK  Name = ZINC15551236
REMARK  10 active torsions:
REMARK  status: ('A' for Active; 'I' for Inactive)
REMARK    1  A    between atoms: C_1  and  N_50
REMARK    2  A    between atoms: C_2  and  C_3
REMARK    3  A    between atoms: C_2  and  N_50
REMARK    4  A    between atoms: C_8  and  O_9
REMARK    5  A    between atoms: O_9  and  C_10
REMARK    6  A    between atoms: C_12  and  C_13
REMARK    7  A    between atoms: C_12  and  N_50
REMARK    8  A    between atoms: N_15  and  C_16
REMARK    9  A    between atoms: C_18  and  C_27
REMARK   10  A    between atoms: C_21  and  N_22
REMARK                            x       y       z     vdW  Elec       q    Type
REMARK                         _______ _______ _______ _____ _____    ______ ____
ROOT
ATOM      1  C   UNL     1      -1.962  -0.206  -1.419  0.00  0.00    +0.201 C 
ATOM      2  O   UNL     1      -1.322   0.446  -2.216  0.00  0.00    -0.278 OA
ATOM      3  N   UNL     1      -3.216  -0.598  -1.722  0.00  0.00    -0.285 N 
ATOM      4  H   UNL     1      -3.704  -1.175  -1.114  0.00  0.00    +0.155 HD
ENDROOT
BRANCH   3   5
ATOM      5  C   UNL     1      -3.813  -0.173  -2.915  0.00  0.00    +0.060 A 
ATOM      6  C   UNL     1      -3.045  -0.014  -4.059  0.00  0.00    +0.037 A 
ATOM      7  C   UNL     1      -3.637   0.401  -5.237  0.00  0.00    +0.057 A 
ATOM      8  C   UNL     1      -4.993   0.669  -5.276  0.00  0.00    +0.014 A 
ATOM      9  C   UNL     1      -5.765   0.518  -4.140  0.00  0.00    +0.030 A 
ATOM     10  C   UNL     1      -5.180   0.097  -2.955  0.00  0.00    +0.088 A 
BRANCH  10  11
ATOM     11  N   UNL     1      -5.961  -0.057  -1.800  0.00  0.00    -0.218 N 
ATOM     12  C   UNL     1      -7.299   0.074  -1.707  0.00  0.00    +0.225 A 
ATOM     13  N   UNL     1      -7.642  -0.151  -0.464  0.00  0.00    -0.222 NA
ATOM     14  C   UNL     1      -6.558  -0.418   0.263  0.00  0.00    +0.245 A 
ATOM     15  N   UNL     1      -5.505  -0.372  -0.510  0.00  0.00    -0.153 NA
ENDBRANCH  10  11
BRANCH   7  16
ATOM     16  C   UNL     1      -2.802   0.568  -6.480  0.00  0.00    +0.417 C 
ATOM     17  F   UNL     1      -3.615   0.998  -7.534  0.00  0.00    -0.166 F 
ATOM     18  F   UNL     1      -1.801   1.516  -6.245  0.00  0.00    -0.166 F 
ATOM     19  F   UNL     1      -2.214  -0.657  -6.814  0.00  0.00    -0.166 F 
ENDBRANCH   7  16
ENDBRANCH   3   5
BRANCH   1  20
ATOM     20  C   UNL     1      -1.357  -0.579  -0.090  0.00  0.00    +0.019 C 
BRANCH  20  22
ATOM     21  C   UNL     1      -0.013   1.432   0.020  0.00  0.00    -0.095 C 
ATOM     22  N   UNL     1       0.020  -0.045  -0.027  0.00  0.00    +0.386 N 
ATOM     23  H   UNL     1       0.531  -0.341  -0.867  0.00  0.00    -0.081 HD
BRANCH  22  24
ATOM     24  C   UNL     1       0.712  -0.573   1.168  0.00  0.00    -0.039 C 
BRANCH  24  25
ATOM     25  C   UNL     1       2.169  -0.196   1.092  0.00  0.00    -0.021 A 
ATOM     26  C   UNL     1       3.099  -1.117   0.650  0.00  0.00    +0.025 A 
ATOM     27  C   UNL     1       4.436  -0.769   0.576  0.00  0.00    +0.041 A 
ATOM     28  C   UNL     1       4.846   0.498   0.953  0.00  0.00    +0.023 A 
ATOM     29  C   UNL     1       3.919   1.419   1.401  0.00  0.00    +0.047 A 
ATOM     30  C   UNL     1       2.577   1.074   1.471  0.00  0.00    +0.122 A 
ATOM     31 CL   UNL     1       5.603  -1.925   0.014  0.00  0.00    -0.084 Cl
BRANCH  30  32
ATOM     32  O   UNL     1       1.664   1.980   1.910  0.00  0.00    -0.495 OA
ATOM     33  C   UNL     1       2.156   3.268   2.284  0.00  0.00    +0.277 C 
ENDBRANCH  30  32
ENDBRANCH  24  25
ENDBRANCH  22  24
ENDBRANCH  20  22
ENDBRANCH   1  20
TORSDOF 8
