REMARK  Name = ZINC11351021
REMARK  16 active torsions:
REMARK  status: ('A' for Active; 'I' for Inactive)
REMARK    1  A    between atoms: C_1  and  C_2
REMARK    2  A    between atoms: C_2  and  C_3
REMARK    3  A    between atoms: C_3  and  C_4
REMARK    4  A    between atoms: C_4  and  N_5
REMARK    5  A    between atoms: C_6  and  N_33
REMARK    6  A    between atoms: C_7  and  N_14
REMARK    7  A    between atoms: N_14  and  C_15
REMARK    8  A    between atoms: N_14  and  C_18
REMARK    9  A    between atoms: C_15  and  C_16
REMARK   10  A    between atoms: C_16  and  C_17
REMARK   11  A    between atoms: C_18  and  C_19
REMARK   12  A    between atoms: N_21  and  C_22
REMARK   13  A    between atoms: C_22  and  C_24
REMARK   14  A    between atoms: C_22  and  C_30
REMARK   15  A    between atoms: C_30  and  C_31
REMARK   16  A    between atoms: C_30  and  C_32
REMARK                            x       y       z     vdW  Elec       q    Type
REMARK                         _______ _______ _______ _____ _____    ______ ____
ROOT
ATOM      1  N   UNL     1      -1.385  -4.784  -2.393  0.00  0.00    -0.314 N 
ENDROOT
BRANCH   1   4
ATOM      2  N   UNL     1      -1.636  -1.655  -0.489  0.00  0.00    -0.280 N 
ATOM      3  C   UNL     1      -1.505  -2.522  -1.550  0.00  0.00    +0.127 A 
ATOM      4  C   UNL     1      -1.522  -3.871  -1.321  0.00  0.00    +0.134 A 
ATOM      5  C   UNL     1      -1.684  -4.337  -0.003  0.00  0.00    +0.277 A 
ATOM      6  O   UNL     1      -1.707  -5.535   0.226  0.00  0.00    -0.266 OA
ATOM      7  N   UNL     1      -1.813  -3.451   1.004  0.00  0.00    -0.273 N 
ATOM      8  H   UNL     1      -1.928  -3.781   1.941  0.00  0.00    +0.173 HD
ATOM      9  C   UNL     1      -1.790  -2.128   0.761  0.00  0.00    +0.331 A 
ATOM     10  O   UNL     1      -1.908  -1.348   1.686  0.00  0.00    -0.246 OA
BRANCH   3  11
ATOM     11  N   UNL     1      -1.354  -2.037  -2.829  0.00  0.00    -0.343 N 
ATOM     12  H   UNL     1      -1.339  -1.080  -2.986  0.00  0.00    +0.144 HD
ATOM     13  H   UNL     1      -1.262  -2.652  -3.574  0.00  0.00    +0.144 HD
ENDBRANCH   3  11
BRANCH   2  14
ATOM     14  C   UNL     1      -1.615  -0.209  -0.723  0.00  0.00    +0.128 C 
BRANCH  14  15
ATOM     15  C   UNL     1      -0.176   0.302  -0.626  0.00  0.00    +0.021 C 
BRANCH  15  17
ATOM     16  C   UNL     1       1.285   2.323  -0.774  0.00  0.00    +0.004 C 
ATOM     17  C   UNL     1      -0.153   1.812  -0.871  0.00  0.00    -0.002 C 
ENDBRANCH  15  17
ENDBRANCH  14  15
ENDBRANCH   2  14
ENDBRANCH   1   4
BRANCH   1  18
ATOM     18  C   UNL     1      -0.207  -5.642  -2.206  0.00  0.00    +0.105 C 
BRANCH  18  19
ATOM     19  C   UNL     1       1.060  -4.845  -2.523  0.00  0.00    +0.015 C 
ATOM     20  C   UNL     1       2.276  -5.771  -2.452  0.00  0.00    +0.005 C 
ENDBRANCH  18  19
ENDBRANCH   1  18
BRANCH   1  21
ATOM     21  C   UNL     1      -2.602  -5.589  -2.558  0.00  0.00    +0.201 C 
BRANCH  21  22
ATOM     22  C   UNL     1      -2.591  -6.244  -3.915  0.00  0.00    +0.231 C 
ATOM     23  O   UNL     1      -1.717  -5.973  -4.712  0.00  0.00    -0.274 OA
ATOM     24  N   UNL     1      -3.552  -7.130  -4.244  0.00  0.00    -0.307 N 
ATOM     25  H   UNL     1      -4.250  -7.346  -3.607  0.00  0.00    +0.149 HD
BRANCH  24  26
ATOM     26  C   UNL     1      -3.541  -7.766  -5.563  0.00  0.00    +0.106 C 
BRANCH  26  27
ATOM     27  C   UNL     1      -4.265  -9.085  -5.491  0.00  0.00    -0.027 A 
ATOM     28  C   UNL     1      -5.418  -9.200  -4.737  0.00  0.00    +0.005 A 
ATOM     29  C   UNL     1      -6.086 -10.409  -4.674  0.00  0.00    +0.000 A 
ATOM     30  C   UNL     1      -5.594 -11.506  -5.357  0.00  0.00    +0.000 A 
ATOM     31  C   UNL     1      -4.439 -11.393  -6.107  0.00  0.00    +0.000 A 
ATOM     32  C   UNL     1      -3.774 -10.182  -6.173  0.00  0.00    +0.005 A 
ENDBRANCH  26  27
BRANCH  26  33
ATOM     33  C   UNL     1      -4.240  -6.855  -6.575  0.00  0.00    +0.008 C 
ATOM     34  C   UNL     1      -3.504  -5.516  -6.649  0.00  0.00    +0.009 C 
ATOM     35  C   UNL     1      -4.228  -7.520  -7.953  0.00  0.00    +0.009 C 
ENDBRANCH  26  33
ENDBRANCH  24  26
ENDBRANCH  21  22
ENDBRANCH   1  21
TORSDOF 12
