REMARK  Name = ZINC43669571
REMARK  7 active torsions:
REMARK  status: ('A' for Active; 'I' for Inactive)
REMARK    1  A    between atoms: C_1  and  C_2
REMARK    2  A    between atoms: C_2  and  C_4
REMARK    3  A    between atoms: C_2  and  N_7
REMARK    4  A    between atoms: C_4  and  C_5
REMARK    5  A    between atoms: C_4  and  C_6
REMARK    6  A    between atoms: C_8  and  N_15
REMARK    7  A    between atoms: C_9  and  N_12
REMARK                            x       y       z     vdW  Elec       q    Type
REMARK                         _______ _______ _______ _____ _____    ______ ____
ROOT
ATOM      1  N   UNL     1      -1.372  -0.511   0.012  0.00  0.00    -0.246 N 
ATOM      2  C   UNL     1      -1.937  -1.299  -0.931  0.00  0.00    +0.145 A 
ATOM      3  C   UNL     1      -3.220  -1.544  -0.547  0.00  0.00    +0.185 A 
ATOM      4  C   UNL     1      -3.438  -0.883   0.665  0.00  0.00    +0.169 A 
ATOM      5  N   UNL     1      -2.332  -0.271   1.004  0.00  0.00    -0.175 NA
ENDROOT
BRANCH   3   6
ATOM      6  N   UNL     1      -4.210  -2.363  -1.283  0.00  0.00    +0.061 N 
ATOM      7  O   UNL     1      -5.325  -2.508  -0.839  0.00  0.00    -0.126 OA
ATOM      8  O   UNL     1      -3.902  -2.887  -2.329  0.00  0.00    -0.126 OA
ENDBRANCH   3   6
BRANCH   2   9
ATOM      9  N   UNL     1      -1.319  -1.773  -2.084  0.00  0.00    -0.342 N 
ATOM     10  H   UNL     1      -0.395  -1.541  -2.270  0.00  0.00    +0.144 HD
ATOM     11  H   UNL     1      -1.812  -2.335  -2.703  0.00  0.00    +0.144 HD
ENDBRANCH   2   9
BRANCH   1  13
ATOM     12  C   UNL     1      -0.019   1.526   0.010  0.00  0.00    +0.033 C 
ATOM     13  C   UNL     1       0.002  -0.004   0.002  0.00  0.00    +0.109 C 
BRANCH  13  14
ATOM     14  C   UNL     1       0.742  -0.511   1.242  0.00  0.00    +0.007 C 
ATOM     15  C   UNL     1       0.763  -2.041   1.233  0.00  0.00    +0.009 C 
ATOM     16  C   UNL     1       2.178   0.019   1.231  0.00  0.00    +0.009 C 
ENDBRANCH  13  14
ENDBRANCH   1  13
TORSDOF 4
