REMARK  Name = ZINC66600137
REMARK  5 active torsions:
REMARK  status: ('A' for Active; 'I' for Inactive)
REMARK    1  A    between atoms: C_1  and  C_2
REMARK    2  A    between atoms: C_2  and  C_7
REMARK    3  A    between atoms: C_7  and  N_8
REMARK    4  A    between atoms: C_14  and  C_17
REMARK    5  A    between atoms: C_22  and  C_25
REMARK                            x       y       z     vdW  Elec       q    Type
REMARK                         _______ _______ _______ _____ _____    ______ ____
ROOT
ATOM      1  N   UNL     1      -2.120  -0.058  -1.219  0.00  0.00    -0.299 N 
ATOM      2  C   UNL     1      -3.397  -0.413  -1.460  0.00  0.00    +0.302 C 
ATOM      3  O   UNL     1      -3.951  -1.217  -0.736  0.00  0.00    -0.253 OA
ATOM      4  N   UNL     1      -4.061   0.124  -2.503  0.00  0.00    -0.286 N 
ATOM      5  C   UNL     1      -3.371   1.006  -3.455  0.00  0.00    +0.110 C 
ATOM      6  C   UNL     1      -4.152   2.320  -3.564  0.00  0.00    +0.032 C 
ATOM      7  C   UNL     1      -5.607   2.014  -3.930  0.00  0.00    +0.078 C 
ATOM      8  C   UNL     1      -6.244   1.164  -2.829  0.00  0.00    +0.032 C 
ATOM      9  C   UNL     1      -5.485  -0.167  -2.715  0.00  0.00    +0.110 C 
ATOM     10  H   UNL     1      -1.654   0.526  -1.838  0.00  0.00    +0.150 HD
ENDROOT
BRANCH   7  11
ATOM     11  C   UNL     1      -6.370   3.306  -4.072  0.00  0.00    +0.219 C 
ATOM     12  O   UNL     1      -5.991   4.301  -3.492  0.00  0.00    -0.275 OA
ATOM     13  N   UNL     1      -7.474   3.354  -4.843  0.00  0.00    -0.301 N 
ATOM     14  C   UNL     1      -7.891   2.185  -5.629  0.00  0.00    +0.108 C 
ATOM     15  C   UNL     1      -9.350   1.860  -5.293  0.00  0.00    +0.032 C 
ATOM     16  C   UNL     1     -10.210   3.106  -5.517  0.00  0.00    +0.078 C 
ATOM     17  C   UNL     1      -9.739   4.226  -4.587  0.00  0.00    +0.032 C 
ATOM     18  C   UNL     1      -8.288   4.576  -4.910  0.00  0.00    +0.108 C 
BRANCH  16  19
ATOM     19  C   UNL     1     -11.652   2.780  -5.221  0.00  0.00    +0.214 C 
ATOM     20  O   UNL     1     -11.960   1.663  -4.866  0.00  0.00    -0.276 OA
ATOM     21  N   UNL     1     -12.598   3.732  -5.350  0.00  0.00    -0.329 N 
ATOM     22  H   UNL     1     -12.351   4.626  -5.634  0.00  0.00    +0.145 HD
ATOM     23  H   UNL     1     -13.525   3.522  -5.159  0.00  0.00    +0.145 HD
ENDBRANCH  16  19
ENDBRANCH   7  11
BRANCH   1  24
ATOM     24  C   UNL     1      -1.435  -0.553  -0.023  0.00  0.00    +0.112 C 
BRANCH  24  26
ATOM     25  C   UNL     1      -0.033   1.525   0.027  0.00  0.00    +0.013 C 
ATOM     26  C   UNL     1      -0.007  -0.005   0.012  0.00  0.00    -0.016 C 
ATOM     27  C   UNL     1       0.783  -0.507  -1.215  0.00  0.00    +0.008 C 
ATOM     28  C   UNL     1       2.211  -0.758  -0.670  0.00  0.00    +0.001 C 
ATOM     29  C   UNL     1       1.942  -1.336   0.741  0.00  0.00    +0.001 C 
ATOM     30  C   UNL     1       0.731  -0.532   1.255  0.00  0.00    +0.008 C 
ENDBRANCH  24  26
ENDBRANCH   1  24
TORSDOF 4
