REMARK  Name = ZINC51679594
REMARK  7 active torsions:
REMARK  status: ('A' for Active; 'I' for Inactive)
REMARK    1  A    between atoms: C_1  and  C_2
REMARK    2  A    between atoms: C_3  and  C_15
REMARK    3  A    between atoms: C_4  and  C_14
REMARK    4  A    between atoms: N_5  and  C_7
REMARK    5  A    between atoms: C_7  and  C_8
REMARK    6  A    between atoms: C_15  and  N_16
REMARK    7  A    between atoms: C_23  and  C_26
REMARK                            x       y       z     vdW  Elec       q    Type
REMARK                         _______ _______ _______ _____ _____    ______ ____
ROOT
ATOM      1  C   UNL     1      -0.006  -0.341  -2.565  0.00  0.00    +0.144 C 
ENDROOT
BRANCH   1   2
ATOM      2  N   UNL     1       1.370  -0.170  -3.036  0.00  0.00    -0.295 N 
ATOM      3  C   UNL     1       1.604   0.251  -4.295  0.00  0.00    +0.303 C 
ATOM      4  O   UNL     1       0.678   0.400  -5.068  0.00  0.00    -0.253 OA
ATOM      5  N   UNL     1       2.865   0.507  -4.697  0.00  0.00    -0.281 N 
ATOM      6  C   UNL     1       4.012   0.226  -3.818  0.00  0.00    +0.137 C 
ATOM      7  C   UNL     1       4.891   1.480  -3.755  0.00  0.00    +0.180 C 
ATOM      8  O   UNL     1       5.199   1.907  -5.084  0.00  0.00    -0.364 OA
ATOM      9  C   UNL     1       4.058   2.289  -5.855  0.00  0.00    +0.221 C 
ATOM     10  C   UNL     1       3.136   1.071  -6.029  0.00  0.00    +0.150 C 
ATOM     11  H   UNL     1       2.114  -0.359  -2.442  0.00  0.00    +0.151 HD
BRANCH   9  12
ATOM     12  C   UNL     1       4.505   2.778  -7.208  0.00  0.00    +0.241 C 
ATOM     13  O   UNL     1       5.676   2.712  -7.520  0.00  0.00    -0.273 OA
ATOM     14  N   UNL     1       3.605   3.287  -8.073  0.00  0.00    -0.327 N 
ATOM     15  H   UNL     1       2.669   3.339  -7.823  0.00  0.00    +0.145 HD
ATOM     16  H   UNL     1       3.893   3.601  -8.944  0.00  0.00    +0.145 HD
ENDBRANCH   9  12
ENDBRANCH   1   2
BRANCH   1  19
ATOM     17  C   UNL     1      -0.015   1.504   0.011  0.00  0.00    +0.068 C 
ATOM     18  C   UNL     1       0.004  -0.003   0.003  0.00  0.00    +0.065 A 
ATOM     19  C   UNL     1       0.008  -0.817  -1.135  0.00  0.00    +0.013 A 
ATOM     20  C   UNL     1       0.026  -2.106  -0.725  0.00  0.00    +0.041 A 
ATOM     21  N   UNL     1       0.033  -2.108   0.625  0.00  0.00    -0.264 N 
ATOM     22  N   UNL     1       0.024  -0.776   1.058  0.00  0.00    -0.176 NA
ATOM     23  C   UNL     1       0.037  -3.322  -1.615  0.00  0.00    +0.065 C 
BRANCH  21  24
ATOM     24  C   UNL     1       0.053  -3.294   1.484  0.00  0.00    +0.178 C 
BRANCH  24  25
ATOM     25  C   UNL     1       1.480  -3.683   1.772  0.00  0.00    -0.026 A 
ATOM     26  C   UNL     1       2.140  -4.560   0.931  0.00  0.00    +0.005 A 
ATOM     27  C   UNL     1       3.450  -4.916   1.195  0.00  0.00    +0.000 A 
ATOM     28  C   UNL     1       4.099  -4.396   2.299  0.00  0.00    +0.000 A 
ATOM     29  C   UNL     1       3.439  -3.519   3.139  0.00  0.00    +0.000 A 
ATOM     30  C   UNL     1       2.131  -3.159   2.873  0.00  0.00    +0.005 A 
ENDBRANCH  24  25
ENDBRANCH  21  24
ENDBRANCH   1  19
TORSDOF 5
