REMARK  Name = ZINC09521752
REMARK  8 active torsions:
REMARK  status: ('A' for Active; 'I' for Inactive)
REMARK    1  A    between atoms: C_1  and  C_2
REMARK    2  A    between atoms: C_6  and  N_9
REMARK    3  A    between atoms: C_7  and  C_8
REMARK    4  A    between atoms: C_14  and  O_27
REMARK    5  A    between atoms: C_16  and  S_18
REMARK    6  A    between atoms: S_18  and  C_19
REMARK    7  A    between atoms: C_19  and  C_20
REMARK    8  A    between atoms: C_20  and  C_21
REMARK                            x       y       z     vdW  Elec       q    Type
REMARK                         _______ _______ _______ _____ _____    ______ ____
ROOT
ATOM      1  N   UNL     1      -0.998   2.249   0.037  0.00  0.00    -0.214 N 
ATOM      2  C   UNL     1      -0.020   1.296   0.003  0.00  0.00    +0.171 A 
ATOM      3  C   UNL     1       1.210   1.985   0.017  0.00  0.00    +0.100 A 
ATOM      4  C   UNL     1       0.911   3.364   0.066  0.00  0.00    +0.150 A 
ATOM      5  N   UNL     1      -0.384   3.507   0.081  0.00  0.00    -0.172 NA
ATOM      6  C   UNL     1       2.399   1.232  -0.018  0.00  0.00    +0.227 A 
ATOM      7  N   UNL     1       2.311  -0.089  -0.062  0.00  0.00    -0.187 NA
ATOM      8  C   UNL     1       1.130  -0.699  -0.074  0.00  0.00    +0.193 A 
ATOM      9  N   UNL     1      -0.013  -0.033  -0.042  0.00  0.00    -0.202 NA
ENDROOT
BRANCH   1  15
ATOM     10  C   UNL     1      -5.452   3.108   1.938  0.00  0.00    +0.044 C 
ATOM     11  C   UNL     1      -4.560   2.413   0.942  0.00  0.00    -0.046 A 
ATOM     12  C   UNL     1      -5.104   1.537   0.021  0.00  0.00    +0.004 A 
ATOM     13  C   UNL     1      -4.289   0.896  -0.894  0.00  0.00    +0.002 A 
ATOM     14  C   UNL     1      -2.929   1.134  -0.895  0.00  0.00    +0.028 A 
ATOM     15  C   UNL     1      -2.378   2.010   0.032  0.00  0.00    +0.071 A 
ATOM     16  C   UNL     1      -3.200   2.651   0.950  0.00  0.00    -0.022 A 
ATOM     17  C   UNL     1      -2.607   3.606   1.954  0.00  0.00    +0.046 C 
ENDBRANCH   1  15
BRANCH   6  18
ATOM     18  O   UNL     1       3.606   1.845  -0.005  0.00  0.00    -0.492 OA
ATOM     19  H   UNL     1       3.950   2.053  -0.885  0.00  0.00    +0.294 HD
ENDBRANCH   6  18
BRANCH   8  20
ATOM     20  S   UNL     1       1.085  -2.460  -0.133  0.00  0.00    -0.086 S 
BRANCH  20  21
ATOM     21  C   UNL     1       2.859  -2.819  -0.159  0.00  0.00    +0.082 C 
BRANCH  21  22
ATOM     22  C   UNL     1       3.072  -4.333  -0.211  0.00  0.00    +0.046 C 
BRANCH  22  23
ATOM     23  C   UNL     1       4.549  -4.632  -0.233  0.00  0.00    -0.047 A 
ATOM     24  C   UNL     1       5.216  -4.734  -1.439  0.00  0.00    +0.003 A 
ATOM     25  C   UNL     1       6.572  -5.003  -1.459  0.00  0.00    +0.000 A 
ATOM     26  C   UNL     1       7.259  -5.181  -0.272  0.00  0.00    +0.000 A 
ATOM     27  C   UNL     1       6.590  -5.084   0.934  0.00  0.00    +0.000 A 
ATOM     28  C   UNL     1       5.236  -4.809   0.954  0.00  0.00    +0.003 A 
ENDBRANCH  22  23
ENDBRANCH  21  22
ENDBRANCH  20  21
ENDBRANCH   8  20
TORSDOF 6
