REMARK  Name = ZINC43259036
REMARK  9 active torsions:
REMARK  status: ('A' for Active; 'I' for Inactive)
REMARK    1  A    between atoms: C_1  and  C_2
REMARK    2  A    between atoms: C_2  and  C_3
REMARK    3  A    between atoms: C_3  and  C_5
REMARK    4  A    between atoms: C_3  and  N_23
REMARK    5  A    between atoms: C_5  and  C_7
REMARK    6  A    between atoms: C_5  and  N_13
REMARK    7  A    between atoms: C_18  and  C_20
REMARK    8  A    between atoms: C_20  and  C_21
REMARK    9  A    between atoms: C_21  and  O_22
REMARK                            x       y       z     vdW  Elec       q    Type
REMARK                         _______ _______ _______ _____ _____    ______ ____
ROOT
ATOM      1  C   UNL     1      -1.091  -1.572  -0.030  0.00  0.00    +0.079 C 
ENDROOT
BRANCH   1   2
ATOM      2  C   UNL     1      -0.263  -1.779  -1.272  0.00  0.00    +0.006 A 
ATOM      3  C   UNL     1      -0.672  -1.928  -2.555  0.00  0.00    +0.014 A 
ATOM      4  C   UNL     1       0.276  -2.107  -3.545  0.00  0.00    +0.023 A 
ATOM      5  C   UNL     1       1.588  -2.128  -3.202  0.00  0.00    +0.055 A 
ATOM      6  S   UNL     1       1.512  -1.882  -1.436  0.00  0.00    -0.085 S 
ATOM      7 BR   UNL     1       3.105  -2.352  -4.309  0.00  0.00    -0.043 Br
ENDBRANCH   1   2
BRANCH   1   8
ATOM      8  N   UNL     1      -0.463  -2.270   1.099  0.00  0.00    -0.294 NA
ATOM      9  C   UNL     1      -0.900  -1.700   2.380  0.00  0.00    +0.085 C 
ATOM     10  C   UNL     1      -0.118  -2.351   3.523  0.00  0.00    +0.015 C 
ATOM     11  C   UNL     1      -0.363  -3.862   3.506  0.00  0.00    +0.003 C 
ATOM     12  C   UNL     1       0.056  -4.424   2.145  0.00  0.00    +0.019 C 
ATOM     13  C   UNL     1      -0.731  -3.713   1.041  0.00  0.00    +0.059 C 
BRANCH  13  14
ATOM     14  C   UNL     1      -0.301  -4.257  -0.323  0.00  0.00    +0.046 C 
BRANCH  14  15
ATOM     15  C   UNL     1      -0.595  -5.757  -0.389  0.00  0.00    +0.157 C 
BRANCH  15  16
ATOM     16  O   UNL     1      -0.101  -6.285  -1.622  0.00  0.00    -0.395 OA
ATOM     17  H   UNL     1      -0.319  -7.216  -1.766  0.00  0.00    +0.209 HD
ENDBRANCH  15  16
ENDBRANCH  14  15
ENDBRANCH  13  14
ENDBRANCH   1   8
BRANCH   1  18
ATOM     18  C   UNL     1      -1.180  -0.077   0.281  0.00  0.00    -0.053 C 
BRANCH  18  19
ATOM     19  N   UNL     1      -1.761   0.629  -0.870  0.00  0.00    +0.381 N 
ATOM     20  H   UNL     1      -1.820   1.615  -0.665  0.00  0.00    -0.090 HD
ATOM     21  H   UNL     1      -1.177   0.488  -1.681  0.00  0.00    -0.090 HD
ATOM     22  H   UNL     1      -2.685   0.268  -1.054  0.00  0.00    -0.090 HD
ENDBRANCH  18  19
BRANCH  18  24
ATOM     23  C   UNL     1       0.120   1.937   0.985  0.00  0.00    +0.002 C 
ATOM     24  C   UNL     1       0.221   0.471   0.560  0.00  0.00    -0.018 C 
ENDBRANCH  18  24
ENDBRANCH   1  18
TORSDOF 8
