REMARK  Name = ZINC62770522
REMARK  5 active torsions:
REMARK  status: ('A' for Active; 'I' for Inactive)
REMARK    1  A    between atoms: C_1  and  C_2
REMARK    2  A    between atoms: C_2  and  C_4
REMARK    3  A    between atoms: C_2  and  N_10
REMARK    4  A    between atoms: C_4  and  C_5
REMARK    5  A    between atoms: N_10  and  C_11
REMARK                            x       y       z     vdW  Elec       q    Type
REMARK                         _______ _______ _______ _____ _____    ______ ____
ROOT
ATOM      1  C   UNL     1      -2.077  -0.648  -1.189  0.00  0.00    +0.049 A 
ATOM      2  C   UNL     1      -1.470  -0.308  -2.391  0.00  0.00    +0.072 A 
ATOM      3  C   UNL     1      -2.169  -0.444  -3.578  0.00  0.00    +0.144 A 
ATOM      4  C   UNL     1      -3.479  -0.920  -3.563  0.00  0.00    +0.077 A 
ATOM      5  C   UNL     1      -4.082  -1.260  -2.363  0.00  0.00    +0.048 A 
ATOM      6  C   UNL     1      -3.380  -1.129  -1.178  0.00  0.00    +0.064 A 
ATOM      7 CL   UNL     1      -4.132  -1.560   0.326  0.00  0.00    -0.082 Cl
ATOM      8  N   UNL     1      -4.175  -1.051  -4.776  0.00  0.00    -0.280 N 
ATOM      9  C   UNL     1      -3.481  -1.020  -5.935  0.00  0.00    +0.255 C 
ATOM     10  O   UNL     1      -4.064  -1.099  -6.996  0.00  0.00    -0.272 OA
ATOM     11  C   UNL     1      -1.980  -0.885  -5.904  0.00  0.00    +0.325 C 
ATOM     12  O   UNL     1      -1.589  -0.116  -4.764  0.00  0.00    -0.481 OA
ATOM     13  H   UNL     1      -5.138  -1.161  -4.782  0.00  0.00    +0.155 HD
ENDROOT
BRANCH   1  14
ATOM     14  N   UNL     1      -1.372  -0.511   0.012  0.00  0.00    -0.340 N 
ATOM     15  H   UNL     1      -1.794  -0.752   0.852  0.00  0.00    +0.146 HD
BRANCH  14  17
ATOM     16  C   UNL     1      -0.019   1.526   0.010  0.00  0.00    +0.028 C 
ATOM     17  C   UNL     1       0.002  -0.004   0.002  0.00  0.00    +0.075 C 
BRANCH  17  18
ATOM     18  C   UNL     1       0.742  -0.511   1.242  0.00  0.00    +0.096 C 
BRANCH  18  19
ATOM     19  C   UNL     1       0.870  -2.011   1.172  0.00  0.00    +0.107 A 
ATOM     20  C   UNL     1       1.890  -2.688   0.616  0.00  0.00    +0.045 A 
ATOM     21  C   UNL     1       1.603  -4.064   0.773  0.00  0.00    +0.041 A 
ATOM     22  C   UNL     1       0.424  -4.144   1.415  0.00  0.00    +0.195 A 
ATOM     23  O   UNL     1      -0.013  -2.898   1.660  0.00  0.00    -0.468 OA
ENDBRANCH  18  19
ENDBRANCH  17  18
ENDBRANCH  14  17
ENDBRANCH   1  14
TORSDOF 4
