REMARK  Name = ZINC63103749
REMARK  3 active torsions:
REMARK  status: ('A' for Active; 'I' for Inactive)
REMARK    1  A    between atoms: C_6  and  N_7
REMARK    2  A    between atoms: N_11  and  C_12
REMARK    3  A    between atoms: C_12  and  C_13
REMARK                            x       y       z     vdW  Elec       q    Type
REMARK                         _______ _______ _______ _____ _____    ______ ____
ROOT
ATOM      1  C   UNL     1      -0.017   1.388   0.010  0.00  0.00    +0.025 A 
ATOM      2  C   UNL     1       1.143   2.119   0.003  0.00  0.00    +0.031 A 
ATOM      3  C   UNL     1       2.402   1.478  -0.013  0.00  0.00    +0.080 A 
ATOM      4  C   UNL     1       2.386   0.064  -0.021  0.00  0.00    +0.042 A 
ATOM      5  C   UNL     1       1.224  -0.664  -0.013  0.00  0.00    +0.040 A 
ATOM      6  C   UNL     1       0.002  -0.004   0.002  0.00  0.00    +0.026 A 
ATOM      7  S   UNL     1       4.118  -0.334  -0.039  0.00  0.00    -0.052 S 
ATOM      8  C   UNL     1       4.735   1.343  -0.036  0.00  0.00    +0.160 A 
ATOM      9  N   UNL     1       3.629   2.049  -0.022  0.00  0.00    -0.225 NA
ATOM     10  N   UNL     1       6.044   1.784  -0.046  0.00  0.00    -0.318 N 
ATOM     11  H   UNL     1       6.772   1.143  -0.056  0.00  0.00    +0.148 HD
ENDROOT
BRANCH   6  12
ATOM     12  N   UNL     1      -1.195  -0.729   0.009  0.00  0.00    -0.358 N 
ATOM     13  H   UNL     1      -2.045  -0.262   0.019  0.00  0.00    +0.142 HD
ATOM     14  H   UNL     1      -1.175  -1.699   0.004  0.00  0.00    +0.142 HD
ENDBRANCH   6  12
BRANCH  10  15
ATOM     15  C   UNL     1       6.333   3.220  -0.041  0.00  0.00    +0.160 C 
BRANCH  15  16
ATOM     16  C   UNL     1       7.825   3.432  -0.053  0.00  0.00    +0.080 A 
ATOM     17  C   UNL     1       8.612   3.657  -1.188  0.00  0.00    +0.045 A 
ATOM     18  C   UNL     1       9.896   3.798  -0.782  0.00  0.00    +0.105 A 
ATOM     19  N   UNL     1       9.920   3.668   0.560  0.00  0.00    -0.284 N 
ATOM     20  H   UNL     1      10.706   3.723   1.125  0.00  0.00    +0.188 HD
ATOM     21  N   UNL     1       8.607   3.444   0.996  0.00  0.00    -0.177 NA
ENDBRANCH  15  16
ENDBRANCH  10  15
TORSDOF 3
