REMARK  Name = ZINC39677880
REMARK  9 active torsions:
REMARK  status: ('A' for Active; 'I' for Inactive)
REMARK    1  A    between atoms: C_1  and  C_2
REMARK    2  A    between atoms: C_2  and  O_3
REMARK    3  A    between atoms: O_3  and  C_4
REMARK    4  A    between atoms: C_9  and  C_10
REMARK    5  A    between atoms: C_14  and  C_23
REMARK    6  A    between atoms: N_25  and  C_26
REMARK    7  A    between atoms: C_26  and  C_27
REMARK    8  A    between atoms: N_30  and  C_34
REMARK    9  A    between atoms: C_34  and  C_35
REMARK                            x       y       z     vdW  Elec       q    Type
REMARK                         _______ _______ _______ _____ _____    ______ ____
ROOT
ATOM      1  C   UNL     1       2.057  -1.625   3.289  0.00  0.00    +0.250 C 
ATOM      2  O   UNL     1       1.964  -0.425   3.117  0.00  0.00    -0.270 OA
ATOM      3  N   UNL     1       2.568  -2.102   4.442  0.00  0.00    -0.296 N 
ATOM      4  C   UNL     1       2.858  -3.513   4.791  0.00  0.00    +0.121 C 
ATOM      5  C   UNL     1       4.189  -3.455   5.574  0.00  0.00    +0.100 C 
ATOM      6  C   UNL     1       4.253  -2.025   6.134  0.00  0.00    -0.004 C 
ATOM      7  C   UNL     1       2.972  -1.334   5.644  0.00  0.00    +0.115 C 
ATOM      8  C   UNL     1       5.478  -1.298   5.589  0.00  0.00    -0.010 C 
ATOM      9  C   UNL     1       5.551   0.102   6.204  0.00  0.00    -0.082 C 
ATOM     10  N   UNL     1       5.633  -0.007   7.665  0.00  0.00    +0.379 N 
ATOM     11  C   UNL     1       4.409  -0.624   8.191  0.00  0.00    -0.082 C 
ATOM     12  C   UNL     1       4.287  -2.054   7.659  0.00  0.00    -0.010 C 
ATOM     13  H   UNL     1       6.428  -0.576   7.915  0.00  0.00    -0.086 HD
ATOM     14  H   UNL     1       5.742   0.913   8.065  0.00  0.00    -0.086 HD
ENDROOT
BRANCH   1  20
ATOM     15  C   UNL     1       1.753  -2.216   0.886  0.00  0.00    +0.133 A 
ATOM     16  C   UNL     1       1.336  -3.104  -0.095  0.00  0.00    +0.046 A 
ATOM     17  C   UNL     1       0.777  -4.316   0.261  0.00  0.00    +0.004 A 
ATOM     18  C   UNL     1       0.630  -4.654   1.596  0.00  0.00    +0.001 A 
ATOM     19  C   UNL     1       1.039  -3.785   2.583  0.00  0.00    +0.017 A 
ATOM     20  C   UNL     1       1.611  -2.558   2.237  0.00  0.00    +0.078 A 
BRANCH  15  21
ATOM     21  O   UNL     1       2.302  -1.025   0.538  0.00  0.00    -0.491 OA
BRANCH  21  23
ATOM     22  C   UNL     1       3.051   0.631  -1.054  0.00  0.00    +0.048 C 
ATOM     23  C   UNL     1       2.414  -0.746  -0.859  0.00  0.00    +0.226 C 
ENDBRANCH  21  23
ENDBRANCH  15  21
ENDBRANCH   1  20
BRANCH   5  24
ATOM     24  C   UNL     1       4.181  -4.461   6.697  0.00  0.00    +0.218 C 
ATOM     25  O   UNL     1       3.137  -4.756   7.239  0.00  0.00    -0.275 OA
ATOM     26  N   UNL     1       5.334  -5.032   7.098  0.00  0.00    -0.313 N 
ATOM     27  H   UNL     1       6.169  -4.796   6.664  0.00  0.00    +0.149 HD
BRANCH  26  28
ATOM     28  C   UNL     1       5.326  -6.010   8.189  0.00  0.00    +0.137 C 
BRANCH  28  29
ATOM     29  C   UNL     1       6.753  -6.500   8.444  0.00  0.00    +0.149 C 
ATOM     30  C   UNL     1       6.746  -7.523   9.582  0.00  0.00    +0.118 C 
ATOM     31  N   UNL     1       8.106  -8.048   9.771  0.00  0.00    -0.293 NA
ATOM     32  C   UNL     1       8.600  -8.673   8.536  0.00  0.00    +0.113 C 
ATOM     33  C   UNL     1       8.588  -7.638   7.407  0.00  0.00    +0.175 C 
ATOM     34  O   UNL     1       7.265  -7.115   7.259  0.00  0.00    -0.372 OA
BRANCH  31  35
ATOM     35  C   UNL     1       8.154  -8.993  10.895  0.00  0.00    +0.119 C 
BRANCH  35  36
ATOM     36  C   UNL     1       9.590  -9.320  11.215  0.00  0.00    -0.033 A 
ATOM     37  C   UNL     1      10.213 -10.383  10.588  0.00  0.00    +0.005 A 
ATOM     38  C   UNL     1      11.530 -10.683  10.882  0.00  0.00    +0.000 A 
ATOM     39  C   UNL     1      12.224  -9.919  11.803  0.00  0.00    +0.000 A 
ATOM     40  C   UNL     1      11.601  -8.856  12.429  0.00  0.00    +0.000 A 
ATOM     41  C   UNL     1      10.285  -8.554  12.132  0.00  0.00    +0.005 A 
ENDBRANCH  35  36
ENDBRANCH  31  35
ENDBRANCH  28  29
ENDBRANCH  26  28
ENDBRANCH   5  24
TORSDOF 8
