REMARK  Name = ZINC25452431
REMARK  9 active torsions:
REMARK  status: ('A' for Active; 'I' for Inactive)
REMARK    1  A    between atoms: C_1  and  C_2
REMARK    2  A    between atoms: C_5  and  N_9
REMARK    3  A    between atoms: C_6  and  C_8
REMARK    4  A    between atoms: C_13  and  C_15
REMARK    5  A    between atoms: C_15  and  C_17
REMARK    6  A    between atoms: C_15  and  S_18
REMARK    7  A    between atoms: S_18  and  C_19
REMARK    8  A    between atoms: C_22  and  C_25
REMARK    9  A    between atoms: N_23  and  N_24
REMARK                            x       y       z     vdW  Elec       q    Type
REMARK                         _______ _______ _______ _____ _____    ______ ____
ROOT
ATOM      1  C   UNL     1      -0.953   1.404   1.520  0.00  0.00    +0.137 C 
ATOM      2  C   UNL     1      -0.331   0.954   0.197  0.00  0.00    +0.029 C 
ENDROOT
BRANCH   1   7
ATOM      3  N   UNL     1       2.780   1.873   4.512  0.00  0.00    -0.269 N 
ATOM      4  C   UNL     1       1.710   1.165   4.102  0.00  0.00    +0.310 C 
ATOM      5  O   UNL     1       1.423   0.122   4.656  0.00  0.00    -0.252 OA
ATOM      6  N   UNL     1       0.958   1.612   3.077  0.00  0.00    -0.239 N 
ATOM      7  C   UNL     1      -0.112   0.904   2.666  0.00  0.00    +0.234 C 
ATOM      8  O   UNL     1      -0.399  -0.136   3.219  0.00  0.00    -0.274 OA
ATOM      9  H   UNL     1       2.996   2.854   4.063  0.00  0.00    +0.156 HD
ATOM     10  H   UNL     1       1.218   2.556   2.575  0.00  0.00    +0.159 HD
BRANCH   3  15
ATOM     11  C   UNL     1       6.174  -0.202   8.557  0.00  0.00    +0.044 C 
ATOM     12  C   UNL     1       5.273   0.349   7.483  0.00  0.00    -0.050 A 
ATOM     13  C   UNL     1       3.936  -0.005   7.455  0.00  0.00    +0.005 A 
ATOM     14  C   UNL     1       3.107   0.498   6.471  0.00  0.00    +0.024 A 
ATOM     15  C   UNL     1       3.618   1.362   5.510  0.00  0.00    +0.038 A 
ATOM     16  C   UNL     1       4.961   1.711   5.538  0.00  0.00    -0.029 A 
ATOM     17  C   UNL     1       5.783   1.209   6.528  0.00  0.00    +0.008 A 
ATOM     18  C   UNL     1       5.520   2.643   4.494  0.00  0.00    +0.045 C 
ENDBRANCH   3  15
ENDBRANCH   1   7
BRANCH   1  19
ATOM     19  S   UNL     1      -2.627   0.731   1.660  0.00  0.00    -0.072 S 
BRANCH  19  20
ATOM     20  C   UNL     1      -3.409   1.573   0.325  0.00  0.00    +0.209 A 
ATOM     21  N   UNL     1      -2.843   2.435  -0.491  0.00  0.00    -0.121 NA
ATOM     22  N   UNL     1      -3.701   2.858  -1.350  0.00  0.00    -0.127 NA
ATOM     23  C   UNL     1      -4.866   2.293  -1.135  0.00  0.00    +0.183 A 
ATOM     24  N   UNL     1      -4.713   1.448  -0.059  0.00  0.00    -0.224 N 
BRANCH  23  25
ATOM     25  C   UNL     1      -6.107   2.517  -1.906  0.00  0.00    +0.039 A 
ATOM     26  C   UNL     1      -7.313   2.748  -1.243  0.00  0.00    +0.013 A 
ATOM     27  C   UNL     1      -8.467   2.957  -1.968  0.00  0.00    +0.001 A 
ATOM     28  C   UNL     1      -8.432   2.939  -3.352  0.00  0.00    +0.001 A 
ATOM     29  C   UNL     1      -7.241   2.710  -4.017  0.00  0.00    +0.021 A 
ATOM     30  C   UNL     1      -6.077   2.505  -3.302  0.00  0.00    +0.052 A 
ATOM     31 CL   UNL     1      -4.581   2.225  -4.138  0.00  0.00    -0.083 Cl
ENDBRANCH  23  25
BRANCH  24  32
ATOM     32  N   UNL     1      -5.668   0.653   0.508  0.00  0.00    -0.295 N 
ATOM     33  H   UNL     1      -6.690   0.644   0.100  0.00  0.00    +0.163 HD
ATOM     34  H   UNL     1      -5.415   0.021   1.372  0.00  0.00    +0.163 HD
ENDBRANCH  24  32
ENDBRANCH  19  20
ENDBRANCH   1  19
TORSDOF 6
