REMARK  Name = ZINC18205462
REMARK  4 active torsions:
REMARK  status: ('A' for Active; 'I' for Inactive)
REMARK    1  A    between atoms: C_1  and  C_2
REMARK    2  A    between atoms: C_6  and  N_8
REMARK    3  A    between atoms: N_9  and  C_10
REMARK    4  A    between atoms: C_13  and  O_16
REMARK                            x       y       z     vdW  Elec       q    Type
REMARK                         _______ _______ _______ _____ _____    ______ ____
ROOT
ATOM      1  N   UNL     1       0.053  -3.139   1.520  0.00  0.00    -0.107 NA
ATOM      2  N   UNL     1       0.068  -4.335   1.036  0.00  0.00    -0.146 NA
ENDROOT
BRANCH   1   8
ATOM      3  C   UNL     1      -0.018   1.503   0.010  0.00  0.00    +0.087 C 
ATOM      4  C   UNL     1       0.002  -0.004   0.002  0.00  0.00    +0.124 A 
ATOM      5  N   UNL     1       0.008  -0.786  -1.094  0.00  0.00    -0.261 N 
ATOM      6  H   UNL     1      -0.001  -0.490  -2.018  0.00  0.00    +0.190 HD
ATOM      7  N   UNL     1       0.028  -2.114  -0.638  0.00  0.00    -0.131 NA
ATOM      8  C   UNL     1       0.034  -2.062   0.679  0.00  0.00    +0.288 A 
ATOM      9  N   UNL     1       0.023  -0.774   1.056  0.00  0.00    -0.194 NA
ENDBRANCH   1   8
BRANCH   2  10
ATOM     10  C   UNL     1       0.087  -5.411   1.876  0.00  0.00    +0.087 A 
ATOM     11  C   UNL     1       0.084  -5.220   3.261  0.00  0.00    +0.033 A 
ATOM     12  C   UNL     1       0.103  -6.308   4.105  0.00  0.00    +0.047 A 
ATOM     13  C   UNL     1       0.124  -7.595   3.581  0.00  0.00    +0.117 A 
ATOM     14  C   UNL     1       0.127  -7.791   2.205  0.00  0.00    +0.047 A 
ATOM     15  C   UNL     1       0.103  -6.708   1.354  0.00  0.00    +0.033 A 
BRANCH  13  16
ATOM     16  O   UNL     1       0.143  -8.666   4.416  0.00  0.00    -0.507 OA
ATOM     17  H   UNL     1      -0.735  -8.991   4.659  0.00  0.00    +0.292 HD
ENDBRANCH  13  16
ENDBRANCH   2  10
TORSDOF 3
