REMARK  Name = ZINC66524599
REMARK  8 active torsions:
REMARK  status: ('A' for Active; 'I' for Inactive)
REMARK    1  A    between atoms: C_1  and  C_2
REMARK    2  A    between atoms: C_2  and  C_3
REMARK    3  A    between atoms: C_3  and  C_5
REMARK    4  A    between atoms: C_3  and  N_15
REMARK    5  A    between atoms: C_16  and  C_18
REMARK    6  A    between atoms: C_18  and  N_19
REMARK    7  A    between atoms: C_22  and  C_26
REMARK    8  A    between atoms: C_22  and  C_27
REMARK                            x       y       z     vdW  Elec       q    Type
REMARK                         _______ _______ _______ _____ _____    ______ ____
ROOT
ATOM      1  N   UNL     1      -2.082  -0.162   1.273  0.00  0.00    -0.304 N 
ATOM      2  C   UNL     1      -2.664   1.047   1.400  0.00  0.00    +0.232 C 
ATOM      3  O   UNL     1      -2.651   1.827   0.471  0.00  0.00    -0.274 OA
ATOM      4  H   UNL     1      -2.092  -0.785   2.016  0.00  0.00    +0.149 HD
ENDROOT
BRANCH   1   5
ATOM      5  C   UNL     1      -1.433  -0.534   0.013  0.00  0.00    +0.139 C 
BRANCH   5   6
ATOM      6  C   UNL     1      -1.416  -2.035  -0.119  0.00  0.00    +0.129 A 
ATOM      7  N   UNL     1      -2.014  -2.900   0.743  0.00  0.00    -0.340 N 
ATOM      8  H   UNL     1      -2.518  -2.663   1.538  0.00  0.00    +0.167 HD
ATOM      9  C   UNL     1      -1.771  -4.177   0.279  0.00  0.00    +0.066 A 
ATOM     10  C   UNL     1      -2.115  -5.448   0.719  0.00  0.00    +0.028 A 
ATOM     11  C   UNL     1      -1.702  -6.553   0.006  0.00  0.00    +0.002 A 
ATOM     12  C   UNL     1      -0.947  -6.402  -1.149  0.00  0.00    +0.002 A 
ATOM     13  C   UNL     1      -0.599  -5.160  -1.597  0.00  0.00    +0.030 A 
ATOM     14  C   UNL     1      -1.007  -4.025  -0.890  0.00  0.00    +0.089 A 
ATOM     15  N   UNL     1      -0.831  -2.692  -1.078  0.00  0.00    -0.231 NA
ENDBRANCH   5   6
BRANCH   5  17
ATOM     16  C   UNL     1      -0.019   1.526   0.010  0.00  0.00    +0.006 C 
ATOM     17  C   UNL     1       0.002  -0.004   0.002  0.00  0.00    +0.027 C 
ENDBRANCH   5  17
ENDBRANCH   1   5
BRANCH   2  18
ATOM     18  C   UNL     1      -3.330   1.430   2.696  0.00  0.00    +0.213 C 
BRANCH  18  19
ATOM     19  N   UNL     1      -3.883   2.782   2.581  0.00  0.00    -0.215 N 
ATOM     20  C   UNL     1      -3.204   3.905   2.886  0.00  0.00    +0.247 C 
ATOM     21  O   UNL     1      -2.064   3.985   3.292  0.00  0.00    -0.273 OA
ATOM     22  C   UNL     1      -4.161   5.049   2.615  0.00  0.00    +0.113 C 
ATOM     23  N   UNL     1      -5.383   4.373   2.144  0.00  0.00    -0.285 N 
ATOM     24  C   UNL     1      -5.121   3.054   2.154  0.00  0.00    +0.310 C 
ATOM     25  O   UNL     1      -5.922   2.204   1.817  0.00  0.00    -0.252 OA
ATOM     26  C   UNL     1      -4.440   5.833   3.898  0.00  0.00    +0.042 C 
ATOM     27  H   UNL     1      -6.213   4.798   1.876  0.00  0.00    +0.151 HD
BRANCH  22  28
ATOM     28  C   UNL     1      -3.604   5.971   1.529  0.00  0.00    +0.021 C 
ATOM     29  C   UNL     1      -3.062   7.333   1.968  0.00  0.00    +0.006 C 
ATOM     30  C   UNL     1      -4.390   7.245   1.212  0.00  0.00    +0.006 C 
ENDBRANCH  22  28
ENDBRANCH  18  19
ENDBRANCH   2  18
TORSDOF 6
