REMARK  Name = ZINC03503391
REMARK  10 active torsions:
REMARK  status: ('A' for Active; 'I' for Inactive)
REMARK    1  A    between atoms: C_1  and  C_2
REMARK    2  A    between atoms: C_2  and  C_3
REMARK    3  A    between atoms: C_2  and  C_4
REMARK    4  A    between atoms: C_4  and  C_5
REMARK    5  A    between atoms: C_5  and  N_6
REMARK    6  A    between atoms: C_10  and  C_12
REMARK    7  A    between atoms: C_12  and  O_13
REMARK    8  A    between atoms: O_13  and  C_14
REMARK    9  A    between atoms: C_14  and  C_16
REMARK   10  A    between atoms: C_21  and  N_22
REMARK                            x       y       z     vdW  Elec       q    Type
REMARK                         _______ _______ _______ _____ _____    ______ ____
ROOT
ATOM      1  C   UNL     1       4.751   4.624  -0.875  0.00  0.00    +0.328 C 
ENDROOT
BRANCH   1   6
ATOM      2  N   UNL     1       9.447   3.879  -1.581  0.00  0.00    -0.299 N 
ATOM      3  C   UNL     1       8.220   3.375  -1.344  0.00  0.00    +0.306 C 
ATOM      4  O   UNL     1       8.067   2.175  -1.228  0.00  0.00    -0.252 OA
ATOM      5  N   UNL     1       7.161   4.202  -1.234  0.00  0.00    -0.237 N 
ATOM      6  C   UNL     1       5.934   3.699  -0.997  0.00  0.00    +0.258 C 
ATOM      7  O   UNL     1       5.782   2.501  -0.882  0.00  0.00    -0.272 OA
ATOM      8  H   UNL     1       9.569   4.837  -1.673  0.00  0.00    +0.150 HD
ATOM      9  H   UNL     1       7.283   5.160  -1.326  0.00  0.00    +0.159 HD
BRANCH   2  10
ATOM     10  C   UNL     1      10.598   2.980  -1.700  0.00  0.00    +0.106 C 
BRANCH  10  11
ATOM     11  C   UNL     1      11.861   3.801  -1.967  0.00  0.00    +0.022 C 
BRANCH  11  13
ATOM     12  C   UNL     1      12.889   1.972  -3.324  0.00  0.00    +0.007 C 
ATOM     13  C   UNL     1      13.062   2.862  -2.091  0.00  0.00    -0.016 C 
ATOM     14  C   UNL     1      14.342   3.688  -2.233  0.00  0.00    +0.007 C 
ENDBRANCH  11  13
ENDBRANCH  10  11
ENDBRANCH   2  10
ENDBRANCH   1   6
BRANCH   1  15
ATOM     15  O   UNL     1       3.552   3.845  -0.621  0.00  0.00    -0.452 OA
BRANCH  15  16
ATOM     16  C   UNL     1       2.397   4.526  -0.485  0.00  0.00    +0.342 C 
ATOM     17  O   UNL     1       2.392   5.738  -0.576  0.00  0.00    -0.245 OA
BRANCH  16  18
ATOM     18  C   UNL     1       1.141   3.802  -0.227  0.00  0.00    +0.082 A 
ATOM     19  C   UNL     1       1.158   2.422   0.002  0.00  0.00    +0.037 A 
ATOM     20  C   UNL     1      -0.021   1.750   0.243  0.00  0.00    +0.043 A 
ATOM     21  C   UNL     1      -1.227   2.434   0.257  0.00  0.00    +0.042 A 
ATOM     22  C   UNL     1      -1.260   3.797   0.038  0.00  0.00    +0.064 A 
ATOM     23  C   UNL     1      -0.081   4.492  -0.207  0.00  0.00    +0.057 A 
ATOM     24 CL   UNL     1      -2.776   4.643   0.065  0.00  0.00    -0.082 Cl
ATOM     25 CL   UNL     1       0.004   0.037   0.526  0.00  0.00    -0.083 Cl
BRANCH  23  26
ATOM     26  N   UNL     1      -0.113   5.863  -0.432  0.00  0.00    -0.356 N 
ATOM     27  H   UNL     1       0.605   6.290  -0.926  0.00  0.00    +0.142 HD
ATOM     28  H   UNL     1      -0.852   6.393  -0.096  0.00  0.00    +0.142 HD
ENDBRANCH  23  26
ENDBRANCH  16  18
ENDBRANCH  15  16
ENDBRANCH   1  15
TORSDOF 8
