REMARK  Name = ZINC35648887
REMARK  6 active torsions:
REMARK  status: ('A' for Active; 'I' for Inactive)
REMARK    1  A    between atoms: C_1  and  C_2
REMARK    2  A    between atoms: C_3  and  C_11
REMARK    3  A    between atoms: C_7  and  N_8
REMARK    4  A    between atoms: C_11  and  N_12
REMARK    5  A    between atoms: N_12  and  C_13
REMARK    6  A    between atoms: C_16  and  C_20
REMARK                            x       y       z     vdW  Elec       q    Type
REMARK                         _______ _______ _______ _____ _____    ______ ____
ROOT
ATOM      1  C   UNL     1      -0.750   0.015  -2.412  0.00  0.00    +0.137 C 
ENDROOT
BRANCH   1   4
ATOM      2  C   UNL     1      -0.538   1.447   0.089  0.00  0.00    +0.046 C 
ATOM      3  C   UNL     1      -0.247  -0.031   0.040  0.00  0.00    -0.016 A 
ATOM      4  C   UNL     1      -0.347  -0.716  -1.157  0.00  0.00    -0.025 A 
ATOM      5  C   UNL     1      -0.080  -2.071  -1.202  0.00  0.00    +0.005 A 
ATOM      6  C   UNL     1       0.289  -2.742  -0.051  0.00  0.00    +0.003 A 
ATOM      7  C   UNL     1       0.391  -2.057   1.145  0.00  0.00    +0.033 A 
ATOM      8  C   UNL     1       0.127  -0.700   1.190  0.00  0.00    +0.129 A 
BRANCH   8   9
ATOM      9  N   UNL     1       0.241   0.035   2.470  0.00  0.00    +0.057 N 
ATOM     10  O   UNL     1       0.674   1.163   2.482  0.00  0.00    -0.126 OA
ATOM     11  O   UNL     1      -0.099  -0.494   3.502  0.00  0.00    -0.126 OA
ENDBRANCH   8   9
ENDBRANCH   1   4
BRANCH   1  12
ATOM     12  N   UNL     1       0.411   0.723  -2.958  0.00  0.00    -0.340 N 
ATOM     13  H   UNL     1       1.268   0.669  -2.507  0.00  0.00    +0.146 HD
BRANCH  12  14
ATOM     14  C   UNL     1       0.283   1.474  -4.123  0.00  0.00    +0.029 A 
ATOM     15  C   UNL     1      -0.949   1.555  -4.766  0.00  0.00    +0.024 A 
ATOM     16  C   UNL     1      -1.080   2.296  -5.918  0.00  0.00    +0.022 A 
ATOM     17  C   UNL     1       0.028   2.968  -6.444  0.00  0.00    +0.070 A 
ATOM     18  C   UNL     1       1.265   2.885  -5.796  0.00  0.00    +0.060 A 
ATOM     19  C   UNL     1       1.387   2.146  -4.639  0.00  0.00    +0.044 A 
ATOM     20 CL   UNL     1       2.644   3.718  -6.445  0.00  0.00    -0.082 Cl
BRANCH  17  21
ATOM     21  C   UNL     1      -0.104   3.740  -7.643  0.00  0.00    +0.101 C 
ATOM     22  N   UNL     1      -0.209   4.352  -8.595  0.00  0.00    -0.191 NA
ENDBRANCH  17  21
ENDBRANCH  12  14
ENDBRANCH   1  12
TORSDOF 5
