REMARK  Name = ZINC30828310
REMARK  12 active torsions:
REMARK  status: ('A' for Active; 'I' for Inactive)
REMARK    1  A    between atoms: C_1  and  C_2
REMARK    2  A    between atoms: C_2  and  N_3
REMARK    3  A    between atoms: N_6  and  C_9
REMARK    4  A    between atoms: C_12  and  C_34
REMARK    5  A    between atoms: C_14  and  N_15
REMARK    6  A    between atoms: C_16  and  C_18
REMARK    7  A    between atoms: C_20  and  N_31
REMARK    8  A    between atoms: C_23  and  N_24
REMARK    9  A    between atoms: C_27  and  C_30
REMARK   10  A    between atoms: C_34  and  O_36
REMARK   11  A    between atoms: O_36  and  C_37
REMARK   12  A    between atoms: C_37  and  C_38
REMARK                            x       y       z     vdW  Elec       q    Type
REMARK                         _______ _______ _______ _____ _____    ______ ____
ROOT
ATOM      1  C   UNL     1       1.257   2.266  -0.391  0.00  0.00    +0.051 A 
ATOM      2  C   UNL     1       2.485   1.623  -0.490  0.00  0.00    +0.026 A 
ATOM      3  C   UNL     1       2.546   0.248  -0.525  0.00  0.00    +0.017 A 
ATOM      4  C   UNL     1       1.370  -0.506  -0.462  0.00  0.00    +0.061 A 
ATOM      5  C   UNL     1       0.133   0.138  -0.362  0.00  0.00    +0.040 A 
ATOM      6  C   UNL     1       0.077   1.519  -0.327  0.00  0.00    +0.056 A 
ENDROOT
BRANCH   1  10
ATOM      7  N   UNL     1       2.291   6.286  -0.411  0.00  0.00    +0.382 N 
ATOM      8  C   UNL     1       1.792   5.707   0.844  0.00  0.00    -0.060 C 
ATOM      9  C   UNL     1       1.944   4.185   0.796  0.00  0.00    +0.086 C 
ATOM     10  N   UNL     1       1.200   3.657  -0.356  0.00  0.00    -0.332 N 
ATOM     11  C   UNL     1       1.699   4.236  -1.611  0.00  0.00    +0.086 C 
ATOM     12  C   UNL     1       1.547   5.758  -1.563  0.00  0.00    -0.060 C 
ATOM     13  H   UNL     1       3.345   5.995  -0.525  0.00  0.00    -0.082 HD
BRANCH   7  15
ATOM     14  C   UNL     1       2.518   8.311  -1.770  0.00  0.00    -0.017 C 
ATOM     15  C   UNL     1       2.232   7.754  -0.374  0.00  0.00    -0.082 C 
ENDBRANCH   7  15
ENDBRANCH   1  10
BRANCH   6  16
ATOM     16  N   UNL     1      -1.161   2.168  -0.233  0.00  0.00    -0.280 N 
ATOM     17  C   UNL     1      -2.248   1.636  -0.827  0.00  0.00    +0.250 C 
ATOM     18  O   UNL     1      -2.174   0.550  -1.370  0.00  0.00    -0.270 OA
ATOM     19  H   UNL     1      -1.245   3.113   0.324  0.00  0.00    +0.155 HD
BRANCH  17  20
ATOM     20  C   UNL     1      -3.526   2.370  -0.817  0.00  0.00    +0.060 A 
ATOM     21  C   UNL     1      -3.590   3.665  -0.295  0.00  0.00    +0.047 A 
ATOM     22  C   UNL     1      -4.787   4.345  -0.290  0.00  0.00    +0.127 A 
ATOM     23  C   UNL     1      -5.932   3.753  -0.800  0.00  0.00    +0.034 A 
ATOM     24  C   UNL     1      -5.885   2.476  -1.319  0.00  0.00    +0.026 A 
ATOM     25  C   UNL     1      -4.686   1.775  -1.338  0.00  0.00    +0.042 A 
BRANCH  25  26
ATOM     26  N   UNL     1      -4.635   0.491  -1.865  0.00  0.00    -0.329 N 
ATOM     27  C   UNL     1      -5.539  -0.411  -1.140  0.00  0.00    +0.105 C 
ATOM     28  C   UNL     1      -5.350  -1.842  -1.650  0.00  0.00    +0.022 C 
ATOM     29  C   UNL     1      -5.649  -1.887  -3.151  0.00  0.00    -0.011 C 
ATOM     30  C   UNL     1      -4.728  -0.903  -3.877  0.00  0.00    +0.022 C 
ATOM     31  C   UNL     1      -4.934   0.500  -3.303  0.00  0.00    +0.105 C 
ATOM     32  C   UNL     1      -5.404  -3.302  -3.679  0.00  0.00    +0.007 C 
ENDBRANCH  25  26
BRANCH  22  33
ATOM     33  N   UNL     1      -4.852   5.717   0.264  0.00  0.00    +0.056 N 
ATOM     34  O   UNL     1      -3.848   6.240   0.713  0.00  0.00    -0.126 OA
ATOM     35  O   UNL     1      -5.909   6.322   0.270  0.00  0.00    -0.126 OA
ENDBRANCH  22  33
ENDBRANCH  17  20
ENDBRANCH   6  16
BRANCH   4  36
ATOM     36  C   UNL     1       1.435  -1.978  -0.500  0.00  0.00    +0.339 C 
ATOM     37  O   UNL     1       0.412  -2.632  -0.445  0.00  0.00    -0.245 OA
BRANCH  36  38
ATOM     38  O   UNL     1       2.627  -2.598  -0.596  0.00  0.00    -0.461 OA
BRANCH  38  39
ATOM     39  C   UNL     1       2.615  -4.050  -0.628  0.00  0.00    +0.229 C 
ATOM     40  C   UNL     1       4.050  -4.569  -0.738  0.00  0.00    +0.048 C 
ENDBRANCH  38  39
ENDBRANCH  36  38
ENDBRANCH   4  36
TORSDOF 9
