REMARK  Name = ZINC28705180
REMARK  5 active torsions:
REMARK  status: ('A' for Active; 'I' for Inactive)
REMARK    1  A    between atoms: C_1  and  N_2
REMARK    2  A    between atoms: N_2  and  C_3
REMARK    3  A    between atoms: N_2  and  C_17
REMARK    4  A    between atoms: C_3  and  N_4
REMARK    5  A    between atoms: N_10  and  C_11
REMARK                            x       y       z     vdW  Elec       q    Type
REMARK                         _______ _______ _______ _____ _____    ______ ____
ROOT
ATOM      1  N   UNL     1       2.196   1.069  -0.013  0.00  0.00    -0.265 N 
ATOM      2  C   UNL     1       1.775  -0.221  -0.016  0.00  0.00    +0.143 A 
ATOM      3  S   UNL     1       2.694  -1.665  -0.033  0.00  0.00    -0.023 S 
ATOM      4  S   UNL     1       0.002  -0.004   0.002  0.00  0.00    -0.026 S 
ATOM      5  C   UNL     1      -0.022   1.781   0.012  0.00  0.00    +0.180 A 
ATOM      6  N   UNL     1       1.253   2.070   0.001  0.00  0.00    -0.149 NA
ATOM      7  N   UNL     1      -1.112   2.640   0.022  0.00  0.00    -0.319 N 
ATOM      8  H   UNL     1      -0.955   3.729   0.027  0.00  0.00    +0.148 HD
ENDROOT
BRANCH   7   9
ATOM      9  C   UNL     1      -2.473   2.097   0.026  0.00  0.00    +0.072 C 
ATOM     10  C   UNL     1      -2.907   1.798  -1.410  0.00  0.00    +0.022 C 
ATOM     11  C   UNL     1      -4.328   1.231  -1.405  0.00  0.00    +0.002 C 
ATOM     12  C   UNL     1      -5.284   2.252  -0.785  0.00  0.00    +0.000 C 
ATOM     13  C   UNL     1      -4.849   2.551   0.651  0.00  0.00    +0.002 C 
ATOM     14  C   UNL     1      -3.428   3.119   0.646  0.00  0.00    +0.022 C 
ENDBRANCH   7   9
BRANCH   1  15
ATOM     15  C   UNL     1       3.626   1.388  -0.025  0.00  0.00    +0.071 C 
BRANCH  15  17
ATOM     16  C   UNL     1       3.471   2.653  -2.084  0.00  0.00    -0.093 C 
ATOM     17  N   UNL     1       4.091   1.502  -1.413  0.00  0.00    +0.393 N 
ATOM     18  H   UNL     1       3.783   0.592  -1.949  0.00  0.00    -0.079 HD
BRANCH  17  19
ATOM     19  C   UNL     1       5.557   1.586  -1.472  0.00  0.00    -0.066 C 
ATOM     20  C   UNL     1       6.021   2.881  -0.802  0.00  0.00    -0.015 C 
ATOM     21  C   UNL     1       7.547   2.968  -0.864  0.00  0.00    -0.002 C 
ATOM     22  C   UNL     1       8.000   2.960  -2.325  0.00  0.00    -0.000 C 
ATOM     23  C   UNL     1       7.536   1.665  -2.996  0.00  0.00    -0.002 C 
ATOM     24  C   UNL     1       6.009   1.578  -2.934  0.00  0.00    -0.015 C 
ENDBRANCH  17  19
ENDBRANCH  15  17
ENDBRANCH   1  15
TORSDOF 4
