REMARK  Name = ZINC64197790
REMARK  7 active torsions:
REMARK  status: ('A' for Active; 'I' for Inactive)
REMARK    1  A    between atoms: C_1  and  C_2
REMARK    2  A    between atoms: C_5  and  N_8
REMARK    3  A    between atoms: C_9  and  C_11
REMARK    4  A    between atoms: C_11  and  C_13
REMARK    5  A    between atoms: C_11  and  N_23
REMARK    6  A    between atoms: C_13  and  C_14
REMARK    7  A    between atoms: C_24  and  C_26
REMARK                            x       y       z     vdW  Elec       q    Type
REMARK                         _______ _______ _______ _____ _____    ______ ____
ROOT
ATOM      1  C   UNL     1       0.309  -6.349   1.121  0.00  0.00    +0.163 C 
ENDROOT
BRANCH   1   3
ATOM      2  N   UNL     1       0.059  -4.170  -0.021  0.00  0.00    -0.284 N 
ATOM      3  C   UNL     1       0.175  -4.848   1.138  0.00  0.00    +0.238 C 
ATOM      4  O   UNL     1       0.173  -4.251   2.193  0.00  0.00    -0.273 OA
ATOM      5  H   UNL     1      -0.017  -4.651  -0.860  0.00  0.00    +0.155 HD
BRANCH   2  10
ATOM      6  C   UNL     1       0.008   1.503   0.007  0.00  0.00    +0.044 C 
ATOM      7  C   UNL     1       0.021  -0.004  -0.000  0.00  0.00    -0.050 A 
ATOM      8  C   UNL     1       0.777  -0.692   0.931  0.00  0.00    +0.005 A 
ATOM      9  C   UNL     1       0.791  -2.073   0.927  0.00  0.00    +0.023 A 
ATOM     10  C   UNL     1       0.046  -2.771  -0.014  0.00  0.00    +0.033 A 
ATOM     11  C   UNL     1      -0.712  -2.077  -0.948  0.00  0.00    +0.023 A 
ATOM     12  C   UNL     1      -0.726  -0.696  -0.936  0.00  0.00    +0.005 A 
ENDBRANCH   2  10
ENDBRANCH   1   3
BRANCH   1  13
ATOM     13  N   UNL     1       0.420  -6.845   2.495  0.00  0.00    -0.302 N 
ATOM     14  C   UNL     1       1.032  -8.020   2.741  0.00  0.00    +0.231 C 
ATOM     15  O   UNL     1       1.492  -8.667   1.824  0.00  0.00    -0.274 OA
ATOM     16  H   UNL     1       0.052  -6.327   3.229  0.00  0.00    +0.150 HD
BRANCH  14  17
ATOM     17  C   UNL     1       1.146  -8.530   4.154  0.00  0.00    +0.145 C 
ATOM     18  C   UNL     1       2.309  -7.832   4.860  0.00  0.00    +0.063 C 
ATOM     19  C   UNL     1       2.585  -8.500   6.182  0.00  0.00    -0.041 A 
ATOM     20  C   UNL     1       3.343  -7.819   7.123  0.00  0.00    +0.004 A 
ATOM     21  C   UNL     1       3.622  -8.397   8.345  0.00  0.00    +0.000 A 
ATOM     22  C   UNL     1       3.144  -9.662   8.632  0.00  0.00    +0.000 A 
ATOM     23  C   UNL     1       2.388 -10.340   7.698  0.00  0.00    +0.005 A 
ATOM     24  C   UNL     1       2.105  -9.760   6.470  0.00  0.00    -0.030 A 
ATOM     25  C   UNL     1       1.267 -10.534   5.487  0.00  0.00    +0.117 C 
ATOM     26  N   UNL     1       1.406  -9.978   4.138  0.00  0.00    -0.301 NA
ATOM     27  H   UNL     1       0.796 -10.447   3.486  0.00  0.00    +0.123 HD
ENDBRANCH  14  17
ENDBRANCH   1  13
BRANCH   1  28
ATOM     28  C   UNL     1      -0.924  -6.964   0.456  0.00  0.00    +0.065 C 
BRANCH  28  29
ATOM     29  C   UNL     1      -0.737  -8.454   0.328  0.00  0.00    -0.039 C 
ATOM     30  C   UNL     1      -1.177  -9.405   1.183  0.00  0.00    -0.001 A 
ATOM     31  C   UNL     1      -1.933  -9.339   2.440  0.00  0.00    +0.010 A 
ATOM     32  C   UNL     1      -2.233 -10.489   3.086  0.00  0.00    +0.001 A 
ATOM     33  C   UNL     1      -1.841 -11.739   2.587  0.00  0.00    +0.002 A 
ATOM     34  C   UNL     1      -1.144 -11.880   1.439  0.00  0.00    +0.026 A 
ATOM     35  C   UNL     1      -0.775 -10.736   0.677  0.00  0.00    +0.043 A 
ATOM     36  N   UNL     1      -0.112 -10.614  -0.447  0.00  0.00    -0.380 N 
ATOM     37  C   UNL     1      -0.023  -9.189  -0.784  0.00  0.00    +0.144 C 
ATOM     38  H   UNL     1       0.256 -11.343  -0.970  0.00  0.00    +0.160 HD
ENDBRANCH  28  29
ENDBRANCH   1  28
TORSDOF 6
