REMARK  Name = ZINC46501043
REMARK  5 active torsions:
REMARK  status: ('A' for Active; 'I' for Inactive)
REMARK    1  A    between atoms: C_3  and  C_24
REMARK    2  A    between atoms: C_6  and  N_7
REMARK    3  A    between atoms: N_7  and  C_8
REMARK    4  A    between atoms: C_8  and  C_9
REMARK    5  A    between atoms: C_17  and  N_20
REMARK                            x       y       z     vdW  Elec       q    Type
REMARK                         _______ _______ _______ _____ _____    ______ ____
ROOT
ATOM      1  C   UNL     1      -1.176  -2.179   0.002  0.00  0.00    +0.198 C 
ENDROOT
BRANCH   1   2
ATOM      2  C   UNL     1      -2.590  -2.699   0.012  0.00  0.00    +0.237 C 
ATOM      3  O   UNL     1      -3.522  -1.922   0.025  0.00  0.00    -0.274 OA
ATOM      4  N   UNL     1      -2.820  -4.026   0.007  0.00  0.00    -0.269 N 
ATOM      5  C   UNL     1      -1.781  -5.059  -0.002  0.00  0.00    +0.118 C 
ATOM      6  C   UNL     1      -2.540  -6.396  -0.004  0.00  0.00    +0.056 C 
ATOM      7  C   UNL     1      -4.001  -6.004   0.005  0.00  0.00    -0.024 A 
ATOM      8  C   UNL     1      -4.086  -4.621   0.016  0.00  0.00    +0.042 A 
ATOM      9  C   UNL     1      -5.346  -4.019   0.031  0.00  0.00    +0.056 A 
ATOM     10  C   UNL     1      -6.486  -4.795   0.038  0.00  0.00    +0.128 A 
ATOM     11  C   UNL     1      -6.390  -6.174   0.031  0.00  0.00    +0.033 A 
ATOM     12  C   UNL     1      -5.146  -6.777   0.007  0.00  0.00    +0.008 A 
BRANCH  10  13
ATOM     13  N   UNL     1      -7.817  -4.148   0.055  0.00  0.00    +0.056 N 
ATOM     14  O   UNL     1      -7.904  -2.942   0.062  0.00  0.00    -0.126 OA
ATOM     15  O   UNL     1      -8.819  -4.826   0.061  0.00  0.00    -0.126 OA
ENDBRANCH  10  13
ENDBRANCH   1   2
BRANCH   1  16
ATOM     16  N   UNL     1      -1.194  -0.714   0.010  0.00  0.00    -0.335 N 
ATOM     17  H   UNL     1      -2.039  -0.239   0.020  0.00  0.00    +0.147 HD
BRANCH  16  23
ATOM     18  C   UNL     1      -0.017   1.388   0.010  0.00  0.00    +0.024 A 
ATOM     19  C   UNL     1       1.164   2.095   0.002  0.00  0.00    +0.016 A 
ATOM     20  C   UNL     1       2.385   1.413  -0.013  0.00  0.00    +0.055 A 
ATOM     21  C   UNL     1       2.401   0.014  -0.021  0.00  0.00    +0.055 A 
ATOM     22  C   UNL     1       1.215  -0.687  -0.013  0.00  0.00    +0.043 A 
ATOM     23  C   UNL     1       0.002  -0.004   0.002  0.00  0.00    +0.029 A 
ATOM     24 CL   UNL     1       3.913  -0.838  -0.041  0.00  0.00    -0.083 Cl
BRANCH  20  25
ATOM     25  C   UNL     1       3.652   2.167  -0.022  0.00  0.00    +0.243 C 
ATOM     26  O   UNL     1       4.713   1.573  -0.035  0.00  0.00    -0.270 OA
ATOM     27  N   UNL     1       3.634   3.514  -0.015  0.00  0.00    -0.325 N 
ATOM     28  H   UNL     1       2.788   3.989  -0.004  0.00  0.00    +0.145 HD
ATOM     29  H   UNL     1       4.468   4.011  -0.020  0.00  0.00    +0.145 HD
ENDBRANCH  20  25
ENDBRANCH  16  23
ENDBRANCH   1  16
TORSDOF 5
