REMARK  Name = ZINC36235611
REMARK  2 active torsions:
REMARK  status: ('A' for Active; 'I' for Inactive)
REMARK    1  A    between atoms: C_1  and  C_2
REMARK    2  A    between atoms: C_3  and  C_13
REMARK                            x       y       z     vdW  Elec       q    Type
REMARK                         _______ _______ _______ _____ _____    ______ ____
ROOT
ATOM      1  C   UNL     1       0.113   0.162  -2.411  0.00  0.00    +0.083 A 
ATOM      2  C   UNL     1       0.288   1.537  -2.354  0.00  0.00    +0.098 A 
ATOM      3  C   UNL     1       0.336   2.260  -3.554  0.00  0.00    +0.253 A 
ATOM      4  O   UNL     1       0.489   3.471  -3.545  0.00  0.00    -0.268 OA
ATOM      5  N   UNL     1       0.209   1.593  -4.721  0.00  0.00    -0.295 N 
ATOM      6  H   UNL     1       0.240   2.078  -5.561  0.00  0.00    +0.172 HD
ATOM      7  C   UNL     1       0.039   0.243  -4.722  0.00  0.00    +0.203 A 
ATOM      8  N   UNL     1      -0.001  -0.445  -3.601  0.00  0.00    -0.215 NA
ATOM      9  N   UNL     1      -0.087  -0.416  -5.918  0.00  0.00    -0.270 N 
ATOM     10  C   UNL     1       0.044   0.206  -7.238  0.00  0.00    +0.118 C 
ATOM     11  C   UNL     1      -0.180  -0.934  -8.245  0.00  0.00    +0.056 C 
ATOM     12  C   UNL     1      -0.430  -2.155  -7.389  0.00  0.00    -0.024 A 
ATOM     13  C   UNL     1      -0.355  -1.781  -6.056  0.00  0.00    +0.040 A 
ATOM     14  C   UNL     1      -0.547  -2.750  -5.069  0.00  0.00    +0.024 A 
ATOM     15  C   UNL     1      -0.803  -4.058  -5.420  0.00  0.00    +0.002 A 
ATOM     16  C   UNL     1      -0.871  -4.422  -6.752  0.00  0.00    +0.000 A 
ATOM     17  C   UNL     1      -0.691  -3.466  -7.735  0.00  0.00    +0.005 A 
ENDROOT
BRANCH   1  20
ATOM     18  C   UNL     1       1.968  -2.059  -1.994  0.00  0.00    +0.066 C 
ATOM     19  C   UNL     1       0.941  -1.698  -0.952  0.00  0.00    +0.052 A 
ATOM     20  C   UNL     1       0.058  -0.633  -1.163  0.00  0.00    +0.040 A 
ATOM     21  C   UNL     1      -0.877  -0.339  -0.165  0.00  0.00    +0.126 A 
ATOM     22  N   UNL     1      -0.894  -1.071   0.933  0.00  0.00    -0.222 NA
ATOM     23  C   UNL     1      -0.040  -2.072   1.097  0.00  0.00    +0.218 A 
ATOM     24  N   UNL     1       0.857  -2.386   0.172  0.00  0.00    -0.219 NA
ATOM     25  N   UNL     1      -0.091  -2.814   2.261  0.00  0.00    -0.300 N 
ATOM     26  C   UNL     1       0.786  -3.946   2.595  0.00  0.00    +0.108 C 
ATOM     27  C   UNL     1       0.346  -4.474   3.977  0.00  0.00    +0.020 C 
ATOM     28  C   UNL     1      -1.118  -3.971   4.091  0.00  0.00    +0.020 C 
ATOM     29  C   UNL     1      -1.029  -2.596   3.378  0.00  0.00    +0.108 C 
ENDBRANCH   1  20
TORSDOF 1
