REMARK  Name = ZINC46875529
REMARK  6 active torsions:
REMARK  status: ('A' for Active; 'I' for Inactive)
REMARK    1  A    between atoms: C_1  and  C_2
REMARK    2  A    between atoms: C_2  and  C_3
REMARK    3  A    between atoms: C_3  and  C_23
REMARK    4  A    between atoms: N_6  and  C_10
REMARK    5  A    between atoms: C_10  and  C_11
REMARK    6  A    between atoms: C_13  and  C_16
REMARK                            x       y       z     vdW  Elec       q    Type
REMARK                         _______ _______ _______ _____ _____    ______ ____
ROOT
ATOM      1  C   UNL     1      -1.433  -0.534   0.013  0.00  0.00    +0.138 C 
ATOM      2  C   UNL     1      -2.192  -0.043  -1.205  0.00  0.00    +0.251 C 
ATOM      3  O   UNL     1      -1.933  -0.267  -2.368  0.00  0.00    -0.272 OA
ATOM      4  N   UNL     1      -3.214   0.692  -0.725  0.00  0.00    -0.216 N 
ATOM      5  C   UNL     1      -3.207   0.734   0.612  0.00  0.00    +0.310 C 
ATOM      6  O   UNL     1      -4.031   1.335   1.273  0.00  0.00    -0.252 OA
ATOM      7  N   UNL     1      -2.187   0.036   1.143  0.00  0.00    -0.281 N 
ATOM      8  H   UNL     1      -1.987  -0.072   2.086  0.00  0.00    +0.152 HD
ENDROOT
BRANCH   1   9
ATOM      9  C   UNL     1      -1.441  -2.039   0.076  0.00  0.00    -0.015 A 
ATOM     10  C   UNL     1      -0.400  -2.759  -0.481  0.00  0.00    +0.007 A 
ATOM     11  C   UNL     1      -0.406  -4.140  -0.423  0.00  0.00    +0.020 A 
ATOM     12  C   UNL     1      -1.454  -4.802   0.191  0.00  0.00    +0.041 A 
ATOM     13  C   UNL     1      -2.496  -4.081   0.747  0.00  0.00    +0.020 A 
ATOM     14  C   UNL     1      -2.486  -2.700   0.694  0.00  0.00    +0.007 A 
ATOM     15 CL   UNL     1      -1.463  -6.537   0.262  0.00  0.00    -0.084 Cl
ENDBRANCH   1   9
BRANCH   1  17
ATOM     16  C   UNL     1      -0.019   1.526   0.010  0.00  0.00    +0.007 C 
ATOM     17  C   UNL     1       0.002  -0.004   0.002  0.00  0.00    +0.037 C 
ENDBRANCH   1  17
BRANCH   4  18
ATOM     18  C   UNL     1      -4.210   1.363  -1.565  0.00  0.00    +0.197 C 
BRANCH  18  19
ATOM     19  C   UNL     1      -5.368   0.431  -1.812  0.00  0.00    +0.190 A 
ATOM     20  N   UNL     1      -5.465  -0.430  -2.827  0.00  0.00    -0.190 NA
ATOM     21  C   UNL     1      -6.599  -1.090  -2.750  0.00  0.00    +0.259 A 
ATOM     22  O   UNL     1      -7.260  -0.654  -1.663  0.00  0.00    -0.333 OA
ATOM     23  N   UNL     1      -6.432   0.333  -1.067  0.00  0.00    -0.059 NA
BRANCH  21  24
ATOM     24  C   UNL     1      -7.066  -2.129  -3.692  0.00  0.00    +0.040 A 
ATOM     25  C   UNL     1      -6.275  -2.492  -4.782  0.00  0.00    +0.015 A 
ATOM     26  C   UNL     1      -6.716  -3.462  -5.658  0.00  0.00    +0.021 A 
ATOM     27  C   UNL     1      -7.942  -4.075  -5.457  0.00  0.00    +0.041 A 
ATOM     28  C   UNL     1      -8.731  -3.718  -4.377  0.00  0.00    +0.021 A 
ATOM     29  C   UNL     1      -8.298  -2.754  -3.491  0.00  0.00    +0.015 A 
ATOM     30 CL   UNL     1      -8.491  -5.294  -6.564  0.00  0.00    -0.084 Cl
ENDBRANCH  21  24
ENDBRANCH  18  19
ENDBRANCH   4  18
TORSDOF 5
