REMARK  Name = ZINC39672262
REMARK  5 active torsions:
REMARK  status: ('A' for Active; 'I' for Inactive)
REMARK    1  A    between atoms: C_1  and  N_2
REMARK    2  A    between atoms: C_10  and  C_12
REMARK    3  A    between atoms: C_12  and  N_13
REMARK    4  A    between atoms: C_14  and  C_16
REMARK    5  A    between atoms: C_27  and  C_29
REMARK                            x       y       z     vdW  Elec       q    Type
REMARK                         _______ _______ _______ _____ _____    ______ ____
ROOT
ATOM      1  C   UNL     1       7.121  -2.818   2.419  0.00  0.00    +0.100 C 
ATOM      2  C   UNL     1       7.253  -1.318   2.768  0.00  0.00    +0.121 C 
ATOM      3  N   UNL     1       8.531  -1.218   3.510  0.00  0.00    -0.297 N 
ATOM      4  C   UNL     1       9.444  -2.145   2.800  0.00  0.00    +0.115 C 
ATOM      5  C   UNL     1       8.561  -3.356   2.441  0.00  0.00    -0.004 C 
ATOM      6  C   UNL     1       8.943  -3.898   1.066  0.00  0.00    -0.010 C 
ATOM      7  C   UNL     1      10.358  -4.481   1.127  0.00  0.00    -0.082 C 
ATOM      8  N   UNL     1      10.405  -5.553   2.128  0.00  0.00    +0.379 N 
ATOM      9  C   UNL     1      10.127  -5.006   3.462  0.00  0.00    -0.082 C 
ATOM     10  C   UNL     1       8.703  -4.446   3.499  0.00  0.00    -0.010 C 
ATOM     11  C   UNL     1       8.803  -0.455   4.588  0.00  0.00    +0.260 C 
ATOM     12  O   UNL     1       9.908  -0.482   5.087  0.00  0.00    -0.271 OA
ATOM     13  H   UNL     1       9.713  -6.252   1.903  0.00  0.00    -0.086 HD
ATOM     14  H   UNL     1      11.321  -5.976   2.124  0.00  0.00    -0.086 HD
ENDROOT
BRANCH  11  15
ATOM     15  C   UNL     1       7.733   0.431   5.173  0.00  0.00    +0.296 C 
ATOM     16  C   UNL     1       7.363   1.528   4.167  0.00  0.00    +0.283 C 
ATOM     17  O   UNL     1       6.357   2.358   4.759  0.00  0.00    -0.484 OA
ATOM     18  C   UNL     1       6.572   2.758   6.042  0.00  0.00    +0.162 A 
ATOM     19  C   UNL     1       5.852   3.829   6.550  0.00  0.00    +0.049 A 
ATOM     20  C   UNL     1       6.056   4.245   7.852  0.00  0.00    +0.004 A 
ATOM     21  C   UNL     1       6.978   3.595   8.652  0.00  0.00    +0.004 A 
ATOM     22  C   UNL     1       7.699   2.528   8.151  0.00  0.00    +0.049 A 
ATOM     23  C   UNL     1       7.500   2.106   6.844  0.00  0.00    +0.163 A 
ATOM     24  O   UNL     1       8.223   1.058   6.363  0.00  0.00    -0.473 OA
ENDBRANCH  11  15
BRANCH   1  26
ATOM     25  N   UNL     1       5.814  -4.098   0.755  0.00  0.00    -0.311 N 
ATOM     26  C   UNL     1       6.518  -2.987   1.049  0.00  0.00    +0.218 C 
ATOM     27  O   UNL     1       6.665  -2.123   0.210  0.00  0.00    -0.275 OA
ATOM     28  H   UNL     1       5.696  -4.789   1.425  0.00  0.00    +0.149 HD
BRANCH  25  29
ATOM     29  C   UNL     1       5.227  -4.262  -0.578  0.00  0.00    +0.139 C 
BRANCH  29  39
ATOM     30  C   UNL     1       1.157  -9.348  -0.190  0.00  0.00    +0.129 C 
ATOM     31  N   UNL     1       2.470  -9.213  -0.825  0.00  0.00    -0.333 N 
ATOM     32  C   UNL     1       3.078 -10.349  -1.532  0.00  0.00    +0.105 C 
ATOM     33  C   UNL     1       4.552 -10.427  -1.113  0.00  0.00    +0.024 C 
ATOM     34  C   UNL     1       5.264  -9.154  -1.571  0.00  0.00    +0.038 C 
ATOM     35  C   UNL     1       4.508  -7.934  -1.115  0.00  0.00    -0.026 A 
ATOM     36  C   UNL     1       3.164  -7.999  -0.772  0.00  0.00    +0.033 A 
ATOM     37  C   UNL     1       2.493  -6.852  -0.364  0.00  0.00    +0.024 A 
ATOM     38  C   UNL     1       3.160  -5.646  -0.303  0.00  0.00    +0.007 A 
ATOM     39  C   UNL     1       4.498  -5.579  -0.647  0.00  0.00    -0.030 A 
ATOM     40  C   UNL     1       5.173  -6.722  -1.044  0.00  0.00    +0.010 A 
ENDBRANCH  29  39
ENDBRANCH  25  29
ENDBRANCH   1  26
TORSDOF 4
