REMARK  Name = ZINC44549467
REMARK  5 active torsions:
REMARK  status: ('A' for Active; 'I' for Inactive)
REMARK    1  A    between atoms: C_1  and  S_2
REMARK    2  A    between atoms: S_2  and  C_3
REMARK    3  A    between atoms: C_3  and  N_5
REMARK    4  A    between atoms: N_5  and  N_6
REMARK    5  A    between atoms: C_7  and  C_9
REMARK                            x       y       z     vdW  Elec       q    Type
REMARK                         _______ _______ _______ _____ _____    ______ ____
ROOT
ATOM      1  N   UNL     1       0.584  -2.721  -0.978  0.00  0.00    -0.230 N 
ATOM      2  C   UNL     1       0.784  -4.012  -1.308  0.00  0.00    +0.280 C 
ATOM      3  O   UNL     1       1.368  -4.292  -2.337  0.00  0.00    -0.267 OA
ATOM      4  H   UNL     1       0.118  -2.497  -0.157  0.00  0.00    +0.173 HD
ENDROOT
BRANCH   2   5
ATOM      5  C   UNL     1       0.292  -5.089  -0.418  0.00  0.00    +0.146 A 
ATOM      6  C   UNL     1       0.503  -6.425  -0.755  0.00  0.00    +0.166 A 
ATOM      7  N   UNL     1       0.063  -7.383   0.043  0.00  0.00    -0.143 N 
ATOM      8  O   UNL     1       0.276  -8.741  -0.296  0.00  0.00    -0.164 OA
ATOM      9  C   UNL     1      -0.577  -7.073   1.160  0.00  0.00    +0.153 A 
ATOM     10  C   UNL     1      -0.788  -5.745   1.496  0.00  0.00    +0.133 A 
ATOM     11  N   UNL     1      -0.347  -4.784   0.708  0.00  0.00    -0.247 NA
ENDBRANCH   2   5
BRANCH   1  12
ATOM     12  N   UNL     1       1.049  -1.702  -1.819  0.00  0.00    -0.252 N 
ATOM     13  H   UNL     1       1.515  -1.926  -2.640  0.00  0.00    +0.171 HD
BRANCH  12  14
ATOM     14  C   UNL     1       0.848  -0.411  -1.489  0.00  0.00    +0.123 C 
ATOM     15  S   UNL     1       1.416   0.834  -2.518  0.00  0.00    -0.027 S 
BRANCH  14  17
ATOM     16  C   UNL     1      -0.022   1.810   0.012  0.00  0.00    +0.092 C 
ATOM     17  S   UNL     1       0.002  -0.004   0.002  0.00  0.00    -0.105 S 
ENDBRANCH  14  17
ENDBRANCH  12  14
ENDBRANCH   1  12
TORSDOF 4
