REMARK  Name = ZINC33260743
REMARK  7 active torsions:
REMARK  status: ('A' for Active; 'I' for Inactive)
REMARK    1  A    between atoms: C_1  and  C_2
REMARK    2  A    between atoms: C_2  and  C_3
REMARK    3  A    between atoms: N_5  and  C_6
REMARK    4  A    between atoms: C_12  and  C_31
REMARK    5  A    between atoms: C_14  and  N_16
REMARK    6  A    between atoms: N_19  and  C_22
REMARK    7  A    between atoms: C_22  and  C_23
REMARK                            x       y       z     vdW  Elec       q    Type
REMARK                         _______ _______ _______ _____ _____    ______ ____
ROOT
ATOM      1  C   UNL     1       1.241  -5.217  -2.033  0.00  0.00    +0.034 A 
ATOM      2  C   UNL     1       1.537  -6.469  -2.584  0.00  0.00    +0.025 A 
ATOM      3  C   UNL     1       2.288  -6.578  -3.712  0.00  0.00    +0.028 A 
ATOM      4  C   UNL     1       2.779  -5.421  -4.344  0.00  0.00    +0.049 A 
ATOM      5  C   UNL     1       2.481  -4.152  -3.788  0.00  0.00    +0.014 A 
ATOM      6  C   UNL     1       1.703  -4.062  -2.631  0.00  0.00    +0.034 A 
ATOM      7  C   UNL     1       2.999  -2.955  -4.455  0.00  0.00    +0.075 A 
ATOM      8  C   UNL     1       3.758  -3.143  -5.603  0.00  0.00    +0.057 A 
ATOM      9  C   UNL     1       3.992  -4.445  -6.066  0.00  0.00    +0.100 A 
ATOM     10  N   UNL     1       3.518  -5.506  -5.453  0.00  0.00    -0.343 N 
ATOM     11  H   UNL     1       3.713  -6.383  -5.819  0.00  0.00    +0.167 HD
ENDROOT
BRANCH   9  12
ATOM     12  N   UNL     1       4.752  -4.619  -7.215  0.00  0.00    -0.314 N 
ATOM     13  C   UNL     1       5.204  -3.463  -8.004  0.00  0.00    +0.122 C 
ATOM     14  C   UNL     1       6.714  -3.590  -8.232  0.00  0.00    +0.104 C 
ATOM     15  N   UNL     1       7.008  -4.901  -8.827  0.00  0.00    -0.291 NA
ATOM     16  C   UNL     1       6.640  -5.993  -7.916  0.00  0.00    +0.104 C 
ATOM     17  C   UNL     1       5.132  -5.965  -7.671  0.00  0.00    +0.122 C 
BRANCH  15  18
ATOM     18  C   UNL     1       8.420  -4.996  -9.220  0.00  0.00    +0.180 C 
BRANCH  18  19
ATOM     19  C   UNL     1       8.630  -6.242 -10.040  0.00  0.00    +0.230 C 
ATOM     20  O   UNL     1       7.696  -6.979 -10.274  0.00  0.00    -0.274 OA
ATOM     21  N   UNL     1       9.857  -6.539 -10.513  0.00  0.00    -0.300 N 
ATOM     22  C   UNL     1      11.000  -5.659 -10.233  0.00  0.00    +0.108 C 
ATOM     23  C   UNL     1      12.126  -6.495  -9.617  0.00  0.00    +0.019 C 
ATOM     24  C   UNL     1      12.449  -7.670 -10.542  0.00  0.00    +0.003 C 
ATOM     25  C   UNL     1      11.213  -8.560 -10.691  0.00  0.00    +0.019 C 
ATOM     26  C   UNL     1      10.078  -7.750 -11.315  0.00  0.00    +0.108 C 
ENDBRANCH  18  19
ENDBRANCH  15  18
ENDBRANCH   9  12
BRANCH   1  29
ATOM     27  C   UNL     1       0.587  -6.076   0.085  0.00  0.00    +0.217 C 
ATOM     28  O   UNL     1       1.309  -7.034  -0.093  0.00  0.00    -0.275 OA
ATOM     29  N   UNL     1       0.467  -5.136  -0.872  0.00  0.00    -0.285 N 
ATOM     30  H   UNL     1      -0.157  -4.402  -0.756  0.00  0.00    +0.155 HD
BRANCH  27  32
ATOM     31  C   UNL     1       0.136  -7.130   2.284  0.00  0.00    +0.013 C 
ATOM     32  C   UNL     1      -0.176  -5.938   1.377  0.00  0.00    +0.093 C 
ENDBRANCH  27  32
ENDBRANCH   1  29
BRANCH   7  33
ATOM     33  C   UNL     1       2.724  -1.603  -3.929  0.00  0.00    +0.387 C 
ATOM     34  O   UNL     1       3.083  -0.618  -4.558  0.00  0.00    -0.241 OA
ATOM     35  O   UNL     1       2.139  -1.469  -2.863  0.00  0.00    -0.241 OA
ENDBRANCH   7  33
TORSDOF 6
