REMARK  Name = ZINC13747821
REMARK  9 active torsions:
REMARK  status: ('A' for Active; 'I' for Inactive)
REMARK    1  A    between atoms: C_1  and  C_2
REMARK    2  A    between atoms: C_7  and  N_8
REMARK    3  A    between atoms: C_9  and  C_11
REMARK    4  A    between atoms: C_11  and  O_12
REMARK    5  A    between atoms: O_12  and  C_13
REMARK    6  A    between atoms: C_18  and  C_19
REMARK    7  A    between atoms: N_20  and  N_21
REMARK    8  A    between atoms: N_21  and  C_22
REMARK    9  A    between atoms: C_22  and  N_24
REMARK                            x       y       z     vdW  Elec       q    Type
REMARK                         _______ _______ _______ _____ _____    ______ ____
ROOT
ATOM      1  C   UNL     1       0.190   3.881  -0.347  0.00  0.00    +0.130 A 
ATOM      2  C   UNL     1      -0.969   3.125  -0.410  0.00  0.00    +0.046 A 
ATOM      3  C   UNL     1      -0.932   1.774  -0.123  0.00  0.00    +0.004 A 
ATOM      4  C   UNL     1       0.258   1.168   0.239  0.00  0.00    +0.001 A 
ATOM      5  C   UNL     1       1.422   1.905   0.307  0.00  0.00    +0.013 A 
ATOM      6  C   UNL     1       1.398   3.271   0.014  0.00  0.00    +0.036 A 
ENDROOT
BRANCH   6   7
ATOM      7  C   UNL     1       2.638   4.065   0.085  0.00  0.00    +0.141 C 
ATOM      8  N   UNL     1       2.594   5.352  -0.079  0.00  0.00    -0.188 NA
BRANCH   8   9
ATOM      9  N   UNL     1       3.783   6.088  -0.163  0.00  0.00    -0.219 N 
ATOM     10  H   UNL     1       4.638   5.629  -0.174  0.00  0.00    +0.176 HD
BRANCH   9  11
ATOM     11  C   UNL     1       3.740   7.433  -0.228  0.00  0.00    +0.147 C 
ATOM     12  S   UNL     1       5.178   8.325  -0.483  0.00  0.00    -0.017 S 
BRANCH  11  13
ATOM     13  N   UNL     1       2.563   8.077  -0.092  0.00  0.00    -0.339 N 
ATOM     14  H   UNL     1       1.761   7.579   0.131  0.00  0.00    +0.144 HD
ATOM     15  H   UNL     1       2.518   9.038  -0.218  0.00  0.00    +0.144 HD
ENDBRANCH  11  13
ENDBRANCH   9  11
ENDBRANCH   8   9
ENDBRANCH   6   7
BRANCH   1  16
ATOM     16  O   UNL     1       0.155   5.208  -0.634  0.00  0.00    -0.482 OA
BRANCH  16  17
ATOM     17  C   UNL     1      -1.129   5.787  -0.873  0.00  0.00    +0.324 C 
BRANCH  17  19
ATOM     18  N   UNL     1      -2.043   7.951  -1.649  0.00  0.00    -0.282 N 
ATOM     19  C   UNL     1      -0.960   7.210  -1.338  0.00  0.00    +0.255 C 
ATOM     20  O   UNL     1       0.150   7.690  -1.431  0.00  0.00    -0.272 OA
ATOM     21  H   UNL     1      -2.932   7.586  -1.522  0.00  0.00    +0.155 HD
BRANCH  18  28
ATOM     22  C   UNL     1      -4.069   8.985  -3.358  0.00  0.00    +0.045 C 
ATOM     23  C   UNL     1      -2.848   9.789  -2.994  0.00  0.00    -0.029 A 
ATOM     24  C   UNL     1      -2.687  11.067  -3.492  0.00  0.00    +0.005 A 
ATOM     25  C   UNL     1      -1.567  11.805  -3.158  0.00  0.00    +0.000 A 
ATOM     26  C   UNL     1      -0.604  11.267  -2.323  0.00  0.00    +0.002 A 
ATOM     27  C   UNL     1      -0.761   9.991  -1.817  0.00  0.00    +0.023 A 
ATOM     28  C   UNL     1      -1.883   9.245  -2.156  0.00  0.00    +0.036 A 
ENDBRANCH  18  28
ENDBRANCH  17  19
ENDBRANCH  16  17
ENDBRANCH   1  16
TORSDOF 8
