REMARK  Name = ZINC59168732
REMARK  6 active torsions:
REMARK  status: ('A' for Active; 'I' for Inactive)
REMARK    1  A    between atoms: C_4  and  O_7
REMARK    2  A    between atoms: O_7  and  C_8
REMARK    3  A    between atoms: C_8  and  C_9
REMARK    4  A    between atoms: C_15  and  C_18
REMARK    5  A    between atoms: C_21  and  O_25
REMARK    6  A    between atoms: C_23  and  O_24
REMARK                            x       y       z     vdW  Elec       q    Type
REMARK                         _______ _______ _______ _____ _____    ______ ____
ROOT
ATOM      1  C   UNL     1       4.932  -2.615  -0.061  0.00  0.00    +0.189 A 
ATOM      2  N   UNL     1       5.634  -2.886  -1.122  0.00  0.00    -0.128 NA
ATOM      3  N   UNL     1       6.782  -3.357  -0.783  0.00  0.00    -0.121 NA
ATOM      4  C   UNL     1       6.857  -3.423   0.510  0.00  0.00    +0.211 A 
ATOM      5  N   UNL     1       5.700  -2.921   1.048  0.00  0.00    -0.221 N 
ATOM      6  N   UNL     1       5.583  -2.827   2.404  0.00  0.00    -0.263 N 
ATOM      7  C   UNL     1       6.491  -3.717   3.175  0.00  0.00    +0.186 C 
ATOM      8  S   UNL     1       7.833  -3.892   1.923  0.00  0.00    -0.056 S 
ATOM      9  H   UNL     1       5.670  -1.869   2.708  0.00  0.00    +0.168 HD
ENDROOT
BRANCH   7  10
ATOM     10  C   UNL     1       5.845  -5.045   3.474  0.00  0.00    +0.026 A 
ATOM     11  C   UNL     1       4.709  -5.430   2.788  0.00  0.00    +0.013 A 
ATOM     12  C   UNL     1       4.114  -6.647   3.060  0.00  0.00    +0.046 A 
ATOM     13  C   UNL     1       4.656  -7.486   4.023  0.00  0.00    +0.120 A 
ATOM     14  C   UNL     1       5.795  -7.102   4.713  0.00  0.00    +0.091 A 
ATOM     15  C   UNL     1       6.394  -5.883   4.434  0.00  0.00    +0.126 A 
BRANCH  15  16
ATOM     16  O   UNL     1       7.514  -5.506   5.105  0.00  0.00    -0.506 OA
ATOM     17  H   UNL     1       7.339  -5.014   5.919  0.00  0.00    +0.292 HD
ENDBRANCH  15  16
BRANCH  13  18
ATOM     18  O   UNL     1       4.070  -8.682   4.290  0.00  0.00    -0.507 OA
ATOM     19  H   UNL     1       4.402  -9.412   3.751  0.00  0.00    +0.292 HD
ENDBRANCH  13  18
ENDBRANCH   7  10
BRANCH   1  20
ATOM     20  C   UNL     1       3.531  -2.060  -0.044  0.00  0.00    +0.306 C 
BRANCH  20  21
ATOM     21  O   UNL     1       3.586  -0.632  -0.037  0.00  0.00    -0.484 OA
BRANCH  21  25
ATOM     22  C   UNL     1      -0.017   1.378   0.010  0.00  0.00    +0.000 A 
ATOM     23  C   UNL     1       1.170   2.088   0.002  0.00  0.00    +0.004 A 
ATOM     24  C   UNL     1       2.377   1.417  -0.013  0.00  0.00    +0.045 A 
ATOM     25  C   UNL     1       2.399   0.030  -0.021  0.00  0.00    +0.121 A 
ATOM     26  C   UNL     1       1.207  -0.680  -0.013  0.00  0.00    +0.045 A 
ATOM     27  C   UNL     1       0.002  -0.004   0.002  0.00  0.00    +0.004 A 
ENDBRANCH  21  25
ENDBRANCH  20  21
ENDBRANCH   1  20
TORSDOF 6
