REMARK  Name = ZINC13936354
REMARK  14 active torsions:
REMARK  status: ('A' for Active; 'I' for Inactive)
REMARK    1  A    between atoms: C_1  and  C_2
REMARK    2  A    between atoms: C_4  and  C_33
REMARK    3  A    between atoms: C_5  and  N_9
REMARK    4  A    between atoms: C_6  and  C_8
REMARK    5  A    between atoms: N_9  and  S_10
REMARK    6  A    between atoms: S_10  and  C_13
REMARK    7  A    between atoms: C_16  and  N_19
REMARK    8  A    between atoms: N_19  and  C_20
REMARK    9  A    between atoms: C_20  and  N_22
REMARK   10  A    between atoms: N_22  and  C_23
REMARK   11  A    between atoms: C_25  and  O_31
REMARK   12  A    between atoms: C_27  and  O_29
REMARK   13  A    between atoms: O_29  and  C_30
REMARK   14  A    between atoms: O_31  and  C_32
REMARK                            x       y       z     vdW  Elec       q    Type
REMARK                         _______ _______ _______ _____ _____    ______ ____
ROOT
ATOM      1  C   UNL     1       5.701   0.756   1.712  0.00  0.00    +0.109 A 
ATOM      2  C   UNL     1       5.266   2.067   1.647  0.00  0.00    +0.030 A 
ATOM      3  C   UNL     1       5.056   2.785   2.808  0.00  0.00    +0.025 A 
ATOM      4  C   UNL     1       5.293   2.192   4.041  0.00  0.00    +0.033 A 
ATOM      5  C   UNL     1       5.735   0.877   4.103  0.00  0.00    +0.025 A 
ATOM      6  C   UNL     1       5.938   0.163   2.938  0.00  0.00    +0.030 A 
ENDROOT
BRANCH   1   7
ATOM      7  S   UNL     1       5.961  -0.159   0.228  0.00  0.00    +0.072 S 
ATOM      8  O   UNL     1       6.808  -1.248   0.566  0.00  0.00    -0.150 OA
ATOM      9  O   UNL     1       6.300   0.787  -0.777  0.00  0.00    -0.150 OA
BRANCH   7  10
ATOM     10  N   UNL     1       4.502  -0.810  -0.207  0.00  0.00    -0.216 N 
ATOM     11  H   UNL     1       4.382  -1.773  -0.209  0.00  0.00    +0.174 HD
BRANCH  10  16
ATOM     12  C   UNL     1       0.210   2.590  -1.684  0.00  0.00    +0.044 C 
ATOM     13  C   UNL     1       1.349   1.683  -1.294  0.00  0.00    -0.050 A 
ATOM     14  C   UNL     1       1.294   0.979  -0.104  0.00  0.00    +0.008 A 
ATOM     15  C   UNL     1       2.338   0.152   0.259  0.00  0.00    -0.028 A 
ATOM     16  C   UNL     1       3.445   0.026  -0.572  0.00  0.00    +0.054 A 
ATOM     17  C   UNL     1       3.496   0.734  -1.766  0.00  0.00    -0.028 A 
ATOM     18  C   UNL     1       2.449   1.560  -2.123  0.00  0.00    +0.008 A 
ATOM     19  C   UNL     1       4.694   0.601  -2.670  0.00  0.00    +0.046 C 
ATOM     20  C   UNL     1       2.277  -0.615   1.555  0.00  0.00    +0.046 C 
ENDBRANCH  10  16
ENDBRANCH   7  10
ENDBRANCH   1   7
BRANCH   4  21
ATOM     21  N   UNL     1       5.086   2.917   5.219  0.00  0.00    -0.297 N 
ATOM     22  H   UNL     1       4.614   2.510   5.963  0.00  0.00    +0.154 HD
BRANCH  21  23
ATOM     23  C   UNL     1       5.541   4.182   5.321  0.00  0.00    +0.139 C 
ATOM     24  S   UNL     1       6.279   4.936   3.973  0.00  0.00    -0.018 S 
BRANCH  23  25
ATOM     25  N   UNL     1       5.415   4.852   6.483  0.00  0.00    -0.296 N 
ATOM     26  H   UNL     1       5.051   4.406   7.263  0.00  0.00    +0.154 HD
BRANCH  25  27
ATOM     27  C   UNL     1       5.808   6.192   6.564  0.00  0.00    +0.040 A 
ATOM     28  C   UNL     1       7.021   6.594   6.020  0.00  0.00    +0.069 A 
ATOM     29  C   UNL     1       7.407   7.923   6.095  0.00  0.00    +0.125 A 
ATOM     30  C   UNL     1       6.588   8.849   6.724  0.00  0.00    +0.091 A 
ATOM     31  C   UNL     1       5.380   8.448   7.273  0.00  0.00    +0.125 A 
ATOM     32  C   UNL     1       4.989   7.120   7.193  0.00  0.00    +0.069 A 
BRANCH  31  33
ATOM     33  O   UNL     1       4.578   9.356   7.888  0.00  0.00    -0.495 OA
ATOM     34  C   UNL     1       5.043  10.706   7.934  0.00  0.00    +0.277 C 
ENDBRANCH  31  33
BRANCH  29  35
ATOM     35  O   UNL     1       8.591   8.318   5.557  0.00  0.00    -0.495 OA
ATOM     36  C   UNL     1       8.928   9.701   5.676  0.00  0.00    +0.277 C 
ENDBRANCH  29  35
ENDBRANCH  25  27
ENDBRANCH  23  25
ENDBRANCH  21  23
ENDBRANCH   4  21
TORSDOF 9
