REMARK  Name = ZINC39531698
REMARK  6 active torsions:
REMARK  status: ('A' for Active; 'I' for Inactive)
REMARK    1  A    between atoms: C_1  and  C_2
REMARK    2  A    between atoms: C_5  and  C_8
REMARK    3  A    between atoms: C_8  and  C_10
REMARK    4  A    between atoms: C_8  and  N_13
REMARK    5  A    between atoms: C_10  and  N_11
REMARK    6  A    between atoms: C_17  and  O_20
REMARK                            x       y       z     vdW  Elec       q    Type
REMARK                         _______ _______ _______ _____ _____    ______ ____
ROOT
ATOM      1  C   UNL     1       0.059  -4.275  -0.021  0.00  0.00    +0.101 C 
ENDROOT
BRANCH   1   2
ATOM      2  N   UNL     1      -0.711  -4.820   1.105  0.00  0.00    -0.295 NA
ATOM      3  C   UNL     1       0.088  -4.818   2.339  0.00  0.00    +0.066 C 
ATOM      4  C   UNL     1      -0.768  -5.336   3.497  0.00  0.00    -0.063 C 
ATOM      5  N   UNL     1      -1.230  -6.697   3.195  0.00  0.00    +0.398 N 
ATOM      6  C   UNL     1      -2.046  -6.678   1.973  0.00  0.00    +0.073 C 
ATOM      7  C   UNL     1      -1.201  -6.172   0.802  0.00  0.00    +0.096 C 
ATOM      8  H   UNL     1      -0.433  -7.300   3.057  0.00  0.00    -0.082 HD
ATOM      9  H   UNL     1      -1.784  -7.042   3.964  0.00  0.00    -0.082 HD
BRANCH   6  10
ATOM     10  O   UNL     1      -2.509  -8.001   1.690  0.00  0.00    -0.409 OA
ATOM     11  H   UNL     1      -3.053  -8.386   2.391  0.00  0.00    +0.207 HD
ENDBRANCH   6  10
ENDBRANCH   1   2
BRANCH   1  16
ATOM     12  C   UNL     1       0.337   1.478   0.439  0.00  0.00    +0.044 C 
ATOM     13  C   UNL     1       0.265  -0.022   0.319  0.00  0.00    -0.050 A 
ATOM     14  C   UNL     1       0.748  -0.649  -0.815  0.00  0.00    +0.003 A 
ATOM     15  C   UNL     1       0.682  -2.025  -0.925  0.00  0.00    +0.005 A 
ATOM     16  C   UNL     1       0.133  -2.775   0.099  0.00  0.00    -0.029 A 
ATOM     17  C   UNL     1      -0.350  -2.148   1.233  0.00  0.00    +0.005 A 
ATOM     18  C   UNL     1      -0.280  -0.772   1.344  0.00  0.00    +0.003 A 
ENDBRANCH   1  16
BRANCH   1  19
ATOM     19  C   UNL     1       1.474  -4.858  -0.001  0.00  0.00    +0.117 C 
BRANCH  19  20
ATOM     20  N   UNL     1       1.401  -6.323  -0.085  0.00  0.00    -0.254 NA
ATOM     21 BR   UNL     1       3.092  -7.073  -0.064  0.00  0.00    +0.010 Br
ATOM     22  H   UNL     1       0.887  -6.613  -0.903  0.00  0.00    +0.135 HD
ENDBRANCH  19  20
ENDBRANCH   1  19
TORSDOF 5
