REMARK  Name = ZINC61001960
REMARK  7 active torsions:
REMARK  status: ('A' for Active; 'I' for Inactive)
REMARK    1  A    between atoms: C_3  and  C_10
REMARK    2  A    between atoms: C_5  and  C_7
REMARK    3  A    between atoms: C_10  and  N_11
REMARK    4  A    between atoms: N_14  and  C_15
REMARK    5  A    between atoms: C_15  and  C_16
REMARK    6  A    between atoms: C_16  and  C_17
REMARK    7  A    between atoms: C_16  and  N_22
REMARK                            x       y       z     vdW  Elec       q    Type
REMARK                         _______ _______ _______ _____ _____    ______ ____
ROOT
ATOM      1  N   UNL     1       4.182   1.833   1.717  0.00  0.00    -0.295 N 
ATOM      2  C   UNL     1       5.242   2.658   1.826  0.00  0.00    +0.300 C 
ATOM      3  O   UNL     1       5.821   3.041   0.828  0.00  0.00    -0.253 OA
ATOM      4  N   UNL     1       5.662   3.059   3.043  0.00  0.00    -0.298 N 
ATOM      5  H   UNL     1       3.721   1.528   2.514  0.00  0.00    +0.151 HD
ATOM      6  H   UNL     1       5.200   2.754   3.840  0.00  0.00    +0.150 HD
ENDROOT
BRANCH   1   7
ATOM      7  C   UNL     1       3.727   1.397   0.395  0.00  0.00    +0.141 C 
BRANCH   7  10
ATOM      8  C   UNL     1       0.158   0.191   0.700  0.00  0.00    +0.001 A 
ATOM      9  C   UNL     1       1.258   1.019   0.559  0.00  0.00    +0.005 A 
ATOM     10  C   UNL     1       2.535   0.488   0.549  0.00  0.00    -0.030 A 
ATOM     11  C   UNL     1       2.720  -0.873   0.679  0.00  0.00    +0.018 A 
ATOM     12  C   UNL     1       1.615  -1.714   0.822  0.00  0.00    +0.037 A 
ATOM     13  C   UNL     1       0.330  -1.171   0.832  0.00  0.00    +0.013 A 
BRANCH  12  14
ATOM     14  C   UNL     1       1.806  -3.174   0.962  0.00  0.00    +0.242 C 
ATOM     15  O   UNL     1       2.928  -3.643   0.952  0.00  0.00    -0.270 OA
ATOM     16  N   UNL     1       0.738  -3.983   1.099  0.00  0.00    -0.325 N 
ATOM     17  H   UNL     1      -0.157  -3.608   1.107  0.00  0.00    +0.145 HD
ATOM     18  H   UNL     1       0.863  -4.941   1.191  0.00  0.00    +0.145 HD
ENDBRANCH  12  14
ENDBRANCH   7  10
ENDBRANCH   1   7
BRANCH   4  19
ATOM     19  C   UNL     1       6.814   3.956   3.162  0.00  0.00    +0.130 C 
BRANCH  19  20
ATOM     20  C   UNL     1       7.018   4.332   4.630  0.00  0.00    +0.111 C 
BRANCH  20  21
ATOM     21  N   UNL     1       5.769   4.881   5.174  0.00  0.00    -0.289 NA
ATOM     22  C   UNL     1       5.328   6.053   4.402  0.00  0.00    +0.113 C 
ATOM     23  C   UNL     1       3.995   6.555   4.964  0.00  0.00    +0.175 C 
ATOM     24  O   UNL     1       4.151   6.850   6.354  0.00  0.00    -0.377 OA
ATOM     25  C   UNL     1       4.578   5.731   7.136  0.00  0.00    +0.175 C 
ATOM     26  C   UNL     1       5.917   5.220   6.597  0.00  0.00    +0.113 C 
ENDBRANCH  20  21
BRANCH  20  27
ATOM     27  C   UNL     1       7.411   3.106   5.413  0.00  0.00    +0.008 A 
ATOM     28  C   UNL     1       8.641   2.713   5.824  0.00  0.00    +0.013 A 
ATOM     29  C   UNL     1       8.765   1.537   6.539  0.00  0.00    +0.008 A 
ATOM     30  C   UNL     1       7.653   0.811   6.809  0.00  0.00    +0.045 A 
ATOM     31  S   UNL     1       6.375   1.798   6.047  0.00  0.00    -0.100 S 
ENDBRANCH  20  27
ENDBRANCH  19  20
ENDBRANCH   4  19
TORSDOF 7
