REMARK  Name = ZINC62497889
REMARK  6 active torsions:
REMARK  status: ('A' for Active; 'I' for Inactive)
REMARK    1  A    between atoms: C_1  and  C_2
REMARK    2  A    between atoms: C_2  and  C_3
REMARK    3  A    between atoms: C_2  and  N_4
REMARK    4  A    between atoms: C_6  and  C_16
REMARK    5  A    between atoms: C_12  and  O_15
REMARK    6  A    between atoms: C_16  and  C_17
REMARK                            x       y       z     vdW  Elec       q    Type
REMARK                         _______ _______ _______ _____ _____    ______ ____
ROOT
ATOM      1  N   UNL     1      -1.380  -0.489   0.019  0.00  0.00    -0.321 N 
ATOM      2  C   UNL     1      -1.873  -1.419  -1.011  0.00  0.00    +0.150 C 
ATOM      3  C   UNL     1      -3.281  -0.958  -1.417  0.00  0.00    +0.195 C 
ATOM      4  O   UNL     1      -4.114  -0.947  -0.256  0.00  0.00    -0.485 OA
ATOM      5  C   UNL     1      -3.643  -0.321   0.856  0.00  0.00    +0.142 A 
ATOM      6  C   UNL     1      -2.278  -0.088   1.020  0.00  0.00    +0.076 A 
ATOM      7  C   UNL     1      -1.809   0.541   2.161  0.00  0.00    +0.072 A 
ATOM      8  C   UNL     1      -2.700   0.938   3.147  0.00  0.00    +0.119 A 
ATOM      9  C   UNL     1      -4.058   0.705   2.987  0.00  0.00    +0.049 A 
ATOM     10  C   UNL     1      -4.530   0.084   1.841  0.00  0.00    +0.051 A 
ENDROOT
BRANCH   1  12
ATOM     11  C   UNL     1       0.957  -1.176   0.236  0.00  0.00    +0.027 C 
ATOM     12  C   UNL     1       0.002  -0.004   0.002  0.00  0.00    +0.068 C 
ATOM     13  C   UNL     1       0.302   0.634  -1.356  0.00  0.00    +0.027 C 
ENDBRANCH   1  12
BRANCH   8  14
ATOM     14  O   UNL     1      -2.243   1.555   4.269  0.00  0.00    -0.507 OA
ATOM     15  H   UNL     1      -2.199   2.519   4.198  0.00  0.00    +0.292 HD
ENDBRANCH   8  14
BRANCH   3  16
ATOM     16  C   UNL     1      -3.857  -1.923  -2.456  0.00  0.00    +0.081 C 
BRANCH  16  17
ATOM     17  C   UNL     1      -5.184  -1.402  -2.943  0.00  0.00    -0.041 A 
ATOM     18  C   UNL     1      -6.349  -1.764  -2.292  0.00  0.00    +0.004 A 
ATOM     19  C   UNL     1      -7.568  -1.287  -2.737  0.00  0.00    +0.003 A 
ATOM     20  C   UNL     1      -7.623  -0.448  -3.834  0.00  0.00    +0.038 A 
ATOM     21  C   UNL     1      -6.457  -0.085  -4.487  0.00  0.00    +0.124 A 
ATOM     22  C   UNL     1      -5.237  -0.558  -4.036  0.00  0.00    +0.042 A 
ATOM     23  F   UNL     1      -6.510   0.735  -5.559  0.00  0.00    -0.205 F 
ENDBRANCH  16  17
ENDBRANCH   3  16
TORSDOF 4
