REMARK  Name = ZINC51883730
REMARK  4 active torsions:
REMARK  status: ('A' for Active; 'I' for Inactive)
REMARK    1  A    between atoms: C_3  and  C_11
REMARK    2  A    between atoms: C_4  and  N_8
REMARK    3  A    between atoms: C_16  and  C_19
REMARK    4  A    between atoms: C_19  and  O_20
REMARK                            x       y       z     vdW  Elec       q    Type
REMARK                         _______ _______ _______ _____ _____    ______ ____
ROOT
ATOM      1  C   UNL     1       0.172   1.040   0.833  0.00  0.00    +0.021 A 
ATOM      2  C   UNL     1       1.384   1.681   0.983  0.00  0.00    +0.017 A 
ATOM      3  C   UNL     1       2.425   1.415   0.093  0.00  0.00    +0.067 A 
ATOM      4  C   UNL     1       2.233   0.501  -0.946  0.00  0.00    +0.140 A 
ATOM      5  C   UNL     1       1.017  -0.133  -1.086  0.00  0.00    +0.053 A 
ATOM      6  C   UNL     1      -0.013   0.135  -0.199  0.00  0.00    +0.043 A 
ATOM      7 CL   UNL     1      -1.542  -0.668  -0.382  0.00  0.00    -0.083 Cl
ENDROOT
BRANCH   3   8
ATOM      8  C   UNL     1       3.727   2.098   0.248  0.00  0.00    +0.249 C 
ATOM      9  O   UNL     1       4.744   1.446   0.383  0.00  0.00    -0.270 OA
ATOM     10  N   UNL     1       3.786   3.445   0.241  0.00  0.00    -0.297 N 
ATOM     11  C   UNL     1       2.630   4.353   0.218  0.00  0.00    +0.108 C 
ATOM     12  C   UNL     1       3.180   5.794   0.192  0.00  0.00    +0.026 C 
ATOM     13  C   UNL     1       4.614   5.609  -0.369  0.00  0.00    +0.033 C 
ATOM     14  C   UNL     1       5.020   4.251   0.262  0.00  0.00    +0.114 C 
BRANCH  13  15
ATOM     15  C   UNL     1       5.539   6.731   0.106  0.00  0.00    +0.161 C 
BRANCH  15  16
ATOM     16  O   UNL     1       6.816   6.593  -0.520  0.00  0.00    -0.395 OA
ATOM     17  H   UNL     1       7.455   7.273  -0.265  0.00  0.00    +0.209 HD
ENDBRANCH  15  16
ENDBRANCH  13  15
ENDBRANCH   3   8
BRANCH   4  18
ATOM     18  N   UNL     1       3.333   0.214  -1.894  0.00  0.00    +0.057 N 
ATOM     19  O   UNL     1       3.168  -0.584  -2.787  0.00  0.00    -0.126 OA
ATOM     20  O   UNL     1       4.396   0.778  -1.775  0.00  0.00    -0.126 OA
ENDBRANCH   4  18
TORSDOF 4
