REMARK  Name = ZINC02861299
REMARK  10 active torsions:
REMARK  status: ('A' for Active; 'I' for Inactive)
REMARK    1  A    between atoms: C_1  and  C_2
REMARK    2  A    between atoms: C_2  and  C_3
REMARK    3  A    between atoms: C_2  and  C_4
REMARK    4  A    between atoms: C_7  and  O_11
REMARK    5  A    between atoms: O_11  and  C_12
REMARK    6  A    between atoms: C_12  and  C_13
REMARK    7  A    between atoms: N_15  and  N_16
REMARK    8  A    between atoms: N_16  and  C_17
REMARK    9  A    between atoms: C_17  and  N_19
REMARK   10  A    between atoms: C_20  and  C_22
REMARK                            x       y       z     vdW  Elec       q    Type
REMARK                         _______ _______ _______ _____ _____    ______ ____
ROOT
ATOM      1  C   UNL     1      -7.471  -2.193   0.995  0.00  0.00    +0.267 C 
ATOM      2  O   UNL     1      -7.720  -2.878   0.026  0.00  0.00    -0.271 OA
ATOM      3  N   UNL     1      -8.418  -1.977   1.929  0.00  0.00    -0.232 N 
ATOM      4  H   UNL     1      -8.219  -1.429   2.704  0.00  0.00    +0.173 HD
ENDROOT
BRANCH   3   5
ATOM      5  N   UNL     1      -9.690  -2.544   1.780  0.00  0.00    -0.245 N 
ATOM      6  H   UNL     1      -9.890  -3.092   1.005  0.00  0.00    +0.172 HD
BRANCH   5   7
ATOM      7  C   UNL     1     -10.638  -2.328   2.715  0.00  0.00    +0.153 C 
ATOM      8  S   UNL     1     -12.193  -3.021   2.533  0.00  0.00    -0.017 S 
BRANCH   7   9
ATOM      9  N   UNL     1     -10.361  -1.567   3.792  0.00  0.00    -0.260 N 
ATOM     10  C   UNL     1     -11.308  -1.351   4.726  0.00  0.00    +0.285 C 
ATOM     11  O   UNL     1     -12.413  -1.843   4.597  0.00  0.00    -0.266 OA
ATOM     12  H   UNL     1      -9.480  -1.174   3.894  0.00  0.00    +0.157 HD
BRANCH  10  13
ATOM     13  C   UNL     1     -11.007  -0.523   5.897  0.00  0.00    +0.189 A 
ATOM     14  C   UNL     1     -11.868  -0.230   6.916  0.00  0.00    +0.054 A 
ATOM     15  C   UNL     1     -11.166   0.586   7.816  0.00  0.00    +0.042 A 
ATOM     16  C   UNL     1      -9.922   0.753   7.314  0.00  0.00    +0.196 A 
ATOM     17  O   UNL     1      -9.828   0.079   6.160  0.00  0.00    -0.458 OA
ENDBRANCH  10  13
ENDBRANCH   7   9
ENDBRANCH   5   7
ENDBRANCH   3   5
BRANCH   1  18
ATOM     18  C   UNL     1      -6.102  -1.583   1.154  0.00  0.00    +0.326 C 
BRANCH  18  19
ATOM     19  O   UNL     1      -5.283  -1.954   0.044  0.00  0.00    -0.482 OA
BRANCH  19  23
ATOM     20  C   UNL     1      -1.412  -0.526   0.013  0.00  0.00    -0.044 A 
ATOM     21  C   UNL     1      -2.258  -0.203   1.058  0.00  0.00    +0.007 A 
ATOM     22  C   UNL     1      -3.555  -0.680   1.070  0.00  0.00    +0.047 A 
ATOM     23  C   UNL     1      -4.008  -1.483   0.034  0.00  0.00    +0.135 A 
ATOM     24  C   UNL     1      -3.156  -1.805  -1.014  0.00  0.00    +0.060 A 
ATOM     25  C   UNL     1      -1.862  -1.321  -1.025  0.00  0.00    +0.022 A 
ATOM     26 BR   UNL     1      -3.769  -2.900  -2.429  0.00  0.00    -0.047 Br
BRANCH  20  28
ATOM     27  C   UNL     1      -0.019   1.526   0.010  0.00  0.00    +0.012 C 
ATOM     28  C   UNL     1       0.002  -0.004   0.002  0.00  0.00    +0.013 C 
ATOM     29  C   UNL     1       0.742  -0.511   1.242  0.00  0.00    +0.012 C 
ENDBRANCH  20  28
ENDBRANCH  19  23
ENDBRANCH  18  19
ENDBRANCH   1  18
TORSDOF 8
