REMARK  Name = ZINC15830196
REMARK  6 active torsions:
REMARK  status: ('A' for Active; 'I' for Inactive)
REMARK    1  A    between atoms: C_1  and  O_2
REMARK    2  A    between atoms: O_2  and  C_3
REMARK    3  A    between atoms: C_7  and  C_10
REMARK    4  A    between atoms: C_8  and  O_9
REMARK    5  A    between atoms: C_13  and  C_22
REMARK    6  A    between atoms: C_27  and  O_28
REMARK                            x       y       z     vdW  Elec       q    Type
REMARK                         _______ _______ _______ _____ _____    ______ ____
ROOT
ATOM      1  C   UNL     1      -1.233   7.488  -0.336  0.00  0.00    +0.095 C 
ATOM      2  C   UNL     1      -1.418   6.016   0.045  0.00  0.00    +0.079 C 
ATOM      3  C   UNL     1      -0.084   5.322   0.029  0.00  0.00    +0.050 C 
ATOM      4  N   UNL     1       1.031   5.951   0.027  0.00  0.00    -0.266 NA
ATOM      5  C   UNL     1       1.152   7.405   0.018  0.00  0.00    +0.109 C 
ATOM      6  N   UNL     1      -0.107   8.027   0.447  0.00  0.00    -0.286 NA
ATOM      7  C   UNL     1       2.274   7.827   0.973  0.00  0.00    +0.027 C 
ATOM      8  C   UNL     1       3.599   7.237   0.487  0.00  0.00    -0.079 C 
ATOM      9  N   UNL     1       3.883   7.720  -0.870  0.00  0.00    +0.379 N 
ATOM     10  C   UNL     1       2.844   7.293  -1.815  0.00  0.00    -0.079 C 
ATOM     11  C   UNL     1       1.496   7.885  -1.396  0.00  0.00    +0.027 C 
ATOM     12  H   UNL     1      -0.043   9.114   0.294  0.00  0.00    +0.125 HD
ATOM     13  H   UNL     1       3.924   8.819  -0.867  0.00  0.00    -0.086 HD
ATOM     14  H   UNL     1       4.850   7.319  -1.208  0.00  0.00    -0.086 HD
ENDROOT
BRANCH   1  19
ATOM     15  C   UNL     1      -4.728   8.919  -0.590  0.00  0.00    +0.162 A 
ATOM     16  C   UNL     1      -4.796   9.674   0.570  0.00  0.00    +0.049 A 
ATOM     17  C   UNL     1      -3.715   9.719   1.431  0.00  0.00    +0.004 A 
ATOM     18  C   UNL     1      -2.566   9.008   1.139  0.00  0.00    +0.009 A 
ATOM     19  C   UNL     1      -2.489   8.257  -0.019  0.00  0.00    +0.015 A 
ATOM     20  C   UNL     1      -3.569   8.208  -0.886  0.00  0.00    +0.163 A 
BRANCH  15  22
ATOM     21  C   UNL     1      -6.946   9.629  -1.069  0.00  0.00    +0.277 C 
ATOM     22  O   UNL     1      -5.790   8.874  -1.437  0.00  0.00    -0.491 OA
ENDBRANCH  15  22
BRANCH  20  23
ATOM     23  O   UNL     1      -3.497   7.466  -2.023  0.00  0.00    -0.503 OA
ATOM     24  H   UNL     1      -2.580   6.904  -2.256  0.00  0.00    +0.292 HD
ENDBRANCH  20  23
ENDBRANCH   1  19
BRANCH   3  25
ATOM     25  C   UNL     1      -0.059   3.849   0.022  0.00  0.00    +0.037 A 
ATOM     26  C   UNL     1      -1.254   3.126   0.030  0.00  0.00    +0.013 A 
ATOM     27  C   UNL     1      -1.224   1.748   0.017  0.00  0.00    +0.001 A 
ATOM     28  C   UNL     1      -0.013   1.076   0.008  0.00  0.00    +0.004 A 
ATOM     29  C   UNL     1       1.176   1.778   0.000  0.00  0.00    +0.046 A 
ATOM     30  C   UNL     1       1.165   3.165   0.007  0.00  0.00    +0.126 A 
BRANCH  30  31
ATOM     31  O   UNL     1       2.332   3.857   0.001  0.00  0.00    -0.506 OA
ATOM     32  H   UNL     1       3.291   3.317  -0.011  0.00  0.00    +0.292 HD
ENDBRANCH  30  31
ENDBRANCH   3  25
TORSDOF 5
