REMARK  Name = ZINC44452665
REMARK  7 active torsions:
REMARK  status: ('A' for Active; 'I' for Inactive)
REMARK    1  A    between atoms: C_1  and  C_2
REMARK    2  A    between atoms: C_2  and  C_3
REMARK    3  A    between atoms: C_2  and  O_4
REMARK    4  A    between atoms: O_4  and  C_5
REMARK    5  A    between atoms: C_8  and  C_11
REMARK    6  A    between atoms: N_13  and  C_14
REMARK    7  A    between atoms: C_15  and  C_22
REMARK                            x       y       z     vdW  Elec       q    Type
REMARK                         _______ _______ _______ _____ _____    ______ ____
ROOT
ATOM      1  C   UNL     1       8.339  -1.242  -1.993  0.00  0.00    +0.085 A 
ATOM      2  C   UNL     1       9.214  -1.554  -3.019  0.00  0.00    +0.069 A 
ATOM      3  C   UNL     1      10.640  -1.583  -2.696  0.00  0.00    -0.023 A 
ATOM      4  C   UNL     1      10.918  -1.296  -1.412  0.00  0.00    -0.004 A 
ATOM      5  S   UNL     1       9.335  -0.989  -0.668  0.00  0.00    -0.077 S 
ATOM      6  C   UNL     1      12.396  -1.343  -1.133  0.00  0.00    +0.043 C 
ATOM      7  C   UNL     1      12.993  -2.123  -2.326  0.00  0.00    +0.010 C 
ATOM      8  C   UNL     1      11.951  -1.854  -3.431  0.00  0.00    +0.037 C 
ENDROOT
BRANCH   2   9
ATOM      9  C   UNL     1       8.732  -1.845  -4.371  0.00  0.00    +0.254 C 
ATOM     10  O   UNL     1       8.608  -0.944  -5.179  0.00  0.00    -0.270 OA
ATOM     11  N   UNL     1       8.426  -3.111  -4.720  0.00  0.00    -0.236 N 
ATOM     12  C   UNL     1       7.982  -3.378  -5.964  0.00  0.00    +0.304 C 
ATOM     13  O   UNL     1       7.859  -2.478  -6.772  0.00  0.00    -0.253 OA
ATOM     14  N   UNL     1       7.676  -4.643  -6.313  0.00  0.00    -0.313 N 
ATOM     15  H   UNL     1       8.524  -3.829  -4.075  0.00  0.00    +0.159 HD
ATOM     16  H   UNL     1       7.775  -5.361  -5.668  0.00  0.00    +0.146 HD
ATOM     17  H   UNL     1       7.357  -4.836  -7.208  0.00  0.00    +0.146 HD
ENDBRANCH   2   9
BRANCH   1  20
ATOM     18  C   UNL     1       6.258  -0.828  -0.945  0.00  0.00    +0.249 C 
ATOM     19  O   UNL     1       6.839  -0.613   0.102  0.00  0.00    -0.270 OA
ATOM     20  N   UNL     1       6.958  -1.153  -2.050  0.00  0.00    -0.275 N 
ATOM     21  H   UNL     1       6.495  -1.324  -2.885  0.00  0.00    +0.156 HD
BRANCH  18  25
ATOM     22  C   UNL     1       2.024  -0.553  -1.118  0.00  0.00    +0.121 A 
ATOM     23  C   UNL     1       2.686  -0.307   0.079  0.00  0.00    +0.046 A 
ATOM     24  C   UNL     1       4.059  -0.396   0.140  0.00  0.00    +0.016 A 
ATOM     25  C   UNL     1       4.787  -0.733  -1.005  0.00  0.00    +0.037 A 
ATOM     26  C   UNL     1       4.117  -0.978  -2.207  0.00  0.00    +0.016 A 
ATOM     27  C   UNL     1       2.744  -0.894  -2.258  0.00  0.00    +0.046 A 
BRANCH  22  28
ATOM     28  O   UNL     1       0.671  -0.465  -1.174  0.00  0.00    -0.489 OA
BRANCH  28  30
ATOM     29  C   UNL     1      -0.044   1.273   0.346  0.00  0.00    +0.051 C 
ATOM     30  C   UNL     1      -0.015  -0.229   0.058  0.00  0.00    +0.167 C 
ATOM     31  C   UNL     1      -1.447  -0.756  -0.048  0.00  0.00    +0.051 C 
ENDBRANCH  28  30
ENDBRANCH  22  28
ENDBRANCH  18  25
ENDBRANCH   1  20
TORSDOF 5
