REMARK  Name = ZINC50845382
REMARK  5 active torsions:
REMARK  status: ('A' for Active; 'I' for Inactive)
REMARK    1  A    between atoms: C_6  and  N_7
REMARK    2  A    between atoms: N_10  and  C_11
REMARK    3  A    between atoms: C_11  and  C_12
REMARK    4  A    between atoms: C_12  and  C_13
REMARK    5  A    between atoms: C_19  and  C_22
REMARK                            x       y       z     vdW  Elec       q    Type
REMARK                         _______ _______ _______ _____ _____    ______ ____
ROOT
ATOM      1  C   UNL     1      -2.324  -4.208  -0.312  0.00  0.00    +0.115 C 
ENDROOT
BRANCH   1   5
ATOM      2  N   UNL     1      -1.200  -0.722   0.010  0.00  0.00    -0.269 N 
ATOM      3  C   UNL     1      -1.183  -2.065  -0.100  0.00  0.00    +0.304 C 
ATOM      4  O   UNL     1      -0.124  -2.661  -0.113  0.00  0.00    -0.253 OA
ATOM      5  N   UNL     1      -2.342  -2.748  -0.194  0.00  0.00    -0.299 N 
ATOM      6  H   UNL     1      -2.044  -0.253   0.098  0.00  0.00    +0.156 HD
ATOM      7  H   UNL     1      -3.187  -2.272  -0.183  0.00  0.00    +0.150 HD
BRANCH   2  13
ATOM      8  C   UNL     1       1.072  -0.453  -0.767  0.00  0.00    +0.024 A 
ATOM      9  C   UNL     1       2.256   0.257  -0.779  0.00  0.00    +0.017 A 
ATOM     10  C   UNL     1       2.377   1.416  -0.033  0.00  0.00    +0.018 A 
ATOM     11  C   UNL     1       1.312   1.866   0.728  0.00  0.00    +0.017 A 
ATOM     12  C   UNL     1       0.126   1.159   0.744  0.00  0.00    +0.024 A 
ATOM     13  C   UNL     1       0.002  -0.004  -0.005  0.00  0.00    +0.035 A 
ATOM     14 BR   UNL     1       4.000   2.386  -0.052  0.00  0.00    -0.050 Br
ENDBRANCH   2  13
ENDBRANCH   1   5
BRANCH   1  15
ATOM     15  C   UNL     1      -3.759  -4.730  -0.402  0.00  0.00    +0.114 C 
BRANCH  15  16
ATOM     16  C   UNL     1      -3.741  -6.232  -0.524  0.00  0.00    +0.217 C 
ATOM     17  O   UNL     1      -2.684  -6.826  -0.538  0.00  0.00    -0.276 OA
ATOM     18  N   UNL     1      -4.899  -6.914  -0.619  0.00  0.00    -0.296 N 
ATOM     19  C   UNL     1      -6.194  -6.215  -0.611  0.00  0.00    +0.136 C 
ATOM     20  C   UNL     1      -7.097  -6.882   0.432  0.00  0.00    +0.180 C 
ATOM     21  O   UNL     1      -7.138  -8.290   0.188  0.00  0.00    -0.364 OA
ATOM     22  C   UNL     1      -5.873  -8.943   0.316  0.00  0.00    +0.221 C 
ATOM     23  C   UNL     1      -4.906  -8.381  -0.739  0.00  0.00    +0.149 C 
BRANCH  22  24
ATOM     24  C   UNL     1      -6.047 -10.424   0.100  0.00  0.00    +0.241 C 
ATOM     25  O   UNL     1      -7.128 -10.866  -0.230  0.00  0.00    -0.273 OA
ATOM     26  N   UNL     1      -5.002 -11.258   0.272  0.00  0.00    -0.327 N 
ATOM     27  H   UNL     1      -4.138 -10.904   0.536  0.00  0.00    +0.145 HD
ATOM     28  H   UNL     1      -5.114 -12.211   0.133  0.00  0.00    +0.145 HD
ENDBRANCH  22  24
ENDBRANCH  15  16
ENDBRANCH   1  15
TORSDOF 5
