REMARK  Name = ZINC12330093
REMARK  8 active torsions:
REMARK  status: ('A' for Active; 'I' for Inactive)
REMARK    1  A    between atoms: C_1  and  C_2
REMARK    2  A    between atoms: C_8  and  O_29
REMARK    3  A    between atoms: C_17  and  C_18
REMARK    4  A    between atoms: C_17  and  N_57
REMARK    5  A    between atoms: C_18  and  C_20
REMARK    6  A    between atoms: C_18  and  O_28
REMARK    7  A    between atoms: C_24  and  O_26
REMARK    8  A    between atoms: O_26  and  C_27
REMARK                            x       y       z     vdW  Elec       q    Type
REMARK                         _______ _______ _______ _____ _____    ______ ____
ROOT
ATOM      1  C   UNL     1      -6.806  12.281   1.617  0.00  0.00    +0.044 C 
ATOM      2  C   UNL     1      -5.507  11.590   1.946  0.00  0.00    -0.050 A 
ATOM      3  C   UNL     1      -5.509  10.452   2.731  0.00  0.00    +0.007 A 
ATOM      4  C   UNL     1      -4.320   9.820   3.031  0.00  0.00    +0.046 A 
ATOM      5  C   UNL     1      -3.117  10.324   2.546  0.00  0.00    +0.127 A 
ATOM      6  C   UNL     1      -3.119  11.462   1.760  0.00  0.00    +0.023 A 
ATOM      7  C   UNL     1      -4.315  12.093   1.462  0.00  0.00    +0.013 A 
ATOM      8  C   UNL     1      -1.839  12.038   1.208  0.00  0.00    +0.152 C 
ATOM      9  C   UNL     1      -0.645  11.485   1.991  0.00  0.00    +0.084 C 
ATOM     10  C   UNL     1      -0.801   9.964   2.097  0.00  0.00    +0.110 C 
ATOM     11  O   UNL     1      -1.967   9.676   2.867  0.00  0.00    -0.485 OA
ATOM     12  C   UNL     1       0.432   9.371   2.780  0.00  0.00    +0.029 C 
ATOM     13  C   UNL     1       0.305   7.847   2.824  0.00  0.00    -0.075 C 
ATOM     14  C   UNL     1      -1.031   7.842   0.802  0.00  0.00    -0.075 C 
ATOM     15  C   UNL     1      -0.943   9.367   0.696  0.00  0.00    +0.029 C 
ATOM     16  N   UNL     1       0.202   7.334   1.441  0.00  0.00    +0.382 N 
ATOM     17  H   UNL     1       1.014   7.660   0.904  0.00  0.00    -0.082 HD
ENDROOT
BRANCH   8  18
ATOM     18  O   UNL     1      -1.867  13.461   1.328  0.00  0.00    -0.387 OA
ATOM     19  H   UNL     1      -2.597  13.882   0.853  0.00  0.00    +0.210 HD
ENDBRANCH   8  18
BRANCH  16  20
ATOM     20  C   UNL     1       0.193   5.857   1.450  0.00  0.00    -0.042 C 
BRANCH  20  21
ATOM     21  C   UNL     1      -0.037   5.351   0.024  0.00  0.00    +0.128 C 
BRANCH  21  22
ATOM     22  C   UNL     1       0.009   3.845   0.012  0.00  0.00    -0.017 A 
ATOM     23  C   UNL     1       1.228   3.191   0.011  0.00  0.00    +0.006 A 
ATOM     24  C   UNL     1       1.273   1.809  -0.001  0.00  0.00    +0.004 A 
ATOM     25  C   UNL     1       0.100   1.078  -0.011  0.00  0.00    +0.045 A 
ATOM     26  C   UNL     1      -1.123   1.732  -0.015  0.00  0.00    +0.120 A 
ATOM     27  C   UNL     1      -1.166   3.119   0.002  0.00  0.00    +0.051 A 
BRANCH  26  28
ATOM     28  O   UNL     1      -2.278   1.016  -0.032  0.00  0.00    -0.495 OA
ATOM     29  C   UNL     1      -2.158  -0.408  -0.043  0.00  0.00    +0.277 C 
ENDBRANCH  26  28
ENDBRANCH  21  22
BRANCH  21  30
ATOM     30  O   UNL     1       0.984   5.865  -0.834  0.00  0.00    -0.389 OA
ATOM     31  H   UNL     1       1.880   5.605  -0.580  0.00  0.00    +0.210 HD
ENDBRANCH  21  30
ENDBRANCH  20  21
ENDBRANCH  16  20
TORSDOF 6
