REMARK  Name = ZINC40372588
REMARK  6 active torsions:
REMARK  status: ('A' for Active; 'I' for Inactive)
REMARK    1  A    between atoms: C_1  and  C_2
REMARK    2  A    between atoms: C_3  and  C_7
REMARK    3  A    between atoms: N_9  and  C_10
REMARK    4  A    between atoms: C_10  and  C_17
REMARK    5  A    between atoms: C_13  and  C_16
REMARK    6  A    between atoms: N_18  and  O_19
REMARK                            x       y       z     vdW  Elec       q    Type
REMARK                         _______ _______ _______ _____ _____    ______ ____
ROOT
ATOM      1  C   UNL     1      -4.925  -1.013  -0.046  0.00  0.00    +0.093 C 
ATOM      2  C   UNL     1      -5.391  -0.314  -1.325  0.00  0.00    +0.034 C 
ATOM      3  C   UNL     1      -5.036  -1.179  -2.537  0.00  0.00    +0.006 C 
ATOM      4  C   UNL     1      -5.731  -2.537  -2.415  0.00  0.00    -0.014 C 
ATOM      5  C   UNL     1      -5.265  -3.235  -1.136  0.00  0.00    +0.006 C 
ATOM      6  C   UNL     1      -5.620  -2.370   0.075  0.00  0.00    +0.034 C 
ATOM      7  C   UNL     1      -5.376  -3.401  -3.627  0.00  0.00    +0.007 C 
ENDROOT
BRANCH   1   8
ATOM      8  C   UNL     1      -5.275  -0.161   1.147  0.00  0.00    +0.155 C 
ATOM      9  N   UNL     1      -6.071  -0.618   2.056  0.00  0.00    -0.075 NA
ATOM     10  N   UNL     1      -4.746   1.105   1.268  0.00  0.00    -0.342 N 
ATOM     11  H   UNL     1      -4.084   1.417   0.632  0.00  0.00    +0.144 HD
ATOM     12  H   UNL     1      -5.035   1.684   1.990  0.00  0.00    +0.144 HD
BRANCH   9  13
ATOM     13  O   UNL     1      -6.399   0.182   3.177  0.00  0.00    -0.408 OA
ATOM     14  H   UNL     1      -7.001  -0.245   3.803  0.00  0.00    +0.328 HD
ENDBRANCH   9  13
ENDBRANCH   1   8
BRANCH   1  17
ATOM     15  C   UNL     1      -2.834  -1.773   0.946  0.00  0.00    +0.248 C 
ATOM     16  O   UNL     1      -3.444  -2.036   1.964  0.00  0.00    -0.270 OA
ATOM     17  N   UNL     1      -3.475  -1.210  -0.097  0.00  0.00    -0.299 N 
ATOM     18  H   UNL     1      -2.975  -0.934  -0.882  0.00  0.00    +0.150 HD
BRANCH  15  21
ATOM     19  C   UNL     1      -1.056  -3.074   3.179  0.00  0.00    +0.087 C 
ATOM     20  C   UNL     1      -0.604  -2.636   1.810  0.00  0.00    +0.114 A 
ATOM     21  C   UNL     1      -1.393  -2.071   0.852  0.00  0.00    +0.077 A 
ATOM     22  C   UNL     1      -0.507  -1.822  -0.295  0.00  0.00    +0.054 A 
ATOM     23  C   UNL     1       0.708  -2.253   0.078  0.00  0.00    +0.196 A 
ATOM     24  O   UNL     1       0.640  -2.730   1.331  0.00  0.00    -0.467 OA
ENDBRANCH  15  21
ENDBRANCH   1  17
TORSDOF 4
