REMARK  Name = ZINC58328572
REMARK  8 active torsions:
REMARK  status: ('A' for Active; 'I' for Inactive)
REMARK    1  A    between atoms: C_1  and  N_2
REMARK    2  A    between atoms: N_2  and  C_3
REMARK    3  A    between atoms: N_2  and  C_10
REMARK    4  A    between atoms: C_3  and  C_4
REMARK    5  A    between atoms: C_10  and  C_11
REMARK    6  A    between atoms: C_11  and  C_13
REMARK    7  A    between atoms: C_11  and  O_30
REMARK    8  A    between atoms: C_13  and  N_14
REMARK                            x       y       z     vdW  Elec       q    Type
REMARK                         _______ _______ _______ _____ _____    ______ ____
ROOT
ATOM      1  N   UNL     1      -0.114   0.055  -4.884  0.00  0.00    -0.222 N 
ATOM      2  C   UNL     1      -1.186  -0.558  -5.428  0.00  0.00    +0.251 C 
ATOM      3  O   UNL     1      -1.713  -1.584  -5.054  0.00  0.00    -0.272 OA
ATOM      4  C   UNL     1      -1.590   0.303  -6.602  0.00  0.00    +0.144 C 
ATOM      5  C   UNL     1      -3.005   0.838  -6.406  0.00  0.00    +0.081 C 
ATOM      6  C   UNL     1      -3.994  -0.305  -6.675  0.00  0.00    +0.232 C 
ATOM      7  O   UNL     1      -3.871  -0.698  -8.042  0.00  0.00    -0.492 OA
ATOM      8  C   UNL     1      -2.626  -0.938  -8.530  0.00  0.00    +0.126 A 
ATOM      9  C   UNL     1      -1.491  -0.478  -7.883  0.00  0.00    +0.027 A 
ATOM     10  C   UNL     1      -0.241  -0.738  -8.419  0.00  0.00    +0.010 A 
ATOM     11  C   UNL     1      -0.120  -1.457  -9.592  0.00  0.00    +0.001 A 
ATOM     12  C   UNL     1      -1.252  -1.922 -10.237  0.00  0.00    +0.004 A 
ATOM     13  C   UNL     1      -2.501  -1.665  -9.709  0.00  0.00    +0.046 A 
ATOM     14  N   UNL     1      -0.618   1.402  -6.591  0.00  0.00    -0.281 N 
ATOM     15  C   UNL     1       0.202   1.174  -5.548  0.00  0.00    +0.310 C 
ATOM     16  O   UNL     1       1.128   1.900  -5.244  0.00  0.00    -0.252 OA
ATOM     17  H   UNL     1      -0.576   2.147  -7.211  0.00  0.00    +0.152 HD
ENDROOT
BRANCH   1  18
ATOM     18  C   UNL     1       0.609  -0.439  -3.710  0.00  0.00    +0.147 C 
BRANCH  18  19
ATOM     19  C   UNL     1      -0.016   0.148  -2.442  0.00  0.00    +0.116 C 
BRANCH  19  20
ATOM     20  O   UNL     1       0.065   1.574  -2.487  0.00  0.00    -0.392 OA
ATOM     21  H   UNL     1       0.968   1.915  -2.544  0.00  0.00    +0.210 HD
ENDBRANCH  19  20
BRANCH  19  22
ATOM     22  C   UNL     1       0.739  -0.368  -1.216  0.00  0.00    -0.046 C 
BRANCH  22  24
ATOM     23  C   UNL     1       0.876  -0.263   1.177  0.00  0.00    -0.096 C 
ATOM     24  N   UNL     1       0.069   0.101   0.005  0.00  0.00    +0.382 N 
ATOM     25  H   UNL     1      -0.037   1.103  -0.033  0.00  0.00    -0.082 HD
BRANCH  24  26
ATOM     26  C   UNL     1      -1.255  -0.528   0.108  0.00  0.00    -0.043 C 
BRANCH  26  27
ATOM     27  C   UNL     1      -1.991   0.044   1.292  0.00  0.00    -0.064 A 
ATOM     28  C   UNL     1      -1.864  -0.545   2.536  0.00  0.00    +0.002 A 
ATOM     29  C   UNL     1      -2.540  -0.021   3.622  0.00  0.00    +0.000 A 
ATOM     30  C   UNL     1      -3.342   1.094   3.464  0.00  0.00    +0.000 A 
ATOM     31  C   UNL     1      -3.468   1.684   2.221  0.00  0.00    +0.000 A 
ATOM     32  C   UNL     1      -2.789   1.162   1.136  0.00  0.00    +0.002 A 
ENDBRANCH  26  27
ENDBRANCH  24  26
ENDBRANCH  22  24
ENDBRANCH  19  22
ENDBRANCH  18  19
ENDBRANCH   1  18
TORSDOF 7
