REMARK  Name = ZINC38010134
REMARK  5 active torsions:
REMARK  status: ('A' for Active; 'I' for Inactive)
REMARK    1  A    between atoms: C_1  and  C_2
REMARK    2  A    between atoms: C_4  and  C_20
REMARK    3  A    between atoms: C_7  and  N_8
REMARK    4  A    between atoms: N_8  and  C_9
REMARK    5  A    between atoms: C_9  and  C_10
REMARK                            x       y       z     vdW  Elec       q    Type
REMARK                         _______ _______ _______ _____ _____    ______ ____
ROOT
ATOM      1  N   UNL     1       0.025  -0.014   2.412  0.00  0.00    -0.340 N 
ATOM      2  H   UNL     1       0.013   0.956   2.415  0.00  0.00    +0.146 HD
ENDROOT
BRANCH   1   9
ATOM      3  C   UNL     1      -0.018   1.503   0.010  0.00  0.00    +0.046 C 
ATOM      4  C   UNL     1       0.002  -0.004   0.002  0.00  0.00    -0.028 A 
ATOM      5  C   UNL     1       0.006  -0.685  -1.194  0.00  0.00    +0.024 A 
ATOM      6  C   UNL     1       0.025  -2.083  -1.201  0.00  0.00    +0.052 A 
ATOM      7  C   UNL     1       0.040  -2.784   0.008  0.00  0.00    +0.020 A 
ATOM      8  C   UNL     1       0.036  -2.097   1.201  0.00  0.00    +0.024 A 
ATOM      9  C   UNL     1       0.023  -0.706   1.204  0.00  0.00    +0.030 A 
BRANCH   6  10
ATOM     10  C   UNL     1       0.028  -2.795  -2.444  0.00  0.00    +0.099 C 
ATOM     11  N   UNL     1       0.031  -3.359  -3.430  0.00  0.00    -0.191 NA
ENDBRANCH   6  10
ENDBRANCH   1   9
BRANCH   1  12
ATOM     12  C   UNL     1       0.048  -0.750   3.678  0.00  0.00    +0.146 C 
BRANCH  12  13
ATOM     13  C   UNL     1       0.046   0.240   4.844  0.00  0.00    +0.195 C 
ATOM     14  C   UNL     1       0.131  -0.506   6.197  0.00  0.00    +0.085 C 
ATOM     15  C   UNL     1      -0.757   0.346   7.082  0.00  0.00    -0.002 A 
ATOM     16  C   UNL     1      -0.907   0.415   8.449  0.00  0.00    +0.007 A 
ATOM     17  C   UNL     1      -1.806   1.310   9.002  0.00  0.00    +0.000 A 
ATOM     18  C   UNL     1      -2.550   2.133   8.177  0.00  0.00    +0.004 A 
ATOM     19  C   UNL     1      -2.404   2.063   6.807  0.00  0.00    +0.046 A 
ATOM     20  C   UNL     1      -1.504   1.163   6.243  0.00  0.00    +0.124 A 
ATOM     21  O   UNL     1      -1.217   0.921   4.931  0.00  0.00    -0.487 OA
ENDBRANCH  12  13
ENDBRANCH   1  12
TORSDOF 4
