REMARK  Name = ZINC39969277
REMARK  8 active torsions:
REMARK  status: ('A' for Active; 'I' for Inactive)
REMARK    1  A    between atoms: C_1  and  C_2
REMARK    2  A    between atoms: C_4  and  C_29
REMARK    3  A    between atoms: C_5  and  C_14
REMARK    4  A    between atoms: C_7  and  C_8
REMARK    5  A    between atoms: C_8  and  N_9
REMARK    6  A    between atoms: C_16  and  C_27
REMARK    7  A    between atoms: C_17  and  N_26
REMARK    8  A    between atoms: C_22  and  C_25
REMARK                            x       y       z     vdW  Elec       q    Type
REMARK                         _______ _______ _______ _____ _____    ______ ____
ROOT
ATOM      1  C   UNL     1      -0.351   1.689   0.190  0.00  0.00    +0.044 C 
ATOM      2  C   UNL     1      -0.211   0.197   0.036  0.00  0.00    -0.049 A 
ATOM      3  C   UNL     1      -0.362  -0.387  -1.208  0.00  0.00    +0.007 A 
ATOM      4  C   UNL     1      -0.234  -1.756  -1.350  0.00  0.00    -0.046 A 
ATOM      5  C   UNL     1       0.045  -2.542  -0.247  0.00  0.00    -0.032 A 
ATOM      6  C   UNL     1       0.197  -1.958   0.997  0.00  0.00    +0.006 A 
ATOM      7  C   UNL     1       0.073  -0.589   1.137  0.00  0.00    -0.061 A 
ATOM      8  C   UNL     1      -0.399  -2.392  -2.706  0.00  0.00    +0.044 C 
ENDROOT
BRANCH   5   9
ATOM      9  C   UNL     1       0.184  -4.034  -0.402  0.00  0.00    +0.098 C 
ATOM     10  C   UNL     1      -0.816  -4.749   0.489  0.00  0.00    +0.097 C 
ATOM     11  C   UNL     1      -0.427  -5.444   1.578  0.00  0.00    +0.195 C 
ATOM     12  O   UNL     1       0.836  -5.623   2.008  0.00  0.00    -0.448 OA
ATOM     13  C   UNL     1       1.820  -4.685   1.566  0.00  0.00    +0.343 C 
ATOM     14  C   UNL     1       1.539  -4.483   0.072  0.00  0.00    +0.030 C 
ATOM     15  C   UNL     1       2.660  -4.790  -0.533  0.00  0.00    +0.066 C 
ATOM     16  N   UNL     1       3.568  -5.253   0.364  0.00  0.00    -0.155 NA
ATOM     17  N   UNL     1       3.172  -5.249   1.559  0.00  0.00    -0.138 NA
ATOM     18  C   UNL     1       2.906  -4.648  -2.013  0.00  0.00    +0.067 C 
BRANCH  11  19
ATOM     19  N   UNL     1      -1.420  -6.027   2.324  0.00  0.00    -0.329 N 
ATOM     20  H   UNL     1      -2.347  -5.928   2.059  0.00  0.00    +0.145 HD
ATOM     21  H   UNL     1      -1.194  -6.537   3.118  0.00  0.00    +0.145 HD
ENDBRANCH  11  19
BRANCH  10  22
ATOM     22  C   UNL     1      -2.210  -4.685   0.164  0.00  0.00    +0.101 C 
ATOM     23  N   UNL     1      -3.315  -4.634  -0.093  0.00  0.00    -0.191 NA
ENDBRANCH  10  22
ENDBRANCH   5   9
BRANCH   7  24
ATOM     24  C   UNL     1       0.243   0.048   2.493  0.00  0.00    -0.043 C 
BRANCH  24  25
ATOM     25  N   UNL     1       1.550   0.716   2.559  0.00  0.00    +0.382 N 
ATOM     26  C   UNL     1       2.628  -0.292   2.495  0.00  0.00    -0.078 C 
ATOM     27  C   UNL     1       3.734   0.250   3.434  0.00  0.00    -0.020 C 
ATOM     28  C   UNL     1       2.894   0.879   4.577  0.00  0.00    -0.020 C 
ATOM     29  C   UNL     1       1.668   1.450   3.833  0.00  0.00    -0.078 C 
ATOM     30  H   UNL     1       1.642   1.359   1.787  0.00  0.00    -0.081 HD
ENDBRANCH  24  25
ENDBRANCH   7  24
TORSDOF 5
