REMARK  Name = ZINC13051415
REMARK  10 active torsions:
REMARK  status: ('A' for Active; 'I' for Inactive)
REMARK    1  A    between atoms: C_1  and  C_2
REMARK    2  A    between atoms: C_2  and  C_4
REMARK    3  A    between atoms: C_2  and  O_33
REMARK    4  A    between atoms: C_4  and  N_5
REMARK    5  A    between atoms: C_11  and  C_31
REMARK    6  A    between atoms: C_15  and  S_16
REMARK    7  A    between atoms: S_16  and  C_17
REMARK    8  A    between atoms: C_17  and  C_19
REMARK    9  A    between atoms: C_17  and  C_20
REMARK   10  A    between atoms: N_22  and  C_23
REMARK                            x       y       z     vdW  Elec       q    Type
REMARK                         _______ _______ _______ _____ _____    ______ ____
ROOT
ATOM      1  N   UNL     1       1.304   1.554   2.431  0.00  0.00    -0.285 N 
ATOM      2  C   UNL     1       0.380   0.733   2.980  0.00  0.00    +0.262 A 
ATOM      3  O   UNL     1       0.132  -0.354   2.492  0.00  0.00    -0.267 OA
ATOM      4  C   UNL     1      -0.316   1.202   4.189  0.00  0.00    +0.065 A 
ATOM      5  C   UNL     1      -1.284   0.426   4.825  0.00  0.00    +0.016 A 
ATOM      6  C   UNL     1      -1.908   0.898   5.944  0.00  0.00    +0.016 A 
ATOM      7  C   UNL     1      -1.583   2.158   6.464  0.00  0.00    +0.065 A 
ATOM      8  C   UNL     1      -0.622   2.948   5.847  0.00  0.00    +0.043 A 
ATOM      9  C   UNL     1       0.023   2.475   4.700  0.00  0.00    +0.080 A 
ATOM     10  N   UNL     1       0.966   3.211   4.065  0.00  0.00    -0.223 NA
ATOM     11  C   UNL     1       1.575   2.768   2.993  0.00  0.00    +0.173 A 
ENDROOT
BRANCH   7  12
ATOM     12  C   UNL     1      -2.270   2.650   7.678  0.00  0.00    +0.387 C 
ATOM     13  O   UNL     1      -1.992   3.742   8.132  0.00  0.00    -0.241 OA
ATOM     14  O   UNL     1      -3.203   1.888   8.280  0.00  0.00    -0.241 OA
ENDBRANCH   7  12
BRANCH   1  15
ATOM     15  C   UNL     1       2.025   1.133   1.227  0.00  0.00    +0.158 C 
BRANCH  15  17
ATOM     16  C   UNL     1       2.008   1.149  -1.271  0.00  0.00    +0.039 C 
ATOM     17  C   UNL     1       1.254   1.588  -0.014  0.00  0.00    +0.131 C 
BRANCH  17  18
ATOM     18  O   UNL     1      -0.047   0.999  -0.008  0.00  0.00    -0.390 OA
ATOM     19  H   UNL     1      -0.042   0.032  -0.015  0.00  0.00    +0.210 HD
ENDBRANCH  17  18
ENDBRANCH  15  17
ENDBRANCH   1  15
BRANCH  11  20
ATOM     20  S   UNL     1       2.794   3.791   2.237  0.00  0.00    -0.075 S 
BRANCH  20  21
ATOM     21  C   UNL     1       2.744   5.216   3.351  0.00  0.00    +0.137 C 
ATOM     22  C   UNL     1       1.376   5.893   3.252  0.00  0.00    +0.029 C 
BRANCH  21  23
ATOM     23  C   UNL     1       3.820   6.197   2.961  0.00  0.00    +0.230 C 
ATOM     24  O   UNL     1       4.236   6.219   1.822  0.00  0.00    -0.274 OA
ATOM     25  N   UNL     1       4.319   7.050   3.877  0.00  0.00    -0.283 N 
ATOM     26  H   UNL     1       3.942   7.077   4.771  0.00  0.00    +0.155 HD
BRANCH  25  27
ATOM     27  C   UNL     1       5.383   7.896   3.540  0.00  0.00    +0.052 A 
ATOM     28  C   UNL     1       5.476   8.418   2.257  0.00  0.00    +0.026 A 
ATOM     29  C   UNL     1       6.526   9.253   1.926  0.00  0.00    +0.022 A 
ATOM     30  C   UNL     1       7.484   9.570   2.873  0.00  0.00    +0.042 A 
ATOM     31  C   UNL     1       7.394   9.051   4.152  0.00  0.00    +0.041 A 
ATOM     32  C   UNL     1       6.343   8.220   4.490  0.00  0.00    +0.064 A 
ATOM     33 CL   UNL     1       6.226   7.576   6.098  0.00  0.00    -0.082 Cl
ATOM     34 CL   UNL     1       8.802  10.619   2.454  0.00  0.00    -0.083 Cl
ENDBRANCH  25  27
ENDBRANCH  21  23
ENDBRANCH  20  21
ENDBRANCH  11  20
TORSDOF 8
