REMARK  Name = ZINC22062651
REMARK  9 active torsions:
REMARK  status: ('A' for Active; 'I' for Inactive)
REMARK    1  A    between atoms: C_1  and  O_2
REMARK    2  A    between atoms: O_2  and  C_3
REMARK    3  A    between atoms: C_5  and  N_25
REMARK    4  A    between atoms: C_7  and  O_17
REMARK    5  A    between atoms: C_9  and  O_16
REMARK    6  A    between atoms: C_11  and  C_14
REMARK    7  A    between atoms: C_14  and  O_15
REMARK    8  A    between atoms: O_17  and  C_18
REMARK    9  A    between atoms: C_18  and  C_19
REMARK                            x       y       z     vdW  Elec       q    Type
REMARK                         _______ _______ _______ _____ _____    ______ ____
ROOT
ATOM      1  C   UNL     1       1.288   2.040   0.000  0.00  0.00    +0.274 C 
ATOM      2  C   UNL     1       2.046   1.601   1.256  0.00  0.00    +0.172 C 
ATOM      3  C   UNL     1       2.119   0.072   1.290  0.00  0.00    +0.175 C 
ATOM      4  C   UNL     1       0.698  -0.498   1.241  0.00  0.00    +0.176 C 
ATOM      5  C   UNL     1      -0.008   0.022  -0.015  0.00  0.00    +0.178 C 
ATOM      6  O   UNL     1      -0.014   1.451   0.001  0.00  0.00    -0.341 OA
ENDROOT
BRANCH   2   7
ATOM      7  N   UNL     1       1.343   2.085   2.447  0.00  0.00    -0.223 N 
ATOM      8  C   UNL     1       1.751   1.870   3.711  0.00  0.00    +0.254 C 
ATOM      9  O   UNL     1       2.745   1.254   4.040  0.00  0.00    -0.270 OA
ATOM     10  C   UNL     1       0.789   2.511   4.632  0.00  0.00    +0.049 A 
ATOM     11  C   UNL     1       0.694   2.621   6.010  0.00  0.00    +0.014 A 
ATOM     12  C   UNL     1      -0.371   3.307   6.573  0.00  0.00    +0.001 A 
ATOM     13  C   UNL     1      -1.337   3.883   5.769  0.00  0.00    +0.001 A 
ATOM     14  C   UNL     1      -1.255   3.781   4.389  0.00  0.00    +0.014 A 
ATOM     15  C   UNL     1      -0.197   3.098   3.812  0.00  0.00    +0.049 A 
ATOM     16  C   UNL     1       0.203   2.797   2.421  0.00  0.00    +0.254 C 
ATOM     17  O   UNL     1      -0.398   3.138   1.422  0.00  0.00    -0.270 OA
ENDBRANCH   2   7
BRANCH   1  19
ATOM     18  C   UNL     1       1.505   2.161  -2.384  0.00  0.00    +0.197 C 
ATOM     19  O   UNL     1       2.003   1.614  -1.161  0.00  0.00    -0.353 OA
ENDBRANCH   1  19
BRANCH   4  20
ATOM     20  O   UNL     1       0.755  -1.925   1.200  0.00  0.00    -0.387 OA
ATOM     21  H   UNL     1      -0.174  -2.512   1.161  0.00  0.00    +0.210 HD
ENDBRANCH   4  20
BRANCH   5  22
ATOM     22  C   UNL     1      -1.448  -0.494  -0.041  0.00  0.00    +0.190 C 
BRANCH  22  23
ATOM     23  O   UNL     1      -2.071  -0.105  -1.266  0.00  0.00    -0.392 OA
ATOM     24  H   UNL     1      -3.115  -0.388  -1.467  0.00  0.00    +0.210 HD
ENDBRANCH  22  23
ENDBRANCH   5  22
BRANCH   3  25
ATOM     25  O   UNL     1       2.862  -0.397   0.163  0.00  0.00    -0.367 OA
BRANCH  25  26
ATOM     26  C   UNL     1       3.555  -1.625   0.394  0.00  0.00    +0.195 C 
BRANCH  26  27
ATOM     27  C   UNL     1       4.300  -2.023  -0.854  0.00  0.00    -0.022 A 
ATOM     28  C   UNL     1       3.686  -2.822  -1.801  0.00  0.00    +0.006 A 
ATOM     29  C   UNL     1       4.368  -3.183  -2.948  0.00  0.00    +0.000 A 
ATOM     30  C   UNL     1       5.667  -2.754  -3.143  0.00  0.00    +0.000 A 
ATOM     31  C   UNL     1       6.283  -1.960  -2.195  0.00  0.00    +0.000 A 
ATOM     32  C   UNL     1       5.600  -1.594  -1.050  0.00  0.00    +0.006 A 
ENDBRANCH  26  27
ENDBRANCH  25  26
ENDBRANCH   3  25
TORSDOF 8
