REMARK  Name = ZINC40130349
REMARK  5 active torsions:
REMARK  status: ('A' for Active; 'I' for Inactive)
REMARK    1  A    between atoms: C_1  and  C_2
REMARK    2  A    between atoms: C_6  and  C_7
REMARK    3  A    between atoms: N_9  and  C_10
REMARK    4  A    between atoms: C_10  and  C_12
REMARK    5  A    between atoms: C_10  and  C_13
REMARK                            x       y       z     vdW  Elec       q    Type
REMARK                         _______ _______ _______ _____ _____    ______ ____
ROOT
ATOM      1  C   UNL     1       0.478  -0.199   2.576  0.00  0.00    +0.280 C 
ATOM      2  O   UNL     1       0.403   0.961   2.934  0.00  0.00    -0.267 OA
ATOM      3  N   UNL     1       0.320  -1.192   3.473  0.00  0.00    -0.302 N 
ATOM      4  H   UNL     1       0.380  -2.118   3.188  0.00  0.00    +0.150 HD
ENDROOT
BRANCH   1  10
ATOM      5  C   UNL     1       0.883   1.895   0.295  0.00  0.00    +0.048 C 
ATOM      6  C   UNL     1       0.916   0.394   0.167  0.00  0.00    +0.011 A 
ATOM      7  C   UNL     1       1.141  -0.347  -1.003  0.00  0.00    +0.062 A 
ATOM      8  C   UNL     1       1.083  -1.692  -0.655  0.00  0.00    +0.117 A 
ATOM      9  O   UNL     1       0.841  -1.762   0.647  0.00  0.00    -0.454 OA
ATOM     10  C   UNL     1       0.739  -0.518   1.167  0.00  0.00    +0.193 A 
ATOM     11  C   UNL     1       1.271  -2.804  -1.654  0.00  0.00    +0.075 C 
ATOM     12  C   UNL     1       1.015  -2.264  -3.065  0.00  0.00    +0.016 C 
ATOM     13  C   UNL     1       1.863  -1.016  -3.329  0.00  0.00    +0.080 C 
ATOM     14  C   UNL     1       1.403   0.085  -2.385  0.00  0.00    +0.167 C 
ATOM     15  O   UNL     1       1.262   1.235  -2.745  0.00  0.00    -0.292 OA
ENDBRANCH   1  10
BRANCH   3  16
ATOM     16  C   UNL     1       0.060  -0.875   4.879  0.00  0.00    +0.103 C 
ATOM     17  C   UNL     1      -1.446  -0.708   5.094  0.00  0.00    +0.033 C 
BRANCH  16  18
ATOM     18  C   UNL     1       0.570  -1.994   5.750  0.00  0.00    +0.008 A 
ATOM     19  C   UNL     1       0.648  -3.280   5.249  0.00  0.00    +0.008 A 
ATOM     20  C   UNL     1       1.116  -4.306   6.047  0.00  0.00    +0.000 A 
ATOM     21  C   UNL     1       1.507  -4.048   7.348  0.00  0.00    +0.003 A 
ATOM     22  C   UNL     1       1.430  -2.764   7.851  0.00  0.00    +0.039 A 
ATOM     23  C   UNL     1       0.966  -1.734   7.051  0.00  0.00    +0.128 A 
ATOM     24  F   UNL     1       0.896  -0.476   7.540  0.00  0.00    -0.205 F 
ENDBRANCH  16  18
ENDBRANCH   3  16
TORSDOF 3
