REMARK  Name = ZINC66143528
REMARK  7 active torsions:
REMARK  status: ('A' for Active; 'I' for Inactive)
REMARK    1  A    between atoms: C_1  and  C_2
REMARK    2  A    between atoms: C_2  and  C_3
REMARK    3  A    between atoms: C_3  and  C_5
REMARK    4  A    between atoms: C_3  and  C_6
REMARK    5  A    between atoms: C_6  and  C_8
REMARK    6  A    between atoms: C_6  and  N_21
REMARK    7  A    between atoms: C_13  and  N_16
REMARK                            x       y       z     vdW  Elec       q    Type
REMARK                         _______ _______ _______ _____ _____    ______ ____
ROOT
ATOM      1  C   UNL     1      -2.754  -2.951  -0.408  0.00  0.00    +0.236 C 
ATOM      2  O   UNL     1      -3.123  -3.284  -1.514  0.00  0.00    -0.274 OA
ATOM      3  N   UNL     1      -3.536  -3.188   0.663  0.00  0.00    -0.302 N 
ATOM      4  C   UNL     1      -3.171  -2.931   2.064  0.00  0.00    +0.106 C 
ATOM      5  C   UNL     1      -4.383  -3.329   2.933  0.00  0.00    +0.005 C 
ATOM      6  C   UNL     1      -5.567  -3.256   1.934  0.00  0.00    -0.049 C 
ATOM      7  C   UNL     1      -4.902  -3.742   0.624  0.00  0.00    +0.092 C 
ENDROOT
BRANCH   6   8
ATOM      8  N   UNL     1      -6.656  -4.154   2.340  0.00  0.00    +0.383 N 
ATOM      9  C   UNL     1      -7.238  -3.703   3.630  0.00  0.00    -0.078 C 
ATOM     10  C   UNL     1      -8.647  -4.347   3.627  0.00  0.00    -0.020 C 
ATOM     11  C   UNL     1      -9.074  -4.238   2.145  0.00  0.00    -0.020 C 
ATOM     12  C   UNL     1      -7.759  -4.096   1.357  0.00  0.00    -0.078 C 
ATOM     13  H   UNL     1      -6.314  -5.100   2.424  0.00  0.00    -0.081 HD
ENDBRANCH   6   8
BRANCH   1  14
ATOM     14  C   UNL     1      -1.421  -2.271  -0.232  0.00  0.00    +0.163 C 
BRANCH  14  15
ATOM     15  N   UNL     1      -0.462  -2.820  -1.194  0.00  0.00    -0.288 N 
ATOM     16  C   UNL     1      -0.704  -2.724  -2.516  0.00  0.00    +0.298 C 
ATOM     17  O   UNL     1      -1.718  -2.181  -2.911  0.00  0.00    -0.253 OA
ATOM     18  N   UNL     1       0.178  -3.229  -3.402  0.00  0.00    -0.313 N 
ATOM     19  H   UNL     1       0.347  -3.253  -0.879  0.00  0.00    +0.151 HD
ATOM     20  H   UNL     1       0.987  -3.661  -3.087  0.00  0.00    +0.146 HD
ATOM     21  H   UNL     1       0.004  -3.159  -4.353  0.00  0.00    +0.146 HD
ENDBRANCH  14  15
BRANCH  14  22
ATOM     22  C   UNL     1      -1.579  -0.768  -0.470  0.00  0.00    +0.015 C 
ATOM     23  C   UNL     1      -2.514  -0.179   0.588  0.00  0.00    +0.010 C 
BRANCH  22  25
ATOM     24  C   UNL     1      -0.349   1.391  -0.737  0.00  0.00    +0.004 C 
ATOM     25  C   UNL     1      -0.210  -0.090  -0.376  0.00  0.00    +0.002 C 
ENDBRANCH  22  25
ENDBRANCH  14  22
ENDBRANCH   1  14
TORSDOF 5
