REMARK  Name = ZINC40879415
REMARK  3 active torsions:
REMARK  status: ('A' for Active; 'I' for Inactive)
REMARK    1  A    between atoms: C_4  and  C_7
REMARK    2  A    between atoms: C_15  and  C_18
REMARK    3  A    between atoms: C_18  and  O_19
REMARK                            x       y       z     vdW  Elec       q    Type
REMARK                         _______ _______ _______ _____ _____    ______ ____
ROOT
ATOM      1  C   UNL     1       3.699  -0.689  -0.037  0.00  0.00    +0.205 A 
ATOM      2  N   UNL     1       4.915  -0.133  -0.041  0.00  0.00    -0.107 NA
ATOM      3  N   UNL     1       5.815  -1.051  -0.057  0.00  0.00    -0.039 NA
ATOM      4  N   UNL     1       5.253  -2.211  -0.064  0.00  0.00    -0.111 N 
ATOM      5  N   UNL     1       3.865  -1.999  -0.046  0.00  0.00    -0.124 NA
ATOM      6  C   UNL     1       5.904  -3.450  -0.082  0.00  0.00    +0.176 A 
ATOM      7  C   UNL     1       7.292  -3.498  -0.087  0.00  0.00    +0.050 A 
ATOM      8  C   UNL     1       7.924  -4.729  -0.104  0.00  0.00    +0.011 A 
ATOM      9  C   UNL     1       7.140  -5.875  -0.116  0.00  0.00    -0.004 A 
ATOM     10  C   UNL     1       5.764  -5.752  -0.110  0.00  0.00    +0.119 A 
ATOM     11  N   UNL     1       5.191  -4.564  -0.088  0.00  0.00    -0.234 NA
ENDROOT
BRANCH   1  15
ATOM     12  C   UNL     1      -0.017   1.379   0.010  0.00  0.00    +0.000 A 
ATOM     13  C   UNL     1       1.169   2.092   0.002  0.00  0.00    +0.001 A 
ATOM     14  C   UNL     1       2.377   1.425  -0.013  0.00  0.00    +0.012 A 
ATOM     15  C   UNL     1       2.402   0.033  -0.021  0.00  0.00    +0.023 A 
ATOM     16  C   UNL     1       1.205  -0.680  -0.013  0.00  0.00    +0.012 A 
ATOM     17  C   UNL     1       0.002  -0.004   0.002  0.00  0.00    +0.001 A 
ENDBRANCH   1  15
BRANCH   9  18
ATOM     18  C   UNL     1       7.783  -7.237  -0.135  0.00  0.00    +0.192 C 
BRANCH  18  19
ATOM     19  O   UNL     1       7.991  -7.685   1.206  0.00  0.00    -0.390 OA
ATOM     20  H   UNL     1       8.403  -8.558   1.270  0.00  0.00    +0.210 HD
ENDBRANCH  18  19
ENDBRANCH   9  18
TORSDOF 3
