REMARK  Name = ZINC12393784
REMARK  7 active torsions:
REMARK  status: ('A' for Active; 'I' for Inactive)
REMARK    1  A    between atoms: C_1  and  N_2
REMARK    2  A    between atoms: C_6  and  C_7
REMARK    3  A    between atoms: N_9  and  N_10
REMARK    4  A    between atoms: C_11  and  C_13
REMARK    5  A    between atoms: C_15  and  O_21
REMARK    6  A    between atoms: C_16  and  O_20
REMARK    7  A    between atoms: O_21  and  C_22
REMARK                            x       y       z     vdW  Elec       q    Type
REMARK                         _______ _______ _______ _____ _____    ______ ____
ROOT
ATOM      1  N   UNL     1      -1.240   2.029  -0.014  0.00  0.00    -0.230 N 
ATOM      2  C   UNL     1      -1.258   3.377  -0.014  0.00  0.00    +0.260 C 
ATOM      3  O   UNL     1      -0.213   3.999  -0.019  0.00  0.00    -0.269 OA
ATOM      4  H   UNL     1      -2.073   1.533  -0.011  0.00  0.00    +0.173 HD
ENDROOT
BRANCH   2   5
ATOM      5  C   UNL     1      -2.546   4.098  -0.010  0.00  0.00    +0.043 A 
ATOM      6  C   UNL     1      -2.566   5.495  -0.004  0.00  0.00    +0.062 A 
ATOM      7  C   UNL     1      -3.774   6.166  -0.006  0.00  0.00    +0.163 A 
ATOM      8  C   UNL     1      -4.969   5.448  -0.001  0.00  0.00    +0.173 A 
ATOM      9  C   UNL     1      -4.949   4.060  -0.000  0.00  0.00    +0.064 A 
ATOM     10  C   UNL     1      -3.747   3.385  -0.005  0.00  0.00    +0.032 A 
ATOM     11 BR   UNL     1      -6.574   3.093   0.007  0.00  0.00    -0.046 Br
BRANCH   8  12
ATOM     12  O   UNL     1      -6.156   6.109   0.004  0.00  0.00    -0.503 OA
ATOM     13  H   UNL     1      -6.496   6.301   0.888  0.00  0.00    +0.292 HD
ENDBRANCH   8  12
BRANCH   7  14
ATOM     14  O   UNL     1      -3.797   7.526  -0.007  0.00  0.00    -0.491 OA
ATOM     15  C   UNL     1      -2.535   8.196  -0.013  0.00  0.00    +0.277 C 
ENDBRANCH   7  14
ENDBRANCH   2   5
BRANCH   1  18
ATOM     16  C   UNL     1       0.001  -0.002  -0.018  0.00  0.00    +0.277 C 
ATOM     17  O   UNL     1      -1.040  -0.625   0.078  0.00  0.00    -0.267 OA
ATOM     18  N   UNL     1      -0.017   1.345  -0.018  0.00  0.00    -0.229 N 
ATOM     19  H   UNL     1       0.817   1.841  -0.026  0.00  0.00    +0.173 HD
BRANCH  16  25
ATOM     20  C   UNL     1       0.354  -3.069  -0.278  0.00  0.00    +0.149 C 
ATOM     21  N   UNL     1       1.436  -2.081  -0.249  0.00  0.00    -0.345 N 
ATOM     22  C   UNL     1       2.761  -2.357  -0.333  0.00  0.00    +0.106 A 
ATOM     23  C   UNL     1       3.455  -1.194  -0.273  0.00  0.00    +0.059 A 
ATOM     24  C   UNL     1       2.532  -0.150  -0.152  0.00  0.00    +0.052 A 
ATOM     25  C   UNL     1       1.276  -0.719  -0.134  0.00  0.00    +0.107 A 
ATOM     26 CL   UNL     1       5.181  -1.029  -0.340  0.00  0.00    -0.082 Cl
ENDBRANCH  16  25
ENDBRANCH   1  18
TORSDOF 5
