REMARK  Name = ZINC58884947
REMARK  6 active torsions:
REMARK  status: ('A' for Active; 'I' for Inactive)
REMARK    1  A    between atoms: C_1  and  C_2
REMARK    2  A    between atoms: C_7  and  N_8
REMARK    3  A    between atoms: C_9  and  C_11
REMARK    4  A    between atoms: N_13  and  N_14
REMARK    5  A    between atoms: C_15  and  C_16
REMARK    6  A    between atoms: C_21  and  C_22
REMARK                            x       y       z     vdW  Elec       q    Type
REMARK                         _______ _______ _______ _____ _____    ______ ____
ROOT
ATOM      1  C   UNL     1      -0.053   0.051   4.877  0.00  0.00    +0.318 C 
ATOM      2  O   UNL     1      -0.060   1.265   4.884  0.00  0.00    -0.263 OA
ATOM      3  N   UNL     1      -0.163  -0.631   6.034  0.00  0.00    -0.199 N 
ATOM      4  H   UNL     1      -0.157  -1.601   6.028  0.00  0.00    +0.178 HD
ENDROOT
BRANCH   1   6
ATOM      5  N   UNL     1       0.187  -0.005   2.429  0.00  0.00    -0.277 N 
ATOM      6  C   UNL     1       0.077  -0.686   3.587  0.00  0.00    +0.305 C 
ATOM      7  O   UNL     1       0.084  -1.900   3.579  0.00  0.00    -0.265 OA
ATOM      8  H   UNL     1       0.242   0.964   2.440  0.00  0.00    +0.155 HD
BRANCH   5  15
ATOM      9  C   UNL     1      -1.041   1.204   0.165  0.00  0.00    +0.045 C 
ATOM     10  C   UNL     1      -0.364  -0.140   0.083  0.00  0.00    -0.029 A 
ATOM     11  C   UNL     1      -0.321  -0.821  -1.118  0.00  0.00    +0.005 A 
ATOM     12  C   UNL     1       0.300  -2.054  -1.194  0.00  0.00    +0.000 A 
ATOM     13  C   UNL     1       0.880  -2.610  -0.069  0.00  0.00    +0.002 A 
ATOM     14  C   UNL     1       0.841  -1.935   1.135  0.00  0.00    +0.023 A 
ATOM     15  C   UNL     1       0.223  -0.693   1.214  0.00  0.00    +0.037 A 
ENDBRANCH   5  15
ENDBRANCH   1   6
BRANCH   3  16
ATOM     16  N   UNL     1      -0.285   0.062   7.246  0.00  0.00    -0.187 NA
ATOM     17  C   UNL     1      -0.392  -0.596   8.362  0.00  0.00    +0.139 C 
BRANCH  17  18
ATOM     18  C   UNL     1      -0.520   0.132   9.635  0.00  0.00    +0.009 A 
ATOM     19  C   UNL     1      -0.644   1.522   9.641  0.00  0.00    +0.010 A 
ATOM     20  C   UNL     1      -0.765   2.199  10.837  0.00  0.00    +0.001 A 
ATOM     21  C   UNL     1      -0.763   1.508  12.039  0.00  0.00    +0.001 A 
ATOM     22  C   UNL     1      -0.641   0.135  12.057  0.00  0.00    +0.016 A 
ATOM     23  C   UNL     1      -0.524  -0.572  10.858  0.00  0.00    +0.072 A 
BRANCH  23  24
ATOM     24  C   UNL     1      -0.400  -2.038  10.871  0.00  0.00    +0.387 C 
ATOM     25  O   UNL     1      -0.296  -2.634  11.934  0.00  0.00    -0.241 OA
ATOM     26  O   UNL     1      -0.402  -2.662   9.818  0.00  0.00    -0.241 OA
ENDBRANCH  23  24
ENDBRANCH  17  18
ENDBRANCH   3  16
TORSDOF 5
