REMARK  Name = ZINC27345675
REMARK  8 active torsions:
REMARK  status: ('A' for Active; 'I' for Inactive)
REMARK    1  A    between atoms: C_5  and  C_7
REMARK    2  A    between atoms: C_7  and  C_9
REMARK    3  A    between atoms: C_7  and  N_25
REMARK    4  A    between atoms: C_9  and  N_10
REMARK    5  A    between atoms: C_11  and  C_13
REMARK    6  A    between atoms: C_13  and  C_14
REMARK    7  A    between atoms: C_14  and  N_15
REMARK    8  A    between atoms: N_18  and  C_19
REMARK                            x       y       z     vdW  Elec       q    Type
REMARK                         _______ _______ _______ _____ _____    ______ ____
ROOT
ATOM      1  N   UNL     1       7.302   1.131  -0.393  0.00  0.00    -0.316 N 
ATOM      2  C   UNL     1       6.201   1.901  -0.496  0.00  0.00    +0.214 C 
ATOM      3  O   UNL     1       6.294   3.107  -0.404  0.00  0.00    -0.276 OA
ATOM      4  H   UNL     1       7.218   0.037  -0.477  0.00  0.00    +0.149 HD
ENDROOT
BRANCH   1   5
ATOM      5  C   UNL     1       8.611   1.750  -0.169  0.00  0.00    +0.093 C 
BRANCH   5   6
ATOM      6  C   UNL     1       9.662   0.658   0.039  0.00  0.00    -0.019 C 
BRANCH   6  11
ATOM      7  C   UNL     1       8.440  -2.013   2.411  0.00  0.00    +0.000 A 
ATOM      8  C   UNL     1       8.801  -1.482   3.635  0.00  0.00    +0.001 A 
ATOM      9  C   UNL     1       9.440  -0.259   3.697  0.00  0.00    +0.020 A 
ATOM     10  C   UNL     1       9.719   0.435   2.532  0.00  0.00    +0.043 A 
ATOM     11  C   UNL     1       9.358  -0.097   1.308  0.00  0.00    -0.041 A 
ATOM     12  C   UNL     1       8.714  -1.319   1.248  0.00  0.00    +0.003 A 
ATOM     13 CL   UNL     1      10.522   1.972   2.609  0.00  0.00    -0.083 Cl
ENDBRANCH   6  11
BRANCH   6  14
ATOM     14  N   UNL     1       9.637  -0.269  -1.100  0.00  0.00    +0.385 N 
ATOM     15  C   UNL     1       9.808   0.459  -2.383  0.00  0.00    -0.078 C 
ATOM     16  C   UNL     1      10.279  -0.648  -3.360  0.00  0.00    -0.020 C 
ATOM     17  C   UNL     1      11.199  -1.520  -2.475  0.00  0.00    -0.020 C 
ATOM     18  C   UNL     1      10.761  -1.228  -1.028  0.00  0.00    -0.078 C 
ATOM     19  H   UNL     1       8.665  -0.782  -1.048  0.00  0.00    -0.081 HD
ENDBRANCH   6  14
ENDBRANCH   5   6
ENDBRANCH   1   5
BRANCH   2  20
ATOM     20  C   UNL     1       4.854   1.265  -0.728  0.00  0.00    +0.114 C 
BRANCH  20  21
ATOM     21  C   UNL     1       3.782   2.353  -0.806  0.00  0.00    +0.115 C 
BRANCH  21  22
ATOM     22  N   UNL     1       2.474   1.735  -1.030  0.00  0.00    -0.299 N 
ATOM     23  C   UNL     1       1.373   2.505  -1.133  0.00  0.00    +0.300 C 
ATOM     24  O   UNL     1       1.466   3.714  -1.040  0.00  0.00    -0.253 OA
ATOM     25  N   UNL     1       0.169   1.936  -1.340  0.00  0.00    -0.297 N 
ATOM     26  H   UNL     1       2.389   0.641  -1.115  0.00  0.00    +0.150 HD
ATOM     27  H   UNL     1       0.084   0.842  -1.420  0.00  0.00    +0.151 HD
BRANCH  25  28
ATOM     28  C   UNL     1      -1.027   2.774  -1.458  0.00  0.00    +0.074 C 
ATOM     29  C   UNL     1      -1.579   3.075  -0.064  0.00  0.00    +0.022 C 
ATOM     30  C   UNL     1      -2.828   3.950  -0.187  0.00  0.00    +0.002 C 
ATOM     31  C   UNL     1      -3.889   3.212  -1.007  0.00  0.00    +0.000 C 
ATOM     32  C   UNL     1      -3.337   2.912  -2.402  0.00  0.00    +0.002 C 
ATOM     33  C   UNL     1      -2.088   2.037  -2.278  0.00  0.00    +0.022 C 
ENDBRANCH  25  28
ENDBRANCH  21  22
ENDBRANCH  20  21
ENDBRANCH   2  20
TORSDOF 8
