REMARK  Name = ZINC39659637
REMARK  7 active torsions:
REMARK  status: ('A' for Active; 'I' for Inactive)
REMARK    1  A    between atoms: C_1  and  C_2
REMARK    2  A    between atoms: C_2  and  C_36
REMARK    3  A    between atoms: C_5  and  C_8
REMARK    4  A    between atoms: C_8  and  N_9
REMARK    5  A    between atoms: C_10  and  C_12
REMARK    6  A    between atoms: C_23  and  C_25
REMARK    7  A    between atoms: C_28  and  C_30
REMARK                            x       y       z     vdW  Elec       q    Type
REMARK                         _______ _______ _______ _____ _____    ______ ____
ROOT
ATOM      1  C   UNL     1       3.741  -1.479   5.261  0.00  0.00    +0.100 C 
ATOM      2  C   UNL     1       4.780  -0.336   5.248  0.00  0.00    +0.121 C 
ATOM      3  N   UNL     1       5.551  -0.515   6.500  0.00  0.00    -0.294 N 
ATOM      4  C   UNL     1       5.709  -1.984   6.629  0.00  0.00    +0.115 C 
ATOM      5  C   UNL     1       4.354  -2.559   6.168  0.00  0.00    -0.004 C 
ATOM      6  C   UNL     1       3.453  -2.813   7.372  0.00  0.00    -0.010 C 
ATOM      7  C   UNL     1       4.055  -3.930   8.229  0.00  0.00    -0.082 C 
ATOM      8  N   UNL     1       4.185  -5.151   7.423  0.00  0.00    +0.379 N 
ATOM      9  C   UNL     1       5.127  -4.925   6.320  0.00  0.00    -0.082 C 
ATOM     10  C   UNL     1       4.570  -3.849   5.383  0.00  0.00    -0.010 C 
ATOM     11  C   UNL     1       6.007   0.440   7.334  0.00  0.00    +0.282 C 
ATOM     12  O   UNL     1       6.631   0.130   8.332  0.00  0.00    -0.267 OA
ATOM     13  H   UNL     1       4.525  -5.902   8.006  0.00  0.00    -0.086 HD
ATOM     14  H   UNL     1       3.283  -5.402   7.048  0.00  0.00    -0.086 HD
ENDROOT
BRANCH  11  15
ATOM     15  C   UNL     1       5.751   1.853   7.040  0.00  0.00    +0.190 A 
ATOM     16  C   UNL     1       6.162   2.925   7.800  0.00  0.00    +0.055 A 
ATOM     17  C   UNL     1       5.704   4.078   7.154  0.00  0.00    +0.050 A 
ATOM     18  C   UNL     1       5.037   3.671   6.035  0.00  0.00    +0.136 A 
ATOM     19  O   UNL     1       5.077   2.330   5.973  0.00  0.00    -0.450 OA
BRANCH  18  20
ATOM     20  C   UNL     1       4.384   4.560   5.051  0.00  0.00    +0.017 A 
ATOM     21  C   UNL     1       4.423   5.945   5.223  0.00  0.00    +0.011 A 
ATOM     22  C   UNL     1       3.812   6.769   4.301  0.00  0.00    +0.001 A 
ATOM     23  C   UNL     1       3.162   6.226   3.207  0.00  0.00    +0.000 A 
ATOM     24  C   UNL     1       3.119   4.854   3.031  0.00  0.00    +0.001 A 
ATOM     25  C   UNL     1       3.731   4.019   3.942  0.00  0.00    +0.011 A 
ENDBRANCH  18  20
ENDBRANCH  11  15
BRANCH   1  27
ATOM     26  N   UNL     1       2.351  -2.562   3.526  0.00  0.00    -0.312 N 
ATOM     27  C   UNL     1       3.535  -2.018   3.869  0.00  0.00    +0.218 C 
ATOM     28  O   UNL     1       4.435  -1.962   3.058  0.00  0.00    -0.275 OA
ATOM     29  H   UNL     1       1.632  -2.607   4.174  0.00  0.00    +0.149 HD
BRANCH  26  30
ATOM     30  C   UNL     1       2.151  -3.086   2.172  0.00  0.00    +0.138 C 
BRANCH  30  35
ATOM     31  C   UNL     1      -1.826  -5.240   2.896  0.00  0.00    +0.074 C 
ATOM     32  C   UNL     1      -0.489  -5.567   2.227  0.00  0.00    +0.165 C 
ATOM     33  O   UNL     1      -0.540  -5.200   0.842  0.00  0.00    -0.347 OA
ATOM     34  C   UNL     1       0.483  -4.208   0.624  0.00  0.00    +0.196 C 
ATOM     35  C   UNL     1       0.732  -3.643   2.045  0.00  0.00    +0.164 C 
ATOM     36  O   UNL     1       0.564  -4.825   2.865  0.00  0.00    -0.342 OA
ATOM     37  C   UNL     1      -0.208  -7.066   2.348  0.00  0.00    +0.074 C 
ENDBRANCH  30  35
ENDBRANCH  26  30
ENDBRANCH   1  27
TORSDOF 5
