REMARK  Name = ZINC36924606
REMARK  6 active torsions:
REMARK  status: ('A' for Active; 'I' for Inactive)
REMARK    1  A    between atoms: C_1  and  C_2
REMARK    2  A    between atoms: C_2  and  C_3
REMARK    3  A    between atoms: C_2  and  N_4
REMARK    4  A    between atoms: N_4  and  C_5
REMARK    5  A    between atoms: C_5  and  C_7
REMARK    6  A    between atoms: C_5  and  C_9
REMARK                            x       y       z     vdW  Elec       q    Type
REMARK                         _______ _______ _______ _____ _____    ______ ____
ROOT
ATOM      1  C   UNL     1       2.842  -0.401  -2.332  0.00  0.00    -0.012 A 
ATOM      2  C   UNL     1       3.990   0.360  -2.442  0.00  0.00    +0.055 A 
ATOM      3  C   UNL     1       4.636   0.473  -3.664  0.00  0.00    +0.164 A 
ATOM      4  C   UNL     1       4.126  -0.183  -4.778  0.00  0.00    +0.176 A 
ATOM      5  C   UNL     1       2.972  -0.945  -4.662  0.00  0.00    +0.063 A 
ATOM      6  C   UNL     1       2.336  -1.057  -3.439  0.00  0.00    +0.025 A 
ATOM      7 BR   UNL     1       2.272  -1.837  -6.175  0.00  0.00    -0.046 Br
ATOM      8  O   UNL     1       4.748  -0.092  -5.985  0.00  0.00    -0.484 OA
ATOM      9  C   UNL     1       5.687   0.977  -6.147  0.00  0.00    +0.270 C 
ATOM     10  C   UNL     1       6.590   1.015  -4.906  0.00  0.00    +0.270 C 
ATOM     11  O   UNL     1       5.763   1.230  -3.757  0.00  0.00    -0.485 OA
ENDROOT
BRANCH   1  12
ATOM     12  C   UNL     1       2.144  -0.522  -1.002  0.00  0.00    +0.188 C 
BRANCH  12  13
ATOM     13  N   UNL     1       0.690  -0.478  -1.207  0.00  0.00    -0.296 NA
ATOM     14  H   UNL     1       0.337  -1.379  -1.493  0.00  0.00    +0.124 HD
BRANCH  13  16
ATOM     15  C   UNL     1      -0.019   1.526   0.010  0.00  0.00    +0.023 C 
ATOM     16  C   UNL     1       0.002  -0.004   0.002  0.00  0.00    +0.049 C 
ATOM     17  C   UNL     1      -1.433  -0.534   0.013  0.00  0.00    +0.023 C 
ENDBRANCH  13  16
ENDBRANCH  12  13
BRANCH  12  18
ATOM     18  C   UNL     1       2.511  -1.799  -0.369  0.00  0.00    +0.086 C 
ATOM     19  N   UNL     1       2.795  -2.784   0.120  0.00  0.00    -0.195 NA
ENDBRANCH  12  18
ENDBRANCH   1  12
TORSDOF 4
