REMARK  Name = ZINC51327681
REMARK  6 active torsions:
REMARK  status: ('A' for Active; 'I' for Inactive)
REMARK    1  A    between atoms: C_4  and  N_21
REMARK    2  A    between atoms: C_5  and  C_7
REMARK    3  A    between atoms: C_7  and  C_9
REMARK    4  A    between atoms: C_7  and  O_20
REMARK    5  A    between atoms: C_9  and  O_10
REMARK    6  A    between atoms: O_10  and  C_11
REMARK                            x       y       z     vdW  Elec       q    Type
REMARK                         _______ _______ _______ _____ _____    ______ ____
ROOT
ATOM      1  C   UNL     1       1.226  -2.187  -0.022  0.00  0.00    +0.184 C 
ENDROOT
BRANCH   1   6
ATOM      2  C   UNL     1      -0.017   1.378   0.010  0.00  0.00    +0.000 A 
ATOM      3  C   UNL     1       1.170   2.089   0.002  0.00  0.00    +0.002 A 
ATOM      4  C   UNL     1       2.377   1.420  -0.013  0.00  0.00    +0.023 A 
ATOM      5  C   UNL     1       2.400   0.031  -0.021  0.00  0.00    +0.030 A 
ATOM      6  C   UNL     1       1.207  -0.680  -0.013  0.00  0.00    +0.005 A 
ATOM      7  C   UNL     1       0.002  -0.004   0.002  0.00  0.00    +0.008 A 
BRANCH   5   8
ATOM      8  N   UNL     1       3.620  -0.649  -0.036  0.00  0.00    -0.358 N 
ATOM      9  H   UNL     1       4.452  -0.152  -0.042  0.00  0.00    +0.142 HD
ATOM     10  H   UNL     1       3.634  -1.619  -0.042  0.00  0.00    +0.142 HD
ENDBRANCH   5   8
ENDBRANCH   1   6
BRANCH   1  11
ATOM     11  O   UNL     1       0.006  -2.676  -0.582  0.00  0.00    -0.384 OA
ATOM     12  H   UNL     1      -0.786  -2.403  -0.098  0.00  0.00    +0.210 HD
ENDBRANCH   1  11
BRANCH   1  13
ATOM     13  C   UNL     1       1.372  -2.703   1.411  0.00  0.00    +0.265 C 
BRANCH  13  14
ATOM     14  O   UNL     1       1.508  -4.126   1.393  0.00  0.00    -0.488 OA
BRANCH  14  15
ATOM     15  C   UNL     1       1.649  -4.747   2.594  0.00  0.00    +0.140 A 
ATOM     16  C   UNL     1       1.650  -4.004   3.765  0.00  0.00    +0.068 A 
ATOM     17  C   UNL     1       1.793  -4.638   4.985  0.00  0.00    +0.063 A 
ATOM     18  C   UNL     1       1.935  -6.015   5.038  0.00  0.00    +0.061 A 
ATOM     19  C   UNL     1       1.933  -6.758   3.872  0.00  0.00    +0.045 A 
ATOM     20  C   UNL     1       1.785  -6.128   2.650  0.00  0.00    +0.084 A 
ATOM     21 CL   UNL     1       1.776  -7.061   1.186  0.00  0.00    -0.080 Cl
ATOM     22 CL   UNL     1       2.115  -6.809   6.572  0.00  0.00    -0.082 Cl
ATOM     23 CL   UNL     1       1.795  -3.708   6.451  0.00  0.00    -0.082 Cl
ENDBRANCH  14  15
ENDBRANCH  13  14
ENDBRANCH   1  13
TORSDOF 6
