REMARK  Name = ZINC43050370
REMARK  7 active torsions:
REMARK  status: ('A' for Active; 'I' for Inactive)
REMARK    1  A    between atoms: C_1  and  C_2
REMARK    2  A    between atoms: C_2  and  C_4
REMARK    3  A    between atoms: C_2  and  N_23
REMARK    4  A    between atoms: C_4  and  C_6
REMARK    5  A    between atoms: C_4  and  S_13
REMARK    6  A    between atoms: S_13  and  C_14
REMARK    7  A    between atoms: C_20  and  N_22
REMARK                            x       y       z     vdW  Elec       q    Type
REMARK                         _______ _______ _______ _____ _____    ______ ____
ROOT
ATOM      1  C   UNL     1       0.795  -0.509   1.298  0.00  0.00    +0.072 C 
ENDROOT
BRANCH   1   2
ATOM      2  C   UNL     1       2.212   0.006   1.289  0.00  0.00    -0.000 A 
ATOM      3  C   UNL     1       2.521   1.192   1.928  0.00  0.00    +0.007 A 
ATOM      4  C   UNL     1       3.820   1.664   1.920  0.00  0.00    +0.000 A 
ATOM      5  C   UNL     1       4.811   0.951   1.273  0.00  0.00    +0.003 A 
ATOM      6  C   UNL     1       4.505  -0.235   0.634  0.00  0.00    +0.038 A 
ATOM      7  C   UNL     1       3.205  -0.712   0.646  0.00  0.00    +0.128 A 
ATOM      8  F   UNL     1       2.906  -1.875   0.026  0.00  0.00    -0.205 F 
ENDBRANCH   1   2
BRANCH   1  10
ATOM      9  C   UNL     1      -0.038   1.460   0.005  0.00  0.00    -0.013 C 
ATOM     10  C   UNL     1       0.083  -0.066   0.019  0.00  0.00    -0.060 C 
BRANCH  10  11
ATOM     11  N   UNL     1      -1.257  -0.664  -0.028  0.00  0.00    +0.381 N 
ATOM     12  H   UNL     1      -1.701  -0.427  -0.903  0.00  0.00    -0.090 HD
ATOM     13  H   UNL     1      -1.180  -1.667   0.049  0.00  0.00    -0.090 HD
ATOM     14  H   UNL     1      -1.811  -0.310   0.737  0.00  0.00    -0.090 HD
ENDBRANCH  10  11
ENDBRANCH   1  10
BRANCH   1  15
ATOM     15  S   UNL     1       0.811  -2.321   1.385  0.00  0.00    -0.081 S 
BRANCH  15  16
ATOM     16  C   UNL     1       1.437  -2.665   2.996  0.00  0.00    +0.171 A 
ATOM     17  N   UNL     1       1.495  -3.956   3.428  0.00  0.00    -0.302 N 
ATOM     18  H   UNL     1       1.193  -4.673   2.849  0.00  0.00    +0.171 HD
ATOM     19  C   UNL     1       1.972  -4.238   4.658  0.00  0.00    +0.254 A 
ATOM     20  O   UNL     1       2.027  -5.392   5.053  0.00  0.00    -0.268 OA
ATOM     21  C   UNL     1       2.402  -3.186   5.473  0.00  0.00    +0.113 A 
ATOM     22  C   UNL     1       2.322  -1.889   4.986  0.00  0.00    +0.124 A 
ATOM     23  N   UNL     1       1.846  -1.669   3.756  0.00  0.00    -0.209 NA
BRANCH  22  24
ATOM     24  N   UNL     1       2.739  -0.829   5.767  0.00  0.00    -0.343 N 
ATOM     25  H   UNL     1       3.088  -0.991   6.657  0.00  0.00    +0.144 HD
ATOM     26  H   UNL     1       2.683   0.077   5.425  0.00  0.00    +0.144 HD
ENDBRANCH  22  24
ENDBRANCH  15  16
ENDBRANCH   1  15
TORSDOF 6
