REMARK  Name = ZINC40095467
REMARK  7 active torsions:
REMARK  status: ('A' for Active; 'I' for Inactive)
REMARK    1  A    between atoms: C_1  and  C_2
REMARK    2  A    between atoms: C_7  and  C_12
REMARK    3  A    between atoms: C_12  and  C_14
REMARK    4  A    between atoms: N_18  and  C_28
REMARK    5  A    between atoms: C_19  and  C_21
REMARK    6  A    between atoms: C_28  and  C_29
REMARK    7  A    between atoms: C_29  and  O_30
REMARK                            x       y       z     vdW  Elec       q    Type
REMARK                         _______ _______ _______ _____ _____    ______ ____
ROOT
ATOM      1  C   UNL     1      -2.131  -6.389   3.314  0.00  0.00    +0.076 C 
ATOM      2  C   UNL     1      -2.636  -7.612   3.597  0.00  0.00    +0.249 C 
ATOM      3  C   UNL     1      -1.641  -8.379   4.376  0.00  0.00    +0.288 C 
ATOM      4  O   UNL     1      -1.798  -9.514   4.782  0.00  0.00    -0.266 OA
ATOM      5  N   UNL     1      -0.537  -7.636   4.569  0.00  0.00    -0.281 N 
ATOM      6  C   UNL     1      -0.747  -6.337   3.919  0.00  0.00    +0.147 C 
ATOM      7  O   UNL     1      -3.857  -8.061   3.226  0.00  0.00    -0.282 OA
ENDROOT
BRANCH   6   8
ATOM      8  C   UNL     1      -0.669  -5.231   4.939  0.00  0.00    +0.013 A 
ATOM      9  C   UNL     1      -0.920  -5.500   6.271  0.00  0.00    +0.008 A 
ATOM     10  C   UNL     1      -0.848  -4.486   7.207  0.00  0.00    +0.001 A 
ATOM     11  C   UNL     1      -0.524  -3.201   6.813  0.00  0.00    +0.003 A 
ATOM     12  C   UNL     1      -0.272  -2.930   5.481  0.00  0.00    +0.039 A 
ATOM     13  C   UNL     1      -0.339  -3.946   4.543  0.00  0.00    +0.129 A 
ATOM     14  F   UNL     1      -0.088  -3.683   3.242  0.00  0.00    -0.205 F 
ENDBRANCH   6   8
BRANCH   1  15
ATOM     15  C   UNL     1      -2.796  -5.321   2.560  0.00  0.00    +0.195 C 
ATOM     16  O   UNL     1      -3.784  -4.778   3.017  0.00  0.00    -0.287 OA
BRANCH  15  22
ATOM     17  C   UNL     1      -1.711  -1.724  -3.821  0.00  0.00    +0.052 C 
ATOM     18  C   UNL     1      -2.101  -2.960  -3.009  0.00  0.00    +0.175 C 
ATOM     19  C   UNL     1      -2.925  -2.559  -1.762  0.00  0.00    +0.083 C 
ATOM     20  C   UNL     1      -2.435  -3.556  -0.729  0.00  0.00    -0.002 A 
ATOM     21  C   UNL     1      -2.935  -3.936   0.491  0.00  0.00    +0.019 A 
ATOM     22  C   UNL     1      -2.267  -4.905   1.246  0.00  0.00    +0.023 A 
ATOM     23  C   UNL     1      -1.092  -5.477   0.747  0.00  0.00    +0.015 A 
ATOM     24  C   UNL     1      -0.598  -5.085  -0.475  0.00  0.00    +0.046 A 
ATOM     25  C   UNL     1      -1.262  -4.116  -1.229  0.00  0.00    +0.124 A 
ATOM     26  O   UNL     1      -0.937  -3.583  -2.440  0.00  0.00    -0.488 OA
ENDBRANCH  15  22
ENDBRANCH   1  15
BRANCH   5  27
ATOM     27  C   UNL     1       0.665  -8.051   5.296  0.00  0.00    +0.137 C 
BRANCH  27  28
ATOM     28  C   UNL     1       1.646  -8.711   4.325  0.00  0.00    +0.175 C 
BRANCH  28  29
ATOM     29  O   UNL     1       2.095  -7.746   3.372  0.00  0.00    -0.393 OA
ATOM     30  H   UNL     1       2.721  -8.095   2.723  0.00  0.00    +0.209 HD
ENDBRANCH  28  29
ENDBRANCH  27  28
ENDBRANCH   5  27
TORSDOF 6
