REMARK  Name = ZINC19791832
REMARK  9 active torsions:
REMARK  status: ('A' for Active; 'I' for Inactive)
REMARK    1  A    between atoms: C_1  and  C_2
REMARK    2  A    between atoms: C_2  and  C_3
REMARK    3  A    between atoms: C_3  and  C_4
REMARK    4  A    between atoms: C_4  and  N_5
REMARK    5  A    between atoms: C_7  and  C_18
REMARK    6  A    between atoms: C_8  and  C_15
REMARK    7  A    between atoms: C_9  and  C_13
REMARK    8  A    between atoms: C_10  and  N_12
REMARK    9  A    between atoms: C_15  and  C_16
REMARK                            x       y       z     vdW  Elec       q    Type
REMARK                         _______ _______ _______ _____ _____    ______ ____
ROOT
ATOM      1  N   UNL     1      -1.189  -0.702   0.009  0.00  0.00    -0.328 N 
ATOM      2  C   UNL     1       0.002  -0.004   0.002  0.00  0.00    +0.139 A 
ATOM      3  C   UNL     1       1.222  -0.709  -0.013  0.00  0.00    +0.097 A 
ATOM      4  C   UNL     1       2.421   0.008  -0.021  0.00  0.00    +0.008 A 
ATOM      5  C   UNL     1       2.359   1.403  -0.013  0.00  0.00    +0.097 A 
ATOM      6  C   UNL     1       1.099   2.033   0.003  0.00  0.00    +0.136 A 
ATOM      7  N   UNL     1      -0.016   1.319   0.009  0.00  0.00    -0.215 NA
ATOM      8  H   UNL     1      -1.181  -1.802   0.003  0.00  0.00    +0.147 HD
ENDROOT
BRANCH   6   9
ATOM      9  N   UNL     1       1.026   3.411   0.010  0.00  0.00    -0.342 N 
ATOM     10  H   UNL     1       0.045   3.910   0.022  0.00  0.00    +0.144 HD
ATOM     11  H   UNL     1       1.948   4.011   0.004  0.00  0.00    +0.144 HD
ENDBRANCH   6   9
BRANCH   5  12
ATOM     12  C   UNL     1       3.560   2.183  -0.020  0.00  0.00    +0.103 C 
ATOM     13  N   UNL     1       4.512   2.802  -0.025  0.00  0.00    -0.191 NA
ENDBRANCH   5  12
BRANCH   3  14
ATOM     14  C   UNL     1       1.232  -2.141  -0.021  0.00  0.00    +0.103 C 
ATOM     15  N   UNL     1       1.240  -3.277  -0.026  0.00  0.00    -0.191 NA
ENDBRANCH   3  14
BRANCH   1  16
ATOM     16  C   UNL     1      -2.462   0.022   0.025  0.00  0.00    +0.103 C 
BRANCH  16  17
ATOM     17  C   UNL     1      -3.618  -0.980   0.030  0.00  0.00    +0.018 C 
BRANCH  17  19
ATOM     18  C   UNL     1      -6.105  -1.226   0.051  0.00  0.00    +0.004 C 
ATOM     19  C   UNL     1      -4.948  -0.224   0.046  0.00  0.00    -0.002 C 
ENDBRANCH  17  19
ENDBRANCH  16  17
ENDBRANCH   1  16
BRANCH   4  20
ATOM     20  C   UNL     1       3.748  -0.707  -0.037  0.00  0.00    +0.156 C 
BRANCH  20  21
ATOM     21  C   UNL     1       4.167  -0.932  -1.430  0.00  0.00    +0.067 C 
ATOM     22  N   UNL     1       4.490  -1.106  -2.505  0.00  0.00    -0.196 NA
ENDBRANCH  20  21
ENDBRANCH   4  20
TORSDOF 8
