REMARK  Name = ZINC28531859
REMARK  2 active torsions:
REMARK  status: ('A' for Active; 'I' for Inactive)
REMARK    1  A    between atoms: C_1  and  N_2
REMARK    2  A    between atoms: C_3  and  C_8
REMARK                            x       y       z     vdW  Elec       q    Type
REMARK                         _______ _______ _______ _____ _____    ______ ____
ROOT
ATOM      1  C   UNL     1      -0.018   1.461   0.010  0.00  0.00    +0.153 C 
ATOM      2  N   UNL     1       0.002  -0.004   0.002  0.00  0.00    -0.302 N 
ATOM      3  C   UNL     1       0.008  -0.824  -1.093  0.00  0.00    +0.138 A 
ATOM      4  N   UNL     1       0.028  -2.051  -0.657  0.00  0.00    -0.132 NA
ATOM      5  N   UNL     1       0.034  -2.063   0.628  0.00  0.00    -0.114 NA
ATOM      6  C   UNL     1       0.024  -0.834   1.085  0.00  0.00    +0.214 A 
ATOM      7  N   UNL     1       0.031  -0.450   2.417  0.00  0.00    -0.328 N 
ATOM      8  H   UNL     1       0.020   0.492   2.650  0.00  0.00    +0.145 HD
ATOM      9  H   UNL     1       0.048  -1.123   3.115  0.00  0.00    +0.145 HD
ENDROOT
BRANCH   3  10
ATOM     10  C   UNL     1      -0.005  -0.387  -2.535  0.00  0.00    +0.057 C 
ATOM     11  C   UNL     1      -1.250  -0.948  -3.226  0.00  0.00    +0.011 C 
ATOM     12  C   UNL     1      -1.264  -0.505  -4.690  0.00  0.00    +0.001 C 
ATOM     13  C   UNL     1      -0.011  -1.030  -5.393  0.00  0.00    +0.000 C 
ATOM     14  C   UNL     1       1.234  -0.469  -4.703  0.00  0.00    +0.001 C 
ATOM     15  C   UNL     1       1.248  -0.912  -3.238  0.00  0.00    +0.011 C 
ENDBRANCH   3  10
TORSDOF 1
