REMARK  Name = ZINC66892348
REMARK  5 active torsions:
REMARK  status: ('A' for Active; 'I' for Inactive)
REMARK    1  A    between atoms: C_6  and  C_7
REMARK    2  A    between atoms: C_7  and  C_9
REMARK    3  A    between atoms: C_7  and  O_25
REMARK    4  A    between atoms: C_9  and  N_10
REMARK    5  A    between atoms: C_15  and  C_17
REMARK                            x       y       z     vdW  Elec       q    Type
REMARK                         _______ _______ _______ _____ _____    ______ ____
ROOT
ATOM      1  C   UNL     1      -1.806  -0.898  -1.441  0.00  0.00    -0.041 C 
ENDROOT
BRANCH   1   2
ATOM      2  N   UNL     1      -3.001  -1.752  -1.433  0.00  0.00    +0.389 N 
ATOM      3  C   UNL     1      -4.110  -1.032  -0.794  0.00  0.00    -0.078 C 
ATOM      4  C   UNL     1      -5.334  -1.946  -0.710  0.00  0.00    -0.019 C 
ATOM      5  C   UNL     1      -5.746  -2.370  -2.123  0.00  0.00    -0.003 C 
ATOM      6  C   UNL     1      -4.558  -3.054  -2.806  0.00  0.00    -0.006 C 
ATOM      7  C   UNL     1      -3.362  -2.099  -2.812  0.00  0.00    +0.020 C 
ATOM      8  H   UNL     1      -2.807  -2.595  -0.914  0.00  0.00    -0.081 HD
BRANCH   7   9
ATOM      9  C   UNL     1      -2.190  -2.767  -3.485  0.00  0.00    +0.202 C 
ATOM     10  O   UNL     1      -1.362  -3.352  -2.819  0.00  0.00    -0.277 OA
ATOM     11  N   UNL     1      -2.062  -2.715  -4.825  0.00  0.00    -0.298 N 
ATOM     12  C   UNL     1      -3.107  -2.103  -5.662  0.00  0.00    +0.136 C 
ATOM     13  C   UNL     1      -2.442  -1.095  -6.606  0.00  0.00    +0.179 C 
ATOM     14  O   UNL     1      -1.368  -1.737  -7.298  0.00  0.00    -0.377 OA
ATOM     15  C   UNL     1      -0.318  -2.202  -6.447  0.00  0.00    +0.179 C 
ATOM     16  C   UNL     1      -0.872  -3.262  -5.495  0.00  0.00    +0.136 C 
ENDBRANCH   7   9
ENDBRANCH   1   2
BRANCH   1  17
ATOM     17  C   UNL     1      -1.319  -0.689  -0.006  0.00  0.00    +0.128 C 
BRANCH  17  23
ATOM     18  C   UNL     1       0.075   1.386  -0.106  0.00  0.00    +0.010 A 
ATOM     19  C   UNL     1       1.299   2.033  -0.124  0.00  0.00    +0.050 A 
ATOM     20  C   UNL     1       2.467   1.292  -0.061  0.00  0.00    +0.162 A 
ATOM     21  C   UNL     1       2.409  -0.092   0.020  0.00  0.00    +0.162 A 
ATOM     22  C   UNL     1       1.184  -0.735   0.038  0.00  0.00    +0.055 A 
ATOM     23  C   UNL     1       0.018   0.008  -0.025  0.00  0.00    -0.017 A 
ATOM     24  O   UNL     1       3.567  -0.812   0.083  0.00  0.00    -0.488 OA
ATOM     25  C   UNL     1       4.369  -0.810  -1.100  0.00  0.00    +0.232 C 
ATOM     26  C   UNL     1       5.266   0.417  -1.140  0.00  0.00    +0.082 C 
ATOM     27  C   UNL     1       4.474   1.711  -1.247  0.00  0.00    +0.232 C 
ATOM     28  O   UNL     1       3.680   1.917  -0.077  0.00  0.00    -0.488 OA
ENDBRANCH  17  23
BRANCH  17  29
ATOM     29  O   UNL     1      -2.263   0.114   0.706  0.00  0.00    -0.389 OA
ATOM     30  H   UNL     1      -2.404   0.990   0.321  0.00  0.00    +0.210 HD
ENDBRANCH  17  29
ENDBRANCH   1  17
TORSDOF 5
