REMARK  Name = ZINC12715104
REMARK  14 active torsions:
REMARK  status: ('A' for Active; 'I' for Inactive)
REMARK    1  A    between atoms: C_1  and  C_2
REMARK    2  A    between atoms: C_5  and  N_8
REMARK    3  A    between atoms: N_8  and  C_9
REMARK    4  A    between atoms: C_9  and  C_11
REMARK    5  A    between atoms: C_9  and  C_17
REMARK    6  A    between atoms: C_14  and  C_16
REMARK    7  A    between atoms: N_19  and  C_20
REMARK    8  A    between atoms: C_20  and  C_21
REMARK    9  A    between atoms: C_21  and  C_22
REMARK   10  A    between atoms: C_22  and  C_23
REMARK   11  A    between atoms: C_22  and  C_24
REMARK   12  A    between atoms: C_25  and  C_27
REMARK   13  A    between atoms: C_28  and  N_35
REMARK   14  A    between atoms: C_29  and  C_32
REMARK                            x       y       z     vdW  Elec       q    Type
REMARK                         _______ _______ _______ _____ _____    ______ ____
ROOT
ATOM      1  N   UNL     1      -3.869   1.697   0.186  0.00  0.00    -0.248 N 
ATOM      2  C   UNL     1      -3.978   1.867   1.518  0.00  0.00    +0.262 C 
ATOM      3  O   UNL     1      -3.466   1.066   2.278  0.00  0.00    -0.269 OA
ENDROOT
BRANCH   1   8
ATOM      4  C   UNL     1      -6.397   5.338  -3.354  0.00  0.00    +0.044 C 
ATOM      5  C   UNL     1      -5.726   4.371  -2.414  0.00  0.00    -0.050 A 
ATOM      6  C   UNL     1      -4.362   4.451  -2.200  0.00  0.00    +0.005 A 
ATOM      7  C   UNL     1      -3.743   3.566  -1.339  0.00  0.00    +0.024 A 
ATOM      8  C   UNL     1      -4.492   2.595  -0.687  0.00  0.00    +0.038 A 
ATOM      9  C   UNL     1      -5.861   2.514  -0.908  0.00  0.00    +0.024 A 
ATOM     10  C   UNL     1      -6.475   3.406  -1.766  0.00  0.00    +0.005 A 
ENDBRANCH   1   8
BRANCH   2  11
ATOM     11  C   UNL     1      -4.713   3.016   2.052  0.00  0.00    +0.116 A 
ATOM     12  C   UNL     1      -5.046   3.316   3.374  0.00  0.00    +0.076 A 
ATOM     13  C   UNL     1      -5.757   4.511   3.487  0.00  0.00    +0.155 A 
ATOM     14  N   UNL     1      -6.031   5.202   2.403  0.00  0.00    -0.203 NA
ATOM     15  S   UNL     1      -5.413   4.408   1.190  0.00  0.00    +0.019 S 
BRANCH  13  16
ATOM     16  C   UNL     1      -6.198   4.993   4.809  0.00  0.00    +0.262 C 
ATOM     17  O   UNL     1      -5.941   4.348   5.808  0.00  0.00    -0.269 OA
ATOM     18  N   UNL     1      -6.884   6.148   4.911  0.00  0.00    -0.324 N 
ATOM     19  H   UNL     1      -7.089   6.662   4.114  0.00  0.00    +0.145 HD
ATOM     20  H   UNL     1      -7.174   6.466   5.780  0.00  0.00    +0.145 HD
ENDBRANCH  13  16
BRANCH  12  21
ATOM     21  N   UNL     1      -4.707   2.514   4.456  0.00  0.00    -0.355 N 
ATOM     22  H   UNL     1      -4.211   1.693   4.315  0.00  0.00    +0.142 HD
ATOM     23  H   UNL     1      -4.967   2.776   5.354  0.00  0.00    +0.142 HD
ENDBRANCH  12  21
ENDBRANCH   2  11
BRANCH   1  24
ATOM     24  C   UNL     1      -3.098   0.572  -0.349  0.00  0.00    +0.233 C 
BRANCH  24  25
ATOM     25  C   UNL     1      -3.937  -0.183  -1.347  0.00  0.00    +0.135 A 
ATOM     26  C   UNL     1      -3.982  -1.521  -1.484  0.00  0.00    +0.047 A 
ATOM     27  C   UNL     1      -4.894  -1.794  -2.529  0.00  0.00    +0.045 A 
ATOM     28  C   UNL     1      -5.346  -0.608  -2.973  0.00  0.00    +0.102 A 
ATOM     29  O   UNL     1      -4.763   0.365  -2.253  0.00  0.00    -0.462 OA
ATOM     30  C   UNL     1      -6.338  -0.404  -4.090  0.00  0.00    +0.086 C 
ENDBRANCH  24  25
BRANCH  24  31
ATOM     31  C   UNL     1      -1.857   1.091  -1.027  0.00  0.00    +0.242 C 
ATOM     32  O   UNL     1      -1.336   2.115  -0.638  0.00  0.00    -0.273 OA
ATOM     33  N   UNL     1      -1.325   0.418  -2.067  0.00  0.00    -0.313 N 
ATOM     34  H   UNL     1      -1.742  -0.401  -2.378  0.00  0.00    +0.149 HD
BRANCH  33  35
ATOM     35  C   UNL     1      -0.122   0.926  -2.730  0.00  0.00    +0.104 C 
BRANCH  35  36
ATOM     36  C   UNL     1       0.266  -0.015  -3.873  0.00  0.00    +0.022 C 
BRANCH  36  37
ATOM     37  C   UNL     1       1.523   0.516  -4.566  0.00  0.00    -0.016 C 
ATOM     38  C   UNL     1       2.700   0.473  -3.590  0.00  0.00    +0.007 C 
ATOM     39  C   UNL     1       1.839  -0.354  -5.784  0.00  0.00    +0.007 C 
ENDBRANCH  36  37
ENDBRANCH  35  36
ENDBRANCH  33  35
ENDBRANCH  24  31
ENDBRANCH   1  24
TORSDOF 10
