REMARK  Name = ZINC54059843
REMARK  7 active torsions:
REMARK  status: ('A' for Active; 'I' for Inactive)
REMARK    1  A    between atoms: C_1  and  C_2
REMARK    2  A    between atoms: N_8  and  C_11
REMARK    3  A    between atoms: N_12  and  C_13
REMARK    4  A    between atoms: C_13  and  C_14
REMARK    5  A    between atoms: C_14  and  O_15
REMARK    6  A    between atoms: O_15  and  C_16
REMARK    7  A    between atoms: C_22  and  C_24
REMARK                            x       y       z     vdW  Elec       q    Type
REMARK                         _______ _______ _______ _____ _____    ______ ____
ROOT
ATOM      1  C   UNL     1      -0.018   1.503   0.010  0.00  0.00    +0.088 C 
ATOM      2  C   UNL     1       0.002  -0.004   0.002  0.00  0.00    +0.130 A 
ATOM      3  N   UNL     1       0.005  -0.632  -1.161  0.00  0.00    -0.217 NA
ATOM      4  C   UNL     1       0.023  -1.958  -1.226  0.00  0.00    +0.133 A 
ATOM      5  C   UNL     1       0.038  -2.688  -0.022  0.00  0.00    +0.078 A 
ATOM      6  C   UNL     1       0.059  -4.061   0.307  0.00  0.00    +0.148 A 
ATOM      7  N   UNL     1       0.067  -4.174   1.605  0.00  0.00    -0.177 NA
ATOM      8  N   UNL     1       0.052  -2.901   2.190  0.00  0.00    -0.249 N 
ATOM      9  C   UNL     1       0.035  -1.973   1.192  0.00  0.00    +0.163 A 
ATOM     10  N   UNL     1       0.022  -0.641   1.152  0.00  0.00    -0.213 NA
ATOM     11  C   UNL     1       0.055  -2.616   3.627  0.00  0.00    +0.174 C 
ATOM     12  N   UNL     1       0.025  -2.607  -2.446  0.00  0.00    -0.326 N 
ATOM     13  H   UNL     1       0.038  -3.576  -2.480  0.00  0.00    +0.148 HD
ENDROOT
BRANCH  12  14
ATOM     14  C   UNL     1       0.008  -1.830  -3.688  0.00  0.00    +0.131 C 
BRANCH  14  15
ATOM     15  C   UNL     1       0.015  -2.783  -4.885  0.00  0.00    +0.179 C 
BRANCH  15  16
ATOM     16  O   UNL     1      -1.196  -3.541  -4.897  0.00  0.00    -0.375 OA
BRANCH  16  17
ATOM     17  C   UNL     1      -1.291  -4.467  -5.981  0.00  0.00    +0.121 C 
ATOM     18  C   UNL     1      -0.698  -5.812  -5.558  0.00  0.00    +0.032 C 
ATOM     19  C   UNL     1      -0.800  -6.803  -6.719  0.00  0.00    +0.003 C 
ATOM     20  C   UNL     1      -2.269  -6.992  -7.100  0.00  0.00    +0.000 C 
ATOM     21  C   UNL     1      -2.863  -5.647  -7.524  0.00  0.00    +0.006 C 
ATOM     22  C   UNL     1      -2.761  -4.656  -6.363  0.00  0.00    +0.015 C 
ATOM     23  C   UNL     1      -3.355  -3.311  -6.787  0.00  0.00    +0.010 C 
ENDBRANCH  16  17
ENDBRANCH  15  16
ENDBRANCH  14  15
ENDBRANCH  12  14
TORSDOF 4
