REMARK  Name = ZINC65407119
REMARK  4 active torsions:
REMARK  status: ('A' for Active; 'I' for Inactive)
REMARK    1  A    between atoms: C_1  and  C_2
REMARK    2  A    between atoms: C_2  and  N_3
REMARK    3  A    between atoms: C_5  and  C_8
REMARK    4  A    between atoms: N_14  and  C_15
REMARK                            x       y       z     vdW  Elec       q    Type
REMARK                         _______ _______ _______ _____ _____    ______ ____
ROOT
ATOM      1  C   UNL     1       2.943  -2.833  -3.113  0.00  0.00    +0.172 A 
ATOM      2  H   UNL     1       5.923  -3.723  -2.837  0.00  0.00    +0.194 HD
ATOM      3  N   UNL     1       3.896  -3.306  -2.359  0.00  0.00    -0.151 NA
ATOM      4  N   UNL     1       5.058  -3.402  -3.137  0.00  0.00    -0.226 N 
ATOM      5  C   UNL     1       4.753  -2.969  -4.377  0.00  0.00    +0.349 A 
ATOM      6  O   UNL     1       5.516  -2.910  -5.325  0.00  0.00    -0.245 OA
ATOM      7  N   UNL     1       3.452  -2.620  -4.380  0.00  0.00    -0.244 N 
ENDROOT
BRANCH   7   8
ATOM      8  C   UNL     1       2.737  -2.122  -5.478  0.00  0.00    +0.053 A 
ATOM      9  C   UNL     1       2.733  -0.759  -5.745  0.00  0.00    +0.028 A 
ATOM     10  C   UNL     1       2.028  -0.271  -6.829  0.00  0.00    +0.022 A 
ATOM     11  C   UNL     1       1.327  -1.139  -7.647  0.00  0.00    +0.041 A 
ATOM     12  C   UNL     1       1.329  -2.497  -7.383  0.00  0.00    +0.022 A 
ATOM     13  C   UNL     1       2.037  -2.991  -6.304  0.00  0.00    +0.028 A 
ATOM     14 CL   UNL     1       0.441  -0.522  -9.007  0.00  0.00    -0.084 Cl
ENDBRANCH   7   8
BRANCH   1  17
ATOM     15  N   UNL     1      -0.281  -2.488  -1.486  0.00  0.00    -0.271 N 
ATOM     16  C   UNL     1       1.006  -2.888  -1.471  0.00  0.00    +0.120 A 
ATOM     17  C   UNL     1       1.550  -2.576  -2.685  0.00  0.00    +0.057 A 
ATOM     18  C   UNL     1       0.541  -1.963  -3.456  0.00  0.00    +0.146 A 
ATOM     19  N   UNL     1      -0.548  -1.918  -2.737  0.00  0.00    -0.179 NA
BRANCH  15  21
ATOM     20  C   UNL     1      -1.835  -1.262  -0.050  0.00  0.00    +0.029 C 
ATOM     21  C   UNL     1      -1.236  -2.630  -0.385  0.00  0.00    +0.140 C 
ENDBRANCH  15  21
ENDBRANCH   1  17
TORSDOF 3
