REMARK  Name = ZINC38994369
REMARK  6 active torsions:
REMARK  status: ('A' for Active; 'I' for Inactive)
REMARK    1  A    between atoms: C_1  and  C_2
REMARK    2  A    between atoms: C_6  and  N_9
REMARK    3  A    between atoms: C_7  and  C_8
REMARK    4  A    between atoms: C_10  and  O_34
REMARK    5  A    between atoms: C_13  and  O_33
REMARK    6  A    between atoms: C_14  and  C_18
REMARK                            x       y       z     vdW  Elec       q    Type
REMARK                         _______ _______ _______ _____ _____    ______ ____
ROOT
ATOM      1  N   UNL     1       0.052  -2.797   2.393  0.00  0.00    -0.225 N 
ATOM      2  C   UNL     1      -1.217  -3.174   2.998  0.00  0.00    +0.338 C 
ATOM      3  N   UNL     1      -1.070  -4.269   3.943  0.00  0.00    -0.204 NA
ATOM      4  C   UNL     1       0.033  -4.596   4.496  0.00  0.00    +0.200 C 
ATOM      5  C   UNL     1       1.324  -3.879   4.227  0.00  0.00    +0.183 C 
ATOM      6  C   UNL     1       1.234  -3.107   2.942  0.00  0.00    +0.237 C 
ATOM      7  O   UNL     1       2.255  -2.752   2.390  0.00  0.00    -0.274 OA
ENDROOT
BRANCH   5   8
ATOM      8  C   UNL     1       1.616  -2.914   5.379  0.00  0.00    +0.122 C 
ATOM      9  C   UNL     1       1.841  -3.696   6.651  0.00  0.00    +0.039 A 
ATOM     10  H   UNL     1       3.060  -5.289   6.091  0.00  0.00    +0.166 HD
ATOM     11  C   UNL     1       1.308  -3.336   7.841  0.00  0.00    -0.016 A 
ATOM     12  C   UNL     1       1.736  -4.314   8.815  0.00  0.00    +0.003 A 
ATOM     13  C   UNL     1       1.501  -4.457  10.186  0.00  0.00    +0.010 A 
ATOM     14  C   UNL     1       2.083  -5.535  10.807  0.00  0.00    +0.001 A 
ATOM     15  C   UNL     1       2.867  -6.446  10.119  0.00  0.00    +0.002 A 
ATOM     16  C   UNL     1       3.117  -6.329   8.762  0.00  0.00    +0.026 A 
ATOM     17  C   UNL     1       2.540  -5.245   8.105  0.00  0.00    +0.047 A 
ATOM     18  N   UNL     1       2.580  -4.838   6.802  0.00  0.00    -0.356 N 
ATOM     19  C   UNL     1       0.439  -2.117   8.029  0.00  0.00    +0.052 C 
ATOM     20  C   UNL     1       0.615  -1.215   6.800  0.00  0.00    +0.086 C 
ATOM     21  N   UNL     1       0.467  -2.016   5.575  0.00  0.00    -0.307 NA
ATOM     22  H   UNL     1       0.327  -1.426   4.768  0.00  0.00    +0.123 HD
ENDBRANCH   5   8
BRANCH   1  28
ATOM     23  C   UNL     1      -0.018   1.503   0.010  0.00  0.00    +0.044 C 
ATOM     24  C   UNL     1       0.002  -0.004   0.002  0.00  0.00    -0.046 A 
ATOM     25  C   UNL     1       0.006  -0.688  -1.200  0.00  0.00    +0.004 A 
ATOM     26  C   UNL     1       0.025  -2.071  -1.212  0.00  0.00    +0.002 A 
ATOM     27  C   UNL     1       0.041  -2.773  -0.022  0.00  0.00    +0.024 A 
ATOM     28  C   UNL     1       0.037  -2.089   1.186  0.00  0.00    +0.044 A 
ATOM     29  C   UNL     1       0.023  -0.700   1.194  0.00  0.00    -0.026 A 
ATOM     30  C   UNL     1       0.025   0.046   2.504  0.00  0.00    +0.046 C 
ENDBRANCH   1  28
BRANCH   4  31
ATOM     31  O   UNL     1       0.039  -5.631   5.360  0.00  0.00    -0.495 OA
ATOM     32  H   UNL     1      -0.827  -6.045   5.484  0.00  0.00    +0.293 HD
ENDBRANCH   4  31
BRANCH   2  33
ATOM     33  O   UNL     1      -1.758  -2.042   3.683  0.00  0.00    -0.356 OA
ATOM     34  H   UNL     1      -2.607  -2.212   4.114  0.00  0.00    +0.214 HD
ENDBRANCH   2  33
TORSDOF 4
