REMARK  Name = ZINC60512399
REMARK  5 active torsions:
REMARK  status: ('A' for Active; 'I' for Inactive)
REMARK    1  A    between atoms: C_2  and  C_12
REMARK    2  A    between atoms: C_4  and  C_6
REMARK    3  A    between atoms: C_12  and  S_13
REMARK    4  A    between atoms: S_13  and  C_14
REMARK    5  A    between atoms: C_14  and  C_15
REMARK                            x       y       z     vdW  Elec       q    Type
REMARK                         _______ _______ _______ _____ _____    ______ ____
ROOT
ATOM      1  S   UNL     1       2.052   4.024   1.714  0.00  0.00    -0.147 S 
ENDROOT
BRANCH   1   2
ATOM      2  C   UNL     1       1.827   3.465   0.003  0.00  0.00    +0.125 C 
BRANCH   2   4
ATOM      3  C   UNL     1      -0.022   1.781   0.012  0.00  0.00    +0.071 A 
ATOM      4  C   UNL     1       1.309   2.050   0.001  0.00  0.00    +0.059 A 
ATOM      5  N   UNL     1       2.126   1.016  -0.013  0.00  0.00    -0.248 NA
ATOM      6  C   UNL     1       1.672  -0.212  -0.015  0.00  0.00    +0.082 A 
ATOM      7  S   UNL     1       0.002  -0.004   0.002  0.00  0.00    -0.080 S 
BRANCH   6   8
ATOM      8  C   UNL     1       2.455  -1.500  -0.030  0.00  0.00    +0.045 C 
ATOM      9  C   UNL     1       2.091  -2.304  -1.280  0.00  0.00    +0.010 C 
ATOM     10  C   UNL     1       2.886  -3.611  -1.296  0.00  0.00    +0.001 C 
ATOM     11  C   UNL     1       2.547  -4.428  -0.047  0.00  0.00    +0.000 C 
ATOM     12  C   UNL     1       2.911  -3.625   1.203  0.00  0.00    +0.001 C 
ATOM     13  C   UNL     1       2.116  -2.317   1.218  0.00  0.00    +0.010 C 
ENDBRANCH   6   8
ENDBRANCH   2   4
ENDBRANCH   1   2
BRANCH   1  14
ATOM     14  C   UNL     1       2.672   5.720   1.543  0.00  0.00    +0.145 C 
BRANCH  14  15
ATOM     15  C   UNL     1       2.904   6.310   2.911  0.00  0.00    +0.146 A 
ATOM     16  N   UNL     1       1.928   6.957   3.523  0.00  0.00    -0.199 NA
ATOM     17  C   UNL     1       2.130   7.479   4.731  0.00  0.00    +0.217 A 
ATOM     18  N   UNL     1       3.313   7.348   5.321  0.00  0.00    -0.181 NA
ATOM     19  C   UNL     1       4.291   6.697   4.702  0.00  0.00    +0.217 A 
ATOM     20  N   UNL     1       4.081   6.173   3.496  0.00  0.00    -0.199 NA
ATOM     21  N   UNL     1       5.522   6.559   5.310  0.00  0.00    -0.327 N 
ATOM     22  N   UNL     1       1.110   8.155   5.370  0.00  0.00    -0.327 N 
ATOM     23  H   UNL     1       5.674   6.937   6.190  0.00  0.00    +0.145 HD
ATOM     24  H   UNL     1       6.236   6.083   4.857  0.00  0.00    +0.145 HD
ATOM     25  H   UNL     1       0.247   8.250   4.939  0.00  0.00    +0.145 HD
ATOM     26  H   UNL     1       1.258   8.535   6.251  0.00  0.00    +0.145 HD
ENDBRANCH  14  15
ENDBRANCH   1  14
TORSDOF 5
