REMARK  Name = ZINC65420194
REMARK  6 active torsions:
REMARK  status: ('A' for Active; 'I' for Inactive)
REMARK    1  A    between atoms: C_1  and  C_2
REMARK    2  A    between atoms: C_2  and  C_4
REMARK    3  A    between atoms: C_2  and  N_10
REMARK    4  A    between atoms: C_11  and  C_13
REMARK    5  A    between atoms: C_13  and  C_14
REMARK    6  A    between atoms: C_14  and  N_15
REMARK                            x       y       z     vdW  Elec       q    Type
REMARK                         _______ _______ _______ _____ _____    ______ ____
ROOT
ATOM      1  N   UNL     1      -5.378  -1.724  -2.556  0.00  0.00    +0.380 N 
ATOM      2  C   UNL     1      -5.382  -3.112  -2.081  0.00  0.00    -0.076 C 
ATOM      3  C   UNL     1      -6.824  -3.618  -1.988  0.00  0.00    +0.016 C 
ATOM      4  C   UNL     1      -7.473  -3.547  -3.372  0.00  0.00    +0.106 C 
ATOM      5  C   UNL     1      -7.394  -2.112  -3.894  0.00  0.00    +0.016 C 
ATOM      6  C   UNL     1      -5.932  -1.660  -3.913  0.00  0.00    -0.076 C 
ATOM      7  C   UNL     1      -8.915  -3.974  -3.277  0.00  0.00    +0.241 C 
ATOM      8  O   UNL     1      -9.538  -3.757  -2.260  0.00  0.00    -0.273 OA
ATOM      9  N   UNL     1      -9.519  -4.594  -4.308  0.00  0.00    -0.282 N 
ATOM     10  C   UNL     1      -8.807  -4.902  -5.474  0.00  0.00    +0.055 A 
ATOM     11  C   UNL     1      -9.471  -5.274  -6.631  0.00  0.00    +0.025 A 
ATOM     12  C   UNL     1      -8.750  -5.580  -7.771  0.00  0.00    +0.002 A 
ATOM     13  C   UNL     1      -7.368  -5.516  -7.762  0.00  0.00    +0.002 A 
ATOM     14  C   UNL     1      -6.697  -5.143  -6.612  0.00  0.00    +0.025 A 
ATOM     15  C   UNL     1      -7.412  -4.834  -5.469  0.00  0.00    +0.049 A 
ATOM     16  N   UNL     1      -6.761  -4.444  -4.291  0.00  0.00    -0.329 N 
ATOM     17  H   UNL     1     -10.457  -4.830  -4.243  0.00  0.00    +0.155 HD
ATOM     18  H   UNL     1      -5.865  -4.757  -4.089  0.00  0.00    +0.147 HD
ATOM     19  H   UNL     1      -5.940  -1.157  -1.938  0.00  0.00    -0.082 HD
ENDROOT
BRANCH   1  20
ATOM     20  C   UNL     1      -4.000  -1.215  -2.566  0.00  0.00    -0.070 C 
BRANCH  20  21
ATOM     21  C   UNL     1      -3.465  -1.164  -1.134  0.00  0.00    +0.077 C 
BRANCH  21  23
ATOM     22  N   UNL     1      -1.372  -0.511   0.012  0.00  0.00    -0.309 N 
ATOM     23  C   UNL     1      -2.051  -0.643  -1.145  0.00  0.00    +0.212 C 
ATOM     24  O   UNL     1      -1.524  -0.341  -2.194  0.00  0.00    -0.276 OA
ATOM     25  H   UNL     1      -1.794  -0.752   0.852  0.00  0.00    +0.149 HD
BRANCH  22  27
ATOM     26  C   UNL     1      -0.019   1.526   0.010  0.00  0.00    +0.033 C 
ATOM     27  C   UNL     1       0.002  -0.004   0.002  0.00  0.00    +0.100 C 
BRANCH  27  28
ATOM     28  C   UNL     1       0.731  -0.503   1.223  0.00  0.00    -0.027 A 
ATOM     29  C   UNL     1       0.081  -0.558   2.442  0.00  0.00    +0.005 A 
ATOM     30  C   UNL     1       0.749  -1.016   3.562  0.00  0.00    +0.000 A 
ATOM     31  C   UNL     1       2.068  -1.420   3.463  0.00  0.00    +0.000 A 
ATOM     32  C   UNL     1       2.718  -1.365   2.244  0.00  0.00    +0.000 A 
ATOM     33  C   UNL     1       2.048  -0.911   1.123  0.00  0.00    +0.005 A 
ENDBRANCH  27  28
ENDBRANCH  22  27
ENDBRANCH  21  23
ENDBRANCH  20  21
ENDBRANCH   1  20
TORSDOF 5
