REMARK  Name = ZINC49226711
REMARK  9 active torsions:
REMARK  status: ('A' for Active; 'I' for Inactive)
REMARK    1  A    between atoms: C_1  and  C_2
REMARK    2  A    between atoms: C_5  and  C_7
REMARK    3  A    between atoms: C_7  and  C_9
REMARK    4  A    between atoms: C_7  and  N_10
REMARK    5  A    between atoms: N_10  and  S_11
REMARK    6  A    between atoms: S_11  and  C_14
REMARK    7  A    between atoms: C_17  and  C_20
REMARK    8  A    between atoms: C_20  and  C_22
REMARK    9  A    between atoms: C_20  and  N_23
REMARK                            x       y       z     vdW  Elec       q    Type
REMARK                         _______ _______ _______ _____ _____    ______ ____
ROOT
ATOM      1  S   UNL     1       3.492  -4.181  -1.804  0.00  0.00    +0.059 S 
ATOM      2  O   UNL     1       4.528  -3.591  -2.576  0.00  0.00    -0.153 OA
ATOM      3  O   UNL     1       3.729  -5.255  -0.904  0.00  0.00    -0.153 OA
ENDROOT
BRANCH   1   4
ATOM      4  C   UNL     1       2.269  -4.739  -2.943  0.00  0.00    +0.105 A 
ATOM      5  C   UNL     1       1.402  -5.755  -2.584  0.00  0.00    +0.029 A 
ATOM      6  C   UNL     1       0.443  -6.193  -3.478  0.00  0.00    +0.004 A 
ATOM      7  C   UNL     1       0.350  -5.615  -4.730  0.00  0.00    -0.062 A 
ATOM      8  C   UNL     1       1.217  -4.600  -5.089  0.00  0.00    +0.004 A 
ATOM      9  C   UNL     1       2.173  -4.159  -4.194  0.00  0.00    +0.029 A 
BRANCH   7  10
ATOM     10  C   UNL     1      -0.695  -6.094  -5.705  0.00  0.00    -0.047 C 
ATOM     11  C   UNL     1      -1.882  -5.129  -5.694  0.00  0.00    -0.009 C 
BRANCH  10  12
ATOM     12  N   UNL     1      -0.118  -6.145  -7.055  0.00  0.00    +0.382 N 
ATOM     13  H   UNL     1       0.665  -6.781  -7.063  0.00  0.00    -0.089 HD
ATOM     14  H   UNL     1      -0.818  -6.465  -7.708  0.00  0.00    -0.089 HD
ATOM     15  H   UNL     1       0.195  -5.223  -7.322  0.00  0.00    -0.089 HD
ENDBRANCH  10  12
ENDBRANCH   7  10
ENDBRANCH   1   4
BRANCH   1  16
ATOM     16  N   UNL     1       2.811  -2.961  -0.914  0.00  0.00    -0.180 NA
ATOM     17  H   UNL     1       3.159  -2.058  -0.984  0.00  0.00    +0.149 HD
BRANCH  16  18
ATOM     18  C   UNL     1       1.684  -3.245  -0.023  0.00  0.00    +0.139 C 
ATOM     19  C   UNL     1       2.205  -3.494   1.394  0.00  0.00    +0.034 C 
BRANCH  18  24
ATOM     20  C   UNL     1      -0.018   1.503   0.010  0.00  0.00    +0.086 C 
ATOM     21  C   UNL     1       0.002  -0.004   0.002  0.00  0.00    +0.102 A 
ATOM     22  C   UNL     1      -1.078  -0.805   0.003  0.00  0.00    +0.045 A 
ATOM     23  C   UNL     1      -0.601  -2.136  -0.007  0.00  0.00    +0.046 A 
ATOM     24  C   UNL     1       0.742  -2.069  -0.013  0.00  0.00    +0.123 A 
ATOM     25  O   UNL     1       1.102  -0.775  -0.013  0.00  0.00    -0.463 OA
ENDBRANCH  18  24
ENDBRANCH  16  18
ENDBRANCH   1  16
TORSDOF 6
