REMARK  Name = ZINC05765387
REMARK  4 active torsions:
REMARK  status: ('A' for Active; 'I' for Inactive)
REMARK    1  A    between atoms: C_7  and  C_11
REMARK    2  A    between atoms: C_12  and  C_13
REMARK    3  A    between atoms: C_13  and  C_15
REMARK    4  A    between atoms: C_19  and  N_21
REMARK                            x       y       z     vdW  Elec       q    Type
REMARK                         _______ _______ _______ _____ _____    ______ ____
ROOT
ATOM      1  C   UNL     1       1.126   7.401  -0.071  0.00  0.00    +0.014 C 
ATOM      2  C   UNL     1       1.142   6.051  -0.212  0.00  0.00    +0.052 C 
ENDROOT
BRANCH   1   9
ATOM      3  C   UNL     1      -0.398  11.254  -2.249  0.00  0.00    +0.001 A 
ATOM      4  C   UNL     1      -1.709  11.562  -1.917  0.00  0.00    +0.002 A 
ATOM      5  C   UNL     1      -2.415  10.770  -1.037  0.00  0.00    +0.026 A 
ATOM      6  C   UNL     1      -1.811   9.651  -0.472  0.00  0.00    +0.047 A 
ATOM      7  C   UNL     1      -0.484   9.342  -0.809  0.00  0.00    +0.007 A 
ATOM      8  C   UNL     1       0.217  10.150  -1.701  0.00  0.00    +0.010 A 
ATOM      9  C   UNL     1      -0.148   8.119  -0.055  0.00  0.00    +0.000 A 
ATOM     10  C   UNL     1      -1.276   7.786   0.662  0.00  0.00    +0.091 A 
ATOM     11  N   UNL     1      -2.252   8.693   0.418  0.00  0.00    -0.360 N 
ATOM     12  H   UNL     1      -3.139   8.671   0.811  0.00  0.00    +0.165 HD
ENDBRANCH   1   9
BRANCH   2  13
ATOM     13  C   UNL     1      -0.042   5.362  -0.556  0.00  0.00    +0.186 C 
ATOM     14  O   UNL     1      -1.048   5.987  -0.841  0.00  0.00    -0.287 OA
BRANCH  13  15
ATOM     15  C   UNL     1      -0.059   3.883  -0.571  0.00  0.00    +0.024 A 
ATOM     16  C   UNL     1       1.092   3.165  -0.245  0.00  0.00    +0.012 A 
ATOM     17  C   UNL     1       1.069   1.786  -0.261  0.00  0.00    +0.003 A 
ATOM     18  C   UNL     1      -0.093   1.114  -0.598  0.00  0.00    +0.033 A 
ATOM     19  C   UNL     1      -1.236   1.820  -0.928  0.00  0.00    +0.127 A 
ATOM     20  C   UNL     1      -1.228   3.200  -0.911  0.00  0.00    +0.044 A 
BRANCH  19  21
ATOM     21  N   UNL     1      -2.473   1.093  -1.294  0.00  0.00    +0.056 N 
ATOM     22  O   UNL     1      -2.483  -0.124  -1.305  0.00  0.00    -0.126 OA
ATOM     23  O   UNL     1      -3.480   1.714  -1.584  0.00  0.00    -0.126 OA
ENDBRANCH  19  21
ENDBRANCH  13  15
ENDBRANCH   2  13
TORSDOF 4
