REMARK  Name = ZINC48364828
REMARK  4 active torsions:
REMARK  status: ('A' for Active; 'I' for Inactive)
REMARK    1  A    between atoms: C_1  and  C_2
REMARK    2  A    between atoms: C_3  and  C_8
REMARK    3  A    between atoms: C_8  and  N_9
REMARK    4  A    between atoms: C_20  and  C_24
REMARK                            x       y       z     vdW  Elec       q    Type
REMARK                         _______ _______ _______ _____ _____    ______ ____
ROOT
ATOM      1  N   UNL     1       1.347   0.073  -2.923  0.00  0.00    -0.324 N 
ATOM      2  C   UNL     1       1.583   0.541  -4.203  0.00  0.00    +0.131 A 
ATOM      3  C   UNL     1       2.870   1.025  -4.568  0.00  0.00    +0.051 A 
ATOM      4  C   UNL     1       4.081   1.116  -3.750  0.00  0.00    -0.025 A 
ATOM      5  C   UNL     1       5.183   1.618  -4.342  0.00  0.00    -0.004 A 
ATOM      6  S   UNL     1       4.685   1.998  -6.001  0.00  0.00    -0.073 S 
ATOM      7  C   UNL     1       2.992   1.477  -5.897  0.00  0.00    +0.114 A 
ATOM      8  N   UNL     1       1.972   1.445  -6.733  0.00  0.00    -0.228 NA
ATOM      9  C   UNL     1       0.802   0.984  -6.337  0.00  0.00    +0.224 A 
ATOM     10  N   UNL     1       0.616   0.540  -5.106  0.00  0.00    -0.220 NA
ATOM     11  C   UNL     1       6.536   1.812  -3.728  0.00  0.00    +0.046 C 
ATOM     12  C   UNL     1       6.594   1.007  -2.421  0.00  0.00    -0.009 C 
ATOM     13  C   UNL     1       5.329   1.299  -1.609  0.00  0.00    +0.008 C 
ATOM     14  C   UNL     1       4.116   0.666  -2.292  0.00  0.00    +0.037 C 
ATOM     15  C   UNL     1       7.830   1.420  -1.619  0.00  0.00    +0.008 C 
ATOM     16  H   UNL     1       2.080  -0.005  -2.292  0.00  0.00    +0.148 HD
ENDROOT
BRANCH   1  17
ATOM     17  C   UNL     1      -0.010  -0.306  -2.521  0.00  0.00    +0.141 C 
BRANCH  17  20
ATOM     18  C   UNL     1       0.021   1.515   0.022  0.00  0.00    +0.065 C 
ATOM     19  C   UNL     1       0.018   0.008   0.009  0.00  0.00    +0.038 A 
ATOM     20  C   UNL     1       0.005  -0.780  -1.090  0.00  0.00    +0.010 A 
ATOM     21  C   UNL     1       0.007  -2.112  -0.664  0.00  0.00    +0.139 A 
ATOM     22  N   UNL     1       0.021  -2.123   0.644  0.00  0.00    -0.182 NA
ATOM     23  N   UNL     1       0.033  -0.796   1.093  0.00  0.00    -0.282 N 
ATOM     24  H   UNL     1       0.048  -0.507   2.018  0.00  0.00    +0.189 HD
ENDBRANCH  17  20
ENDBRANCH   1  17
TORSDOF 2
