REMARK  Name = ZINC04967467
REMARK  9 active torsions:
REMARK  status: ('A' for Active; 'I' for Inactive)
REMARK    1  A    between atoms: C_1  and  C_2
REMARK    2  A    between atoms: C_2  and  O_3
REMARK    3  A    between atoms: O_3  and  C_4
REMARK    4  A    between atoms: C_6  and  C_24
REMARK    5  A    between atoms: C_14  and  C_17
REMARK    6  A    between atoms: N_19  and  C_20
REMARK    7  A    between atoms: C_20  and  C_21
REMARK    8  A    between atoms: C_20  and  C_22
REMARK    9  A    between atoms: C_20  and  C_23
REMARK                            x       y       z     vdW  Elec       q    Type
REMARK                         _______ _______ _______ _____ _____    ______ ____
ROOT
ATOM      1  C   UNL     1       1.392  -0.324  -3.331  0.00  0.00    +0.219 A 
ATOM      2  C   UNL     1       0.867   0.006  -4.580  0.00  0.00    +0.090 A 
ATOM      3  C   UNL     1      -0.205   0.877  -4.636  0.00  0.00    +0.047 A 
ATOM      4  N   UNL     1      -0.702   1.365  -3.509  0.00  0.00    -0.219 NA
ATOM      5  C   UNL     1      -0.179   1.037  -2.337  0.00  0.00    +0.221 A 
ATOM      6  N   UNL     1       0.849   0.206  -2.243  0.00  0.00    -0.179 NA
ATOM      7  N   UNL     1      -0.723   1.572  -1.182  0.00  0.00    -0.299 N 
ATOM      8  C   UNL     1      -0.729   3.040  -1.234  0.00  0.00    +0.108 C 
ATOM      9  C   UNL     1      -1.466   3.591  -0.011  0.00  0.00    +0.020 C 
ATOM     10  C   UNL     1      -0.764   3.110   1.262  0.00  0.00    +0.016 C 
ATOM     11  C   UNL     1      -0.729   1.579   1.267  0.00  0.00    +0.092 C 
ATOM     12  C   UNL     1      -0.013   1.086   0.008  0.00  0.00    +0.120 C 
ATOM     13  C   UNL     1      -0.805   1.263  -5.963  0.00  0.00    +0.066 C 
ENDROOT
BRANCH  11  14
ATOM     14  C   UNL     1       0.012   1.098   2.488  0.00  0.00    +0.218 C 
ATOM     15  O   UNL     1       0.464   1.899   3.279  0.00  0.00    -0.275 OA
ATOM     16  N   UNL     1       0.173  -0.223   2.702  0.00  0.00    -0.310 N 
ATOM     17  H   UNL     1      -0.188  -0.864   2.070  0.00  0.00    +0.149 HD
BRANCH  16  18
ATOM     18  C   UNL     1       0.893  -0.691   3.889  0.00  0.00    +0.026 C 
ATOM     19  C   UNL     1       0.177  -0.197   5.148  0.00  0.00    +0.031 C 
ATOM     20  C   UNL     1       0.933  -2.220   3.892  0.00  0.00    +0.031 C 
ATOM     21  C   UNL     1       2.322  -0.143   3.867  0.00  0.00    +0.031 C 
ENDBRANCH  16  18
ENDBRANCH  11  14
BRANCH   1  22
ATOM     22  O   UNL     1       2.442  -1.174  -3.231  0.00  0.00    -0.477 OA
BRANCH  22  24
ATOM     23  C   UNL     1       4.100  -2.432  -2.002  0.00  0.00    +0.048 C 
ATOM     24  C   UNL     1       2.921  -1.461  -1.915  0.00  0.00    +0.227 C 
ENDBRANCH  22  24
ENDBRANCH   1  22
TORSDOF 4
