REMARK  Name = ZINC24437508
REMARK  8 active torsions:
REMARK  status: ('A' for Active; 'I' for Inactive)
REMARK    1  A    between atoms: C_4  and  C_25
REMARK    2  A    between atoms: C_5  and  C_7
REMARK    3  A    between atoms: C_7  and  N_8
REMARK    4  A    between atoms: C_9  and  C_11
REMARK    5  A    between atoms: C_11  and  C_12
REMARK    6  A    between atoms: C_12  and  C_14
REMARK    7  A    between atoms: C_12  and  N_21
REMARK    8  A    between atoms: C_25  and  N_26
REMARK                            x       y       z     vdW  Elec       q    Type
REMARK                         _______ _______ _______ _____ _____    ______ ____
ROOT
ATOM      1  N   UNL     1       4.927   3.266   0.789  0.00  0.00    -0.311 N 
ATOM      2  C   UNL     1       6.104   3.154   0.142  0.00  0.00    +0.215 C 
ATOM      3  O   UNL     1       6.691   2.092   0.129  0.00  0.00    -0.276 OA
ATOM      4  H   UNL     1       4.396   4.229   0.800  0.00  0.00    +0.149 HD
ENDROOT
BRANCH   1   5
ATOM      5  C   UNL     1       4.356   2.105   1.476  0.00  0.00    +0.139 C 
BRANCH   5  10
ATOM      6  C   UNL     1       1.786   3.091   4.060  0.00  0.00    +0.000 A 
ATOM      7  C   UNL     1       0.645   3.200   3.286  0.00  0.00    +0.000 A 
ATOM      8  C   UNL     1       0.706   2.958   1.927  0.00  0.00    +0.006 A 
ATOM      9  C   UNL     1       1.908   2.607   1.340  0.00  0.00    -0.023 A 
ATOM     10  C   UNL     1       3.047   2.493   2.114  0.00  0.00    -0.025 A 
ATOM     11  C   UNL     1       2.987   2.739   3.474  0.00  0.00    +0.005 A 
BRANCH   9  12
ATOM     12  C   UNL     1       1.974   2.343  -0.142  0.00  0.00    +0.158 C 
BRANCH  12  13
ATOM     13  N   UNL     1       1.750   0.917  -0.394  0.00  0.00    -0.332 N 
ATOM     14  C   UNL     1       2.714  -0.036  -0.583  0.00  0.00    +0.107 A 
ATOM     15  C   UNL     1       2.074  -1.204  -0.782  0.00  0.00    +0.130 A 
ATOM     16  N   UNL     1       0.754  -0.970  -0.717  0.00  0.00    -0.244 NA
ATOM     17  C   UNL     1       0.553   0.298  -0.485  0.00  0.00    +0.199 A 
ENDBRANCH  12  13
ENDBRANCH   9  12
ENDBRANCH   5  10
ENDBRANCH   1   5
BRANCH   2  18
ATOM     18  C   UNL     1       6.692   4.348  -0.565  0.00  0.00    +0.123 C 
BRANCH  18  19
ATOM     19  C   UNL     1       8.021   3.954  -1.214  0.00  0.00    +0.113 C 
BRANCH  19  20
ATOM     20  C   UNL     1       8.548   5.111  -2.022  0.00  0.00    -0.027 A 
ATOM     21  C   UNL     1       7.669   6.017  -2.587  0.00  0.00    +0.007 A 
ATOM     22  C   UNL     1       8.152   7.082  -3.324  0.00  0.00    +0.020 A 
ATOM     23  C   UNL     1       9.515   7.235  -3.506  0.00  0.00    +0.041 A 
ATOM     24  C   UNL     1      10.394   6.325  -2.946  0.00  0.00    +0.020 A 
ATOM     25  C   UNL     1       9.910   5.264  -2.204  0.00  0.00    +0.007 A 
ATOM     26 CL   UNL     1      10.122   8.567  -4.439  0.00  0.00    -0.084 Cl
ENDBRANCH  19  20
BRANCH  19  27
ATOM     27  N   UNL     1       8.989   3.607  -0.170  0.00  0.00    -0.292 N 
ATOM     28  C   UNL     1       9.381   4.537   0.722  0.00  0.00    +0.298 C 
ATOM     29  O   UNL     1       8.864   5.638   0.720  0.00  0.00    -0.253 OA
ATOM     30  N   UNL     1      10.346   4.248   1.618  0.00  0.00    -0.313 N 
ATOM     31  H   UNL     1       9.395   2.586  -0.115  0.00  0.00    +0.151 HD
ATOM     32  H   UNL     1      10.666   5.007   2.346  0.00  0.00    +0.146 HD
ATOM     33  H   UNL     1      10.813   3.252   1.620  0.00  0.00    +0.146 HD
ENDBRANCH  19  27
ENDBRANCH  18  19
ENDBRANCH   2  18
TORSDOF 8
