REMARK  Name = ZINC17344226
REMARK  9 active torsions:
REMARK  status: ('A' for Active; 'I' for Inactive)
REMARK    1  A    between atoms: C_1  and  C_2
REMARK    2  A    between atoms: C_2  and  C_3
REMARK    3  A    between atoms: C_3  and  C_4
REMARK    4  A    between atoms: C_4  and  N_5
REMARK    5  A    between atoms: C_6  and  N_33
REMARK    6  A    between atoms: C_7  and  N_14
REMARK    7  A    between atoms: N_14  and  C_15
REMARK    8  A    between atoms: C_15  and  C_16
REMARK    9  A    between atoms: C_22  and  C_24
REMARK                            x       y       z     vdW  Elec       q    Type
REMARK                         _______ _______ _______ _____ _____    ______ ____
ROOT
ATOM      1  N   UNL     1      -0.559  -2.991  -2.411  0.00  0.00    -0.256 N 
ATOM      2  C   UNL     1      -0.370  -2.442  -3.627  0.00  0.00    +0.253 C 
ATOM      3  O   UNL     1      -0.226  -3.156  -4.601  0.00  0.00    -0.270 OA
ENDROOT
BRANCH   1   6
ATOM      4  N   UNL     1      -0.112  -1.435   0.887  0.00  0.00    -0.280 N 
ATOM      5  C   UNL     1       0.101  -2.251  -0.200  0.00  0.00    +0.127 A 
ATOM      6  C   UNL     1      -0.748  -2.164  -1.284  0.00  0.00    +0.140 A 
ATOM      7  C   UNL     1      -1.801  -1.231  -1.249  0.00  0.00    +0.277 A 
ATOM      8  O   UNL     1      -2.563  -1.130  -2.196  0.00  0.00    -0.266 OA
ATOM      9  N   UNL     1      -1.962  -0.451  -0.163  0.00  0.00    -0.273 N 
ATOM     10  H   UNL     1      -2.711   0.212  -0.137  0.00  0.00    +0.173 HD
ATOM     11  C   UNL     1      -1.129  -0.554   0.887  0.00  0.00    +0.331 A 
ATOM     12  O   UNL     1      -1.297   0.163   1.856  0.00  0.00    -0.246 OA
BRANCH   5  13
ATOM     13  N   UNL     1       1.143  -3.147  -0.203  0.00  0.00    -0.343 N 
ATOM     14  H   UNL     1       1.644  -3.311   0.612  0.00  0.00    +0.144 HD
ATOM     15  H   UNL     1       1.379  -3.615  -1.019  0.00  0.00    +0.144 HD
ENDBRANCH   5  13
BRANCH   4  16
ATOM     16  C   UNL     1       0.778  -1.521   2.048  0.00  0.00    +0.128 C 
BRANCH  16  17
ATOM     17  C   UNL     1       0.225  -2.547   3.039  0.00  0.00    +0.021 C 
BRANCH  17  19
ATOM     18  C   UNL     1       0.601  -3.662   5.242  0.00  0.00    +0.004 C 
ATOM     19  C   UNL     1       1.154  -2.636   4.251  0.00  0.00    -0.002 C 
ENDBRANCH  17  19
ENDBRANCH  16  17
ENDBRANCH   4  16
ENDBRANCH   1   6
BRANCH   2  20
ATOM     20  C   UNL     1      -0.339  -0.973  -3.776  0.00  0.00    +0.058 A 
ATOM     21  C   UNL     1       0.008  -0.165  -2.691  0.00  0.00    +0.054 A 
ATOM     22  C   UNL     1       0.035   1.208  -2.838  0.00  0.00    +0.142 A 
ATOM     23  C   UNL     1      -0.280   1.784  -4.060  0.00  0.00    +0.077 A 
ATOM     24  C   UNL     1      -0.624   0.988  -5.138  0.00  0.00    +0.043 A 
ATOM     25  C   UNL     1      -0.650  -0.386  -5.006  0.00  0.00    +0.055 A 
ATOM     26 CL   UNL     1      -1.074  -1.383  -6.362  0.00  0.00    -0.083 Cl
ATOM     27 CL   UNL     1      -0.243   3.511  -4.237  0.00  0.00    -0.081 Cl
ATOM     28  F   UNL     1       0.370   1.991  -1.789  0.00  0.00    -0.204 F 
ENDBRANCH   2  20
BRANCH   1  29
ATOM     29  C   UNL     1      -0.570  -4.449  -2.259  0.00  0.00    +0.149 C 
BRANCH  29  30
ATOM     30  C   UNL     1      -1.983  -4.957  -2.379  0.00  0.00    -0.030 A 
ATOM     31  C   UNL     1      -2.807  -4.978  -1.269  0.00  0.00    +0.005 A 
ATOM     32  C   UNL     1      -4.105  -5.438  -1.380  0.00  0.00    +0.000 A 
ATOM     33  C   UNL     1      -4.577  -5.889  -2.599  0.00  0.00    +0.000 A 
ATOM     34  C   UNL     1      -3.752  -5.873  -3.708  0.00  0.00    +0.000 A 
ATOM     35  C   UNL     1      -2.455  -5.407  -3.598  0.00  0.00    +0.005 A 
ENDBRANCH  29  30
ENDBRANCH   1  29
TORSDOF 8
