REMARK  Name = ZINC66977378
REMARK  6 active torsions:
REMARK  status: ('A' for Active; 'I' for Inactive)
REMARK    1  A    between atoms: C_1  and  C_2
REMARK    2  A    between atoms: C_7  and  C_11
REMARK    3  A    between atoms: C_11  and  N_12
REMARK    4  A    between atoms: N_15  and  C_16
REMARK    5  A    between atoms: C_16  and  C_17
REMARK    6  A    between atoms: C_17  and  O_27
REMARK                            x       y       z     vdW  Elec       q    Type
REMARK                         _______ _______ _______ _____ _____    ______ ____
ROOT
ATOM      1  N   UNL     1       1.559  -5.725   2.968  0.00  0.00    -0.294 N 
ATOM      2  C   UNL     1       1.799  -6.952   3.471  0.00  0.00    +0.300 C 
ATOM      3  O   UNL     1       0.904  -7.575   4.008  0.00  0.00    -0.253 OA
ATOM      4  N   UNL     1       3.032  -7.488   3.379  0.00  0.00    -0.296 N 
ATOM      5  H   UNL     1       2.273  -5.228   2.539  0.00  0.00    +0.151 HD
ATOM      6  H   UNL     1       3.747  -6.991   2.950  0.00  0.00    +0.150 HD
ENDROOT
BRANCH   1   7
ATOM      7  C   UNL     1       0.219  -5.142   3.068  0.00  0.00    +0.160 C 
BRANCH   7  14
ATOM      8  C   UNL     1       0.427   2.020   1.253  0.00  0.00    +0.045 C 
ATOM      9  C   UNL     1       0.311   0.522   1.136  0.00  0.00    -0.034 A 
ATOM     10  C   UNL     1       0.088  -0.066  -0.120  0.00  0.00    +0.008 A 
ATOM     11  C   UNL     1      -0.016  -1.418  -0.223  0.00  0.00    +0.045 A 
ATOM     12  C   UNL     1       0.102  -2.209   0.938  0.00  0.00    +0.115 A 
ATOM     13  N   UNL     1       0.044  -3.519   1.135  0.00  0.00    -0.342 N 
ATOM     14  C   UNL     1       0.217  -3.775   2.434  0.00  0.00    +0.051 A 
ATOM     15  C   UNL     1       0.390  -2.603   3.085  0.00  0.00    +0.115 A 
ATOM     16  N   UNL     1       0.319  -1.607   2.150  0.00  0.00    -0.308 N 
ATOM     17  C   UNL     1       0.426  -0.249   2.237  0.00  0.00    +0.096 A 
ATOM     18  H   UNL     1      -0.101  -4.186   0.445  0.00  0.00    +0.167 HD
ENDBRANCH   7  14
ENDBRANCH   1   7
BRANCH   4  19
ATOM     19  C   UNL     1       3.294  -8.822   3.926  0.00  0.00    +0.145 C 
BRANCH  19  20
ATOM     20  C   UNL     1       4.787  -9.135   3.813  0.00  0.00    +0.107 C 
ATOM     21  C   UNL     1       5.585  -8.058   4.545  0.00  0.00    +0.041 C 
ATOM     22  C   UNL     1       7.051  -8.501   4.609  0.00  0.00    +0.008 C 
ATOM     23  C   UNL     1       7.155  -9.684   5.569  0.00  0.00    +0.035 C 
ATOM     24  C   UNL     1       6.146 -10.745   5.214  0.00  0.00    -0.041 A 
ATOM     25  C   UNL     1       5.056 -10.491   4.411  0.00  0.00    -0.011 A 
ATOM     26  C   UNL     1       4.159 -11.513   4.127  0.00  0.00    +0.007 A 
ATOM     27  C   UNL     1       4.353 -12.779   4.640  0.00  0.00    +0.000 A 
ATOM     28  C   UNL     1       5.448 -13.034   5.443  0.00  0.00    +0.000 A 
ATOM     29  C   UNL     1       6.340 -12.020   5.728  0.00  0.00    +0.004 A 
BRANCH  20  30
ATOM     30  O   UNL     1       5.164  -9.144   2.435  0.00  0.00    -0.382 OA
ATOM     31  H   UNL     1       4.692  -9.799   1.902  0.00  0.00    +0.211 HD
ENDBRANCH  20  30
ENDBRANCH  19  20
ENDBRANCH   4  19
TORSDOF 5
