REMARK  Name = ZINC54414070
REMARK  8 active torsions:
REMARK  status: ('A' for Active; 'I' for Inactive)
REMARK    1  A    between atoms: C_1  and  C_2
REMARK    2  A    between atoms: C_2  and  C_3
REMARK    3  A    between atoms: C_3  and  C_5
REMARK    4  A    between atoms: C_3  and  C_6
REMARK    5  A    between atoms: C_6  and  C_8
REMARK    6  A    between atoms: C_6  and  N_9
REMARK    7  A    between atoms: C_10  and  C_14
REMARK    8  A    between atoms: C_17  and  N_21
REMARK                            x       y       z     vdW  Elec       q    Type
REMARK                         _______ _______ _______ _____ _____    ______ ____
ROOT
ATOM      1  N   UNL     1      -0.430  -2.153   1.390  0.00  0.00    -0.222 N 
ATOM      2  C   UNL     1       0.322  -3.275   1.512  0.00  0.00    +0.182 A 
ATOM      3  N   UNL     1       0.295  -3.621   2.783  0.00  0.00    -0.108 NA
ATOM      4  N   UNL     1      -0.419  -2.795   3.458  0.00  0.00    -0.023 NA
ATOM      5  N   UNL     1      -0.889  -1.874   2.689  0.00  0.00    -0.043 NA
ENDROOT
BRANCH   2   6
ATOM      6  C   UNL     1       1.037  -3.978   0.424  0.00  0.00    +0.024 A 
ATOM      7  C   UNL     1       0.513  -3.979  -0.869  0.00  0.00    +0.013 A 
ATOM      8  C   UNL     1       1.180  -4.634  -1.882  0.00  0.00    +0.026 A 
ATOM      9  C   UNL     1       2.375  -5.293  -1.616  0.00  0.00    +0.060 A 
ATOM     10  C   UNL     1       2.901  -5.294  -0.327  0.00  0.00    +0.145 A 
ATOM     11  C   UNL     1       2.239  -4.635   0.689  0.00  0.00    +0.051 A 
ATOM     12  F   UNL     1       4.062  -5.935  -0.072  0.00  0.00    -0.204 F 
BRANCH   9  13
ATOM     13  N   UNL     1       3.049  -5.955  -2.644  0.00  0.00    -0.356 N 
ATOM     14  H   UNL     1       2.683  -5.956  -3.542  0.00  0.00    +0.142 HD
ATOM     15  H   UNL     1       3.882  -6.416  -2.460  0.00  0.00    +0.142 HD
ENDBRANCH   9  13
ENDBRANCH   2   6
BRANCH   1  16
ATOM     16  C   UNL     1      -0.701  -1.392   0.168  0.00  0.00    +0.111 C 
ATOM     17  C   UNL     1      -2.184  -1.510  -0.188  0.00  0.00    +0.033 C 
BRANCH  16  18
ATOM     18  C   UNL     1      -0.345   0.079   0.394  0.00  0.00    +0.010 C 
ATOM     19  C   UNL     1      -0.628   0.874  -0.883  0.00  0.00    +0.009 C 
BRANCH  18  21
ATOM     20  C   UNL     1       1.466   1.650   1.097  0.00  0.00    +0.004 C 
ATOM     21  C   UNL     1       1.138   0.196   0.749  0.00  0.00    +0.002 C 
ENDBRANCH  18  21
ENDBRANCH  16  18
ENDBRANCH   1  16
TORSDOF 5
