REMARK  Name = ZINC43604534
REMARK  8 active torsions:
REMARK  status: ('A' for Active; 'I' for Inactive)
REMARK    1  A    between atoms: C_1  and  C_2
REMARK    2  A    between atoms: C_19  and  C_21
REMARK    3  A    between atoms: C_21  and  N_22
REMARK    4  A    between atoms: N_22  and  C_23
REMARK    5  A    between atoms: C_23  and  C_24
REMARK    6  A    between atoms: C_24  and  C_25
REMARK    7  A    between atoms: C_32  and  O_35
REMARK    8  A    between atoms: O_35  and  C_36
REMARK                            x       y       z     vdW  Elec       q    Type
REMARK                         _______ _______ _______ _____ _____    ______ ____
ROOT
ATOM      1  C   UNL     1      -1.810  -2.068   4.257  0.00  0.00    -0.068 C 
ENDROOT
BRANCH   1  17
ATOM      2  C   UNL     1      -0.019   1.526   0.010  0.00  0.00    +0.012 C 
ATOM      3  C   UNL     1       0.002  -0.004   0.002  0.00  0.00    -0.022 C 
ATOM      4  C   UNL     1       0.719  -0.500  -1.252  0.00  0.00    +0.007 C 
ATOM      5  C   UNL     1       2.124   0.103  -1.315  0.00  0.00    +0.005 C 
ATOM      6  C   UNL     1       2.947  -0.385  -0.119  0.00  0.00    +0.030 C 
ATOM      7  C   UNL     1       2.187  -0.074   1.153  0.00  0.00    -0.073 C 
ATOM      8  C   UNL     1       2.762   0.560   2.144  0.00  0.00    +0.008 C 
ATOM      9  C   UNL     1       0.744  -0.516   1.245  0.00  0.00    +0.021 C 
ATOM     10  C   UNL     1       0.093   0.123   2.471  0.00  0.00    +0.016 C 
ATOM     11  C   UNL     1      -1.368  -0.240   2.570  0.00  0.00    +0.042 C 
ATOM     12  C   UNL     1      -2.163   0.002   1.272  0.00  0.00    +0.181 C 
ATOM     13  C   UNL     1      -1.427  -0.535   0.053  0.00  0.00    +0.052 C 
ATOM     14  O   UNL     1      -3.312  -0.866   1.477  0.00  0.00    -0.461 OA
ATOM     15  C   UNL     1      -2.858  -2.029   1.992  0.00  0.00    +0.309 C 
ATOM     16  O   UNL     1      -3.372  -3.112   1.845  0.00  0.00    -0.251 OA
ATOM     17  C   UNL     1      -1.595  -1.750   2.775  0.00  0.00    +0.087 C 
ENDBRANCH   1  17
BRANCH   1  18
ATOM     18  N   UNL     1      -1.903  -3.523   4.437  0.00  0.00    +0.380 N 
ATOM     19  H   UNL     1      -2.680  -3.879   3.900  0.00  0.00    -0.086 HD
ATOM     20  H   UNL     1      -1.049  -3.956   4.120  0.00  0.00    -0.086 HD
BRANCH  18  21
ATOM     21  C   UNL     1      -2.110  -3.828   5.859  0.00  0.00    -0.078 C 
BRANCH  21  22
ATOM     22  C   UNL     1      -2.207  -5.343   6.047  0.00  0.00    +0.018 C 
BRANCH  22  23
ATOM     23  C   UNL     1      -2.419  -5.656   7.506  0.00  0.00    -0.024 A 
ATOM     24  C   UNL     1      -1.468  -5.958   8.403  0.00  0.00    +0.087 A 
ATOM     25  N   UNL     1      -2.036  -6.181   9.628  0.00  0.00    -0.360 N 
ATOM     26  H   UNL     1      -1.549  -6.414  10.434  0.00  0.00    +0.165 HD
ATOM     27  C   UNL     1      -3.403  -6.022   9.546  0.00  0.00    +0.047 A 
ATOM     28  C   UNL     1      -3.701  -5.681   8.214  0.00  0.00    +0.006 A 
ATOM     29  C   UNL     1      -5.024  -5.452   7.831  0.00  0.00    +0.056 A 
ATOM     30  C   UNL     1      -6.033  -5.560   8.767  0.00  0.00    +0.121 A 
ATOM     31  C   UNL     1      -5.735  -5.894  10.085  0.00  0.00    +0.047 A 
ATOM     32  C   UNL     1      -4.434  -6.130  10.472  0.00  0.00    +0.030 A 
BRANCH  30  33
ATOM     33  O   UNL     1      -7.324  -5.337   8.401  0.00  0.00    -0.495 OA
ATOM     34  C   UNL     1      -8.319  -5.465   9.418  0.00  0.00    +0.277 C 
ENDBRANCH  30  33
ENDBRANCH  22  23
ENDBRANCH  21  22
ENDBRANCH  18  21
ENDBRANCH   1  18
TORSDOF 6
