REMARK  Name = ZINC62750339
REMARK  4 active torsions:
REMARK  status: ('A' for Active; 'I' for Inactive)
REMARK    1  A    between atoms: C_1  and  C_2
REMARK    2  A    between atoms: C_2  and  C_3
REMARK    3  A    between atoms: C_7  and  C_19
REMARK    4  A    between atoms: C_9  and  N_12
REMARK                            x       y       z     vdW  Elec       q    Type
REMARK                         _______ _______ _______ _____ _____    ______ ____
ROOT
ATOM      1  C   UNL     1      -1.433  -0.536   0.038  0.00  0.00    -0.013 C 
ATOM      2  C   UNL     1      -2.131  -0.147   1.342  0.00  0.00    +0.004 C 
ATOM      3  C   UNL     1      -3.567  -0.674   1.328  0.00  0.00    +0.013 C 
ATOM      4  C   UNL     1      -3.550  -2.198   1.194  0.00  0.00    +0.089 C 
ATOM      5  C   UNL     1      -2.851  -2.587  -0.110  0.00  0.00    -0.054 C 
ATOM      6  C   UNL     1      -1.415  -2.060  -0.097  0.00  0.00    -0.011 C 
ENDROOT
BRANCH   5   7
ATOM      7  N   UNL     1      -2.834  -4.051  -0.239  0.00  0.00    +0.382 N 
ATOM      8  C   UNL     1      -2.204  -4.405  -1.526  0.00  0.00    -0.078 C 
ATOM      9  C   UNL     1      -1.643  -5.800  -1.409  0.00  0.00    -0.019 C 
ATOM     10  C   UNL     1      -2.623  -6.850  -1.965  0.00  0.00    -0.002 C 
ATOM     11  C   UNL     1      -4.081  -6.538  -1.569  0.00  0.00    -0.002 C 
ATOM     12  C   UNL     1      -4.200  -6.068  -0.142  0.00  0.00    -0.019 C 
ATOM     13  C   UNL     1      -4.141  -4.526  -0.113  0.00  0.00    -0.078 C 
ATOM     14  H   UNL     1      -2.276  -4.434   0.509  0.00  0.00    -0.081 HD
ENDBRANCH   5   7
BRANCH   4  15
ATOM     15  C   UNL     1      -2.806  -2.796   2.360  0.00  0.00    +0.357 C 
ATOM     16  O   UNL     1      -3.201  -2.605   3.498  0.00  0.00    -0.246 OA
ATOM     17  O   UNL     1      -1.810  -3.471   2.166  0.00  0.00    -0.246 OA
ENDBRANCH   4  15
BRANCH   1  19
ATOM     18  C   UNL     1      -0.015   1.522   0.060  0.00  0.00    +0.004 C 
ATOM     19  C   UNL     1       0.004  -0.008   0.051  0.00  0.00    -0.000 C 
ENDBRANCH   1  19
TORSDOF 3
