REMARK  Name = ZINC46950428
REMARK  14 active torsions:
REMARK  status: ('A' for Active; 'I' for Inactive)
REMARK    1  A    between atoms: C_1  and  C_2
REMARK    2  A    between atoms: C_2  and  C_3
REMARK    3  A    between atoms: C_3  and  C_4
REMARK    4  A    between atoms: C_3  and  C_6
REMARK    5  A    between atoms: C_3  and  N_24
REMARK    6  A    between atoms: C_4  and  C_5
REMARK    7  A    between atoms: C_6  and  N_7
REMARK    8  A    between atoms: N_10  and  N_11
REMARK    9  A    between atoms: C_12  and  C_14
REMARK   10  A    between atoms: C_14  and  C_15
REMARK   11  A    between atoms: C_15  and  S_16
REMARK   12  A    between atoms: S_16  and  C_17
REMARK   13  A    between atoms: N_24  and  C_25
REMARK   14  A    between atoms: N_24  and  C_26
REMARK                            x       y       z     vdW  Elec       q    Type
REMARK                         _______ _______ _______ _____ _____    ______ ____
ROOT
ATOM      1  N   UNL     1      -3.727  -0.410   1.264  0.00  0.00    -0.300 N 
ATOM      2  C   UNL     1      -4.633  -0.016   2.180  0.00  0.00    +0.316 C 
ATOM      3  O   UNL     1      -4.304   0.736   3.076  0.00  0.00    -0.251 OA
ATOM      4  N   UNL     1      -5.904  -0.457   2.103  0.00  0.00    -0.218 N 
ATOM      5  H   UNL     1      -3.989  -1.010   0.548  0.00  0.00    +0.150 HD
ATOM      6  H   UNL     1      -6.557  -0.174   2.762  0.00  0.00    +0.174 HD
ENDROOT
BRANCH   4   7
ATOM      7  N   UNL     1      -6.283  -1.325   1.070  0.00  0.00    -0.233 N 
ATOM      8  C   UNL     1      -7.555  -1.766   0.992  0.00  0.00    +0.230 C 
ATOM      9  O   UNL     1      -8.370  -1.412   1.817  0.00  0.00    -0.274 OA
ATOM     10  H   UNL     1      -5.631  -1.608   0.410  0.00  0.00    +0.173 HD
BRANCH   8  11
ATOM     11  C   UNL     1      -7.962  -2.698  -0.119  0.00  0.00    +0.108 C 
BRANCH  11  12
ATOM     12  C   UNL     1      -9.446  -3.044   0.024  0.00  0.00    +0.083 C 
BRANCH  12  13
ATOM     13  S   UNL     1      -9.937  -4.166  -1.314  0.00  0.00    -0.125 S 
BRANCH  13  14
ATOM     14  C   UNL     1     -11.647  -4.465  -1.014  0.00  0.00    +0.008 A 
ATOM     15  C   UNL     1     -12.280  -3.862   0.067  0.00  0.00    +0.017 A 
ATOM     16  C   UNL     1     -13.620  -4.098   0.300  0.00  0.00    +0.039 A 
ATOM     17  C   UNL     1     -14.334  -4.934  -0.542  0.00  0.00    +0.123 A 
ATOM     18  C   UNL     1     -13.706  -5.536  -1.620  0.00  0.00    +0.039 A 
ATOM     19  C   UNL     1     -12.367  -5.300  -1.860  0.00  0.00    +0.017 A 
ATOM     20  F   UNL     1     -15.646  -5.163  -0.312  0.00  0.00    -0.205 F 
ENDBRANCH  13  14
ENDBRANCH  12  13
ENDBRANCH  11  12
ENDBRANCH   8  11
ENDBRANCH   4   7
BRANCH   1  21
ATOM     21  C   UNL     1      -2.345   0.070   1.347  0.00  0.00    +0.094 C 
BRANCH  21  22
ATOM     22  C   UNL     1      -1.568  -0.395   0.114  0.00  0.00    -0.051 C 
BRANCH  22  23
ATOM     23  N   UNL     1      -1.716  -1.848  -0.040  0.00  0.00    +0.381 N 
ATOM     24  C   UNL     1      -0.876  -2.311  -1.153  0.00  0.00    -0.096 C 
ATOM     25  C   UNL     1      -1.298  -2.516   1.200  0.00  0.00    -0.096 C 
ATOM     26  H   UNL     1      -2.681  -2.069  -0.232  0.00  0.00    -0.082 HD
ENDBRANCH  22  23
BRANCH  22  28
ATOM     27  C   UNL     1      -3.553  -0.156  -1.385  0.00  0.00    +0.002 C 
ATOM     28  C   UNL     1      -2.118   0.308  -1.129  0.00  0.00    -0.014 C 
ENDBRANCH  22  28
BRANCH  22  29
ATOM     29  C   UNL     1      -0.087  -0.048   0.283  0.00  0.00    -0.014 C 
ATOM     30  C   UNL     1       0.056   1.448   0.571  0.00  0.00    +0.002 C 
ENDBRANCH  22  29
ENDBRANCH  21  22
ENDBRANCH   1  21
TORSDOF 10
