REMARK  Name = ZINC19230877
REMARK  5 active torsions:
REMARK  status: ('A' for Active; 'I' for Inactive)
REMARK    1  A    between atoms: C_1  and  C_2
REMARK    2  A    between atoms: C_5  and  S_11
REMARK    3  A    between atoms: C_7  and  C_8
REMARK    4  A    between atoms: S_11  and  N_14
REMARK    5  A    between atoms: C_18  and  C_20
REMARK                            x       y       z     vdW  Elec       q    Type
REMARK                         _______ _______ _______ _____ _____    ______ ____
ROOT
ATOM      1  S   UNL     1       3.494  -3.075   0.186  0.00  0.00    +0.101 S 
ATOM      2  O   UNL     1       4.824  -3.510   0.430  0.00  0.00    -0.146 OA
ATOM      3  O   UNL     1       2.417  -3.386   1.060  0.00  0.00    -0.146 OA
ENDROOT
BRANCH   1   4
ATOM      4  N   UNL     1       3.073  -3.655  -1.308  0.00  0.00    -0.103 NA
ATOM      5  C   UNL     1       3.926  -3.477  -2.385  0.00  0.00    +0.192 A 
ATOM      6  N   UNL     1       5.099  -2.875  -2.423  0.00  0.00    -0.339 N 
ATOM      7  C   UNL     1       5.791  -2.797  -3.545  0.00  0.00    +0.095 A 
ATOM      8  C   UNL     1       5.264  -3.341  -4.668  0.00  0.00    +0.006 A 
ATOM      9  S   UNL     1       3.721  -3.983  -4.034  0.00  0.00    -0.054 S 
ATOM     10  C   UNL     1       5.824  -3.392  -6.066  0.00  0.00    +0.053 C 
ATOM     11  H   UNL     1       5.518  -2.427  -1.510  0.00  0.00    +0.167 HD
ENDBRANCH   1   4
BRANCH   1  16
ATOM     12  C   UNL     1       3.724   2.948  -0.249  0.00  0.00    +0.044 C 
ATOM     13  C   UNL     1       3.663   1.447  -0.136  0.00  0.00    -0.036 A 
ATOM     14  C   UNL     1       4.790   0.689  -0.383  0.00  0.00    +0.006 A 
ATOM     15  C   UNL     1       4.735  -0.690  -0.286  0.00  0.00    +0.029 A 
ATOM     16  C   UNL     1       3.553  -1.318   0.065  0.00  0.00    +0.113 A 
ATOM     17  C   UNL     1       2.421  -0.573   0.320  0.00  0.00    +0.044 A 
ATOM     18  C   UNL     1       2.469   0.820   0.224  0.00  0.00    +0.068 A 
BRANCH  18  19
ATOM     19  C   UNL     1       1.261   1.625   0.495  0.00  0.00    +0.387 C 
ATOM     20  O   UNL     1       1.332   2.837   0.522  0.00  0.00    -0.241 OA
ATOM     21  O   UNL     1       0.080   1.014   0.712  0.00  0.00    -0.241 OA
ENDBRANCH  18  19
ENDBRANCH   1  16
TORSDOF 3
