REMARK  Name = ZINC53043590
REMARK  7 active torsions:
REMARK  status: ('A' for Active; 'I' for Inactive)
REMARK    1  A    between atoms: C_1  and  C_2
REMARK    2  A    between atoms: C_5  and  C_7
REMARK    3  A    between atoms: C_7  and  N_8
REMARK    4  A    between atoms: N_8  and  S_9
REMARK    5  A    between atoms: S_9  and  C_12
REMARK    6  A    between atoms: C_14  and  N_21
REMARK    7  A    between atoms: C_17  and  N_18
REMARK                            x       y       z     vdW  Elec       q    Type
REMARK                         _______ _______ _______ _____ _____    ______ ____
ROOT
ATOM      1  S   UNL     1       3.402  -4.557  -1.811  0.00  0.00    +0.061 S 
ATOM      2  O   UNL     1       3.606  -4.731  -3.207  0.00  0.00    -0.153 OA
ATOM      3  O   UNL     1       4.374  -3.955  -0.968  0.00  0.00    -0.153 OA
ENDROOT
BRANCH   1   4
ATOM      4  C   UNL     1       3.080  -6.157  -1.147  0.00  0.00    +0.137 A 
ATOM      5  C   UNL     1       3.791  -6.604  -0.050  0.00  0.00    +0.053 A 
ATOM      6  C   UNL     1       3.537  -7.865   0.473  0.00  0.00    +0.027 A 
ATOM      7  C   UNL     1       2.567  -8.673  -0.108  0.00  0.00    +0.025 A 
ATOM      8  C   UNL     1       1.860  -8.220  -1.204  0.00  0.00    +0.036 A 
ATOM      9  C   UNL     1       2.112  -6.961  -1.720  0.00  0.00    +0.152 A 
BRANCH   9  10
ATOM     10  N   UNL     1       1.349  -6.476  -2.891  0.00  0.00    +0.058 N 
ATOM     11  O   UNL     1       0.596  -7.222  -3.473  0.00  0.00    -0.126 OA
ATOM     12  O   UNL     1       1.478  -5.334  -3.267  0.00  0.00    -0.126 OA
ENDBRANCH   9  10
BRANCH   6  13
ATOM     13  N   UNL     1       4.254  -8.321   1.582  0.00  0.00    -0.358 N 
ATOM     14  H   UNL     1       4.931  -7.756   1.987  0.00  0.00    +0.142 HD
ATOM     15  H   UNL     1       4.075  -9.202   1.947  0.00  0.00    +0.142 HD
ENDBRANCH   6  13
ENDBRANCH   1   4
BRANCH   1  16
ATOM     16  N   UNL     1       2.014  -3.669  -1.643  0.00  0.00    -0.183 NA
ATOM     17  H   UNL     1       1.550  -3.341  -2.428  0.00  0.00    +0.148 HD
BRANCH  16  18
ATOM     18  C   UNL     1       1.488  -3.379  -0.306  0.00  0.00    +0.180 C 
BRANCH  18  23
ATOM     19  C   UNL     1      -0.416   1.292  -0.325  0.00  0.00    +0.086 C 
ATOM     20  C   UNL     1      -0.325  -0.211  -0.398  0.00  0.00    +0.102 A 
ATOM     21  C   UNL     1      -1.354  -1.052  -0.603  0.00  0.00    +0.044 A 
ATOM     22  C   UNL     1      -0.821  -2.361  -0.598  0.00  0.00    +0.046 A 
ATOM     23  C   UNL     1       0.503  -2.241  -0.390  0.00  0.00    +0.121 A 
ATOM     24  O   UNL     1       0.798  -0.936  -0.276  0.00  0.00    -0.464 OA
ENDBRANCH  18  23
ENDBRANCH  16  18
ENDBRANCH   1  16
TORSDOF 6
