REMARK  Name = ZINC31256246
REMARK  6 active torsions:
REMARK  status: ('A' for Active; 'I' for Inactive)
REMARK    1  A    between atoms: C_1  and  C_2
REMARK    2  A    between atoms: C_5  and  C_8
REMARK    3  A    between atoms: N_14  and  C_15
REMARK    4  A    between atoms: C_15  and  C_16
REMARK    5  A    between atoms: C_16  and  C_17
REMARK    6  A    between atoms: N_19  and  C_20
REMARK                            x       y       z     vdW  Elec       q    Type
REMARK                         _______ _______ _______ _____ _____    ______ ____
ROOT
ATOM      1  C   UNL     1       1.658  -1.967  -0.486  0.00  0.00    +0.118 C 
ENDROOT
BRANCH   1   2
ATOM      2  C   UNL     1       1.860  -0.480  -0.354  0.00  0.00    +0.219 C 
ATOM      3  O   UNL     1       2.970  -0.033  -0.160  0.00  0.00    -0.275 OA
ATOM      4  N   UNL     1       0.805   0.354  -0.452  0.00  0.00    -0.285 N 
ATOM      5  H   UNL     1      -0.211  -0.053  -0.551  0.00  0.00    +0.155 HD
BRANCH   4   6
ATOM      6  C   UNL     1       1.005   1.741  -0.428  0.00  0.00    +0.036 A 
ATOM      7  C   UNL     1       0.202   2.571  -1.202  0.00  0.00    +0.027 A 
ATOM      8  C   UNL     1       0.394   3.938  -1.183  0.00  0.00    +0.050 A 
ATOM      9  C   UNL     1       1.390   4.487  -0.390  0.00  0.00    +0.157 A 
ATOM     10  C   UNL     1       2.196   3.656   0.387  0.00  0.00    +0.089 A 
ATOM     11  C   UNL     1       2.000   2.284   0.371  0.00  0.00    +0.052 A 
ATOM     12  N   UNL     1       3.091   4.486   1.062  0.00  0.00    -0.288 N 
ATOM     13  H   UNL     1       3.836   4.051   1.745  0.00  0.00    +0.172 HD
ATOM     14  C   UNL     1       2.821   5.755   0.697  0.00  0.00    +0.419 A 
ATOM     15  O   UNL     1       3.411   6.740   1.096  0.00  0.00    -0.223 OA
ATOM     16  O   UNL     1       1.801   5.762  -0.175  0.00  0.00    -0.408 OA
ENDBRANCH   4   6
ENDBRANCH   1   2
BRANCH   1  17
ATOM     17  C   UNL     1       3.004  -2.680  -0.337  0.00  0.00    +0.135 C 
BRANCH  17  24
ATOM     18  C   UNL     1       2.615  -5.011   0.577  0.00  0.00    +0.163 A 
ATOM     19  N   UNL     1       2.474  -6.209   0.083  0.00  0.00    -0.153 NA
ATOM     20  N   UNL     1       2.585  -6.119  -1.312  0.00  0.00    -0.254 N 
ATOM     21  H   UNL     1       2.500  -7.024  -1.930  0.00  0.00    +0.191 HD
ATOM     22  C   UNL     1       2.791  -4.821  -1.619  0.00  0.00    +0.176 A 
ATOM     23  S   UNL     1       2.992  -4.175  -3.191  0.00  0.00    -0.011 S 
ATOM     24  N   UNL     1       2.808  -4.126  -0.465  0.00  0.00    -0.303 N 
BRANCH  18  29
ATOM     25  C   UNL     1       2.450  -3.642   6.165  0.00  0.00    +0.044 C 
ATOM     26  C   UNL     1       2.493  -4.001   4.702  0.00  0.00    -0.050 A 
ATOM     27  C   UNL     1       2.719  -5.311   4.321  0.00  0.00    +0.004 A 
ATOM     28  C   UNL     1       2.760  -5.646   2.983  0.00  0.00    +0.012 A 
ATOM     29  C   UNL     1       2.572  -4.659   2.014  0.00  0.00    +0.019 A 
ATOM     30  C   UNL     1       2.351  -3.339   2.405  0.00  0.00    +0.012 A 
ATOM     31  C   UNL     1       2.306  -3.018   3.747  0.00  0.00    +0.004 A 
ENDBRANCH  18  29
ENDBRANCH  17  24
ENDBRANCH   1  17
TORSDOF 5
