REMARK  Name = ZINC65734329
REMARK  6 active torsions:
REMARK  status: ('A' for Active; 'I' for Inactive)
REMARK    1  A    between atoms: C_1  and  C_2
REMARK    2  A    between atoms: C_10  and  C_14
REMARK    3  A    between atoms: C_14  and  N_15
REMARK    4  A    between atoms: C_16  and  C_18
REMARK    5  A    between atoms: C_18  and  C_21
REMARK    6  A    between atoms: N_19  and  O_20
REMARK                            x       y       z     vdW  Elec       q    Type
REMARK                         _______ _______ _______ _____ _____    ______ ____
ROOT
ATOM      1  N   UNL     1       4.114  -2.535  -2.633  0.00  0.00    -0.307 N 
ATOM      2  C   UNL     1       5.073  -2.472  -3.578  0.00  0.00    +0.268 C 
ATOM      3  O   UNL     1       5.364  -3.465  -4.215  0.00  0.00    -0.268 OA
ATOM      4  H   UNL     1       3.938  -1.766  -2.068  0.00  0.00    +0.149 HD
ENDROOT
BRANCH   2   5
ATOM      5  C   UNL     1       5.771  -1.192  -3.841  0.00  0.00    +0.190 C 
ATOM      6  N   UNL     1       5.362  -0.097  -3.267  0.00  0.00    -0.080 NA
BRANCH   5   7
ATOM      7  C   UNL     1       6.934  -1.159  -4.754  0.00  0.00    +0.107 A 
ATOM      8  C   UNL     1       7.589   0.019  -4.999  0.00  0.00    +0.078 A 
ATOM      9  S   UNL     1       8.857  -0.534  -6.132  0.00  0.00    -0.060 S 
ATOM     10  C   UNL     1       8.393  -2.260  -6.166  0.00  0.00    +0.156 A 
ATOM     11  N   UNL     1       7.360  -2.274  -5.345  0.00  0.00    -0.223 NA
ATOM     12  N   UNL     1       8.969  -3.307  -6.867  0.00  0.00    -0.338 N 
ATOM     13  H   UNL     1       9.736  -3.145  -7.437  0.00  0.00    +0.144 HD
ATOM     14  H   UNL     1       8.604  -4.202  -6.787  0.00  0.00    +0.144 HD
ENDBRANCH   5   7
BRANCH   6  15
ATOM     15  O   UNL     1       4.154  -0.094  -2.528  0.00  0.00    -0.409 OA
ATOM     16  H   UNL     1       3.933   0.764  -2.140  0.00  0.00    +0.328 HD
ENDBRANCH   6  15
ENDBRANCH   2   5
BRANCH   1  17
ATOM     17  C   UNL     1       3.337  -3.765  -2.458  0.00  0.00    +0.142 C 
BRANCH  17  26
ATOM     18  C   UNL     1       1.665   0.896   2.036  0.00  0.00    +0.053 C 
ATOM     19  C   UNL     1       1.770  -0.626   1.918  0.00  0.00    +0.184 C 
ATOM     20  C   UNL     1       2.039  -1.032   0.455  0.00  0.00    +0.095 C 
ATOM     21  C   UNL     1       2.920  -2.257   0.634  0.00  0.00    +0.128 C 
ATOM     22  C   UNL     1       3.595  -2.016   1.941  0.00  0.00    +0.354 C 
ATOM     23  O   UNL     1       4.615  -2.560   2.310  0.00  0.00    -0.244 OA
ATOM     24  O   UNL     1       2.903  -1.106   2.653  0.00  0.00    -0.457 OA
ATOM     25  N   UNL     1       3.036  -3.265  -0.106  0.00  0.00    -0.265 NA
ATOM     26  C   UNL     1       2.324  -3.571  -1.328  0.00  0.00    +0.180 C 
ATOM     27  S   UNL     1       1.169  -2.259  -1.797  0.00  0.00    -0.132 S 
ATOM     28  C   UNL     1       0.735  -1.471  -0.217  0.00  0.00    +0.084 C 
ENDBRANCH  17  26
ENDBRANCH   1  17
TORSDOF 5
