REMARK  Name = ZINC50564080
REMARK  7 active torsions:
REMARK  status: ('A' for Active; 'I' for Inactive)
REMARK    1  A    between atoms: C_1  and  C_2
REMARK    2  A    between atoms: C_8  and  C_10
REMARK    3  A    between atoms: C_14  and  N_21
REMARK    4  A    between atoms: C_15  and  O_17
REMARK    5  A    between atoms: O_17  and  C_18
REMARK    6  A    between atoms: C_18  and  C_19
REMARK    7  A    between atoms: C_18  and  C_20
REMARK                            x       y       z     vdW  Elec       q    Type
REMARK                         _______ _______ _______ _____ _____    ______ ____
ROOT
ATOM      1  C   UNL     1       0.039   1.680   0.512  0.00  0.00    +0.009 C 
ATOM      2  C   UNL     1       0.097   0.171   0.266  0.00  0.00    +0.006 C 
ATOM      3  C   UNL     1      -1.318  -0.364   0.037  0.00  0.00    +0.006 C 
ATOM      4  C   UNL     1      -1.258  -1.868  -0.242  0.00  0.00    +0.019 C 
ATOM      5  C   UNL     1      -0.661  -2.585   0.973  0.00  0.00    +0.107 C 
ATOM      6  N   UNL     1       0.639  -1.977   1.288  0.00  0.00    -0.312 N 
ATOM      7  C   UNL     1       0.711  -0.523   1.486  0.00  0.00    +0.075 C 
ATOM      8  C   UNL     1      -0.072  -0.138   2.743  0.00  0.00    +0.028 C 
ATOM      9  C   UNL     1       1.783  -2.765   1.399  0.00  0.00    +0.125 A 
ATOM     10  C   UNL     1       1.662  -4.148   1.433  0.00  0.00    +0.046 A 
ATOM     11  C   UNL     1       2.804  -4.925   1.542  0.00  0.00    +0.031 A 
ATOM     12  C   UNL     1       4.037  -4.287   1.614  0.00  0.00    +0.087 A 
ATOM     13  C   UNL     1       4.084  -2.895   1.573  0.00  0.00    +0.238 A 
ATOM     14  N   UNL     1       2.973  -2.186   1.464  0.00  0.00    -0.196 NA
ENDROOT
BRANCH  12  15
ATOM     15  N   UNL     1       5.220  -5.034   1.726  0.00  0.00    -0.354 N 
ATOM     16  H   UNL     1       5.180  -6.003   1.754  0.00  0.00    +0.142 HD
ATOM     17  H   UNL     1       6.076  -4.582   1.775  0.00  0.00    +0.142 HD
ENDBRANCH  12  15
BRANCH  13  18
ATOM     18  O   UNL     1       5.282  -2.260   1.643  0.00  0.00    -0.472 OA
BRANCH  18  19
ATOM     19  C   UNL     1       5.263  -0.832   1.596  0.00  0.00    +0.169 C 
ATOM     20  C   UNL     1       5.149  -0.277   3.018  0.00  0.00    +0.051 C 
ATOM     21  C   UNL     1       6.556  -0.326   0.953  0.00  0.00    +0.051 C 
ENDBRANCH  18  19
ENDBRANCH  13  18
TORSDOF 3
