REMARK  Name = ZINC01062030
REMARK  8 active torsions:
REMARK  status: ('A' for Active; 'I' for Inactive)
REMARK    1  A    between atoms: C_1  and  O_2
REMARK    2  A    between atoms: O_2  and  C_3
REMARK    3  A    between atoms: C_6  and  C_11
REMARK    4  A    between atoms: C_8  and  O_9
REMARK    5  A    between atoms: O_9  and  C_10
REMARK    6  A    between atoms: C_14  and  C_25
REMARK    7  A    between atoms: C_20  and  N_24
REMARK    8  A    between atoms: C_21  and  C_22
REMARK                            x       y       z     vdW  Elec       q    Type
REMARK                         _______ _______ _______ _____ _____    ______ ____
ROOT
ATOM      1  C   UNL     1       2.507  -2.501  -4.386  0.00  0.00    +0.102 C 
ATOM      2  C   UNL     1       1.827  -2.083  -5.664  0.00  0.00    +0.058 A 
ATOM      3  C   UNL     1       0.581  -2.448  -6.156  0.00  0.00    +0.173 A 
ATOM      4  N   UNL     1       0.402  -1.839  -7.304  0.00  0.00    -0.167 NA
ATOM      5  N   UNL     1       1.540  -1.063  -7.577  0.00  0.00    -0.246 N 
ATOM      6  H   UNL     1       1.678  -0.507  -8.360  0.00  0.00    +0.192 HD
ATOM      7  C   UNL     1       2.402  -1.226  -6.561  0.00  0.00    +0.223 A 
ATOM      8  O   UNL     1       3.632  -0.688  -6.373  0.00  0.00    -0.423 OA
ATOM      9  C   UNL     1       4.408  -1.223  -5.409  0.00  0.00    +0.200 C 
ATOM     10  C   UNL     1       3.951  -2.071  -4.459  0.00  0.00    +0.098 C 
ENDROOT
BRANCH   1  14
ATOM     11  C   UNL     1       0.606  -0.608  -1.056  0.00  0.00    +0.162 A 
ATOM     12  C   UNL     1       1.173   0.159  -2.062  0.00  0.00    +0.050 A 
ATOM     13  C   UNL     1       1.787  -0.456  -3.137  0.00  0.00    +0.008 A 
ATOM     14  C   UNL     1       1.837  -1.836  -3.212  0.00  0.00    -0.031 A 
ATOM     15  C   UNL     1       1.273  -2.606  -2.212  0.00  0.00    +0.054 A 
ATOM     16  C   UNL     1       0.662  -1.996  -1.129  0.00  0.00    +0.162 A 
BRANCH  11  18
ATOM     17  C   UNL     1      -0.017   1.425   0.010  0.00  0.00    +0.277 C 
ATOM     18  O   UNL     1       0.002  -0.004   0.002  0.00  0.00    -0.491 OA
ENDBRANCH  11  18
BRANCH  16  19
ATOM     19  O   UNL     1       0.112  -2.753  -0.142  0.00  0.00    -0.491 OA
ATOM     20  C   UNL     1       0.206  -4.171  -0.283  0.00  0.00    +0.277 C 
ENDBRANCH  16  19
ENDBRANCH   1  14
BRANCH   3  21
ATOM     21  C   UNL     1      -0.396  -3.381  -5.488  0.00  0.00    +0.436 C 
ATOM     22  F   UNL     1      -1.246  -2.647  -4.653  0.00  0.00    -0.164 F 
ATOM     23  F   UNL     1      -1.154  -4.038  -6.463  0.00  0.00    -0.164 F 
ATOM     24  F   UNL     1       0.304  -4.323  -4.728  0.00  0.00    -0.164 F 
ENDBRANCH   3  21
BRANCH   9  25
ATOM     25  N   UNL     1       5.739  -0.888  -5.389  0.00  0.00    -0.328 N 
ATOM     26  H   UNL     1       6.096  -0.281  -6.056  0.00  0.00    +0.145 HD
ATOM     27  H   UNL     1       6.322  -1.257  -4.707  0.00  0.00    +0.145 HD
ENDBRANCH   9  25
BRANCH  10  28
ATOM     28  C   UNL     1       4.872  -2.580  -3.487  0.00  0.00    +0.101 C 
ATOM     29  N   UNL     1       5.602  -2.984  -2.716  0.00  0.00    -0.191 NA
ENDBRANCH  10  28
TORSDOF 6
