REMARK  Name = ZINC13407173
REMARK  8 active torsions:
REMARK  status: ('A' for Active; 'I' for Inactive)
REMARK    1  A    between atoms: C_1  and  C_2
REMARK    2  A    between atoms: C_2  and  C_3
REMARK    3  A    between atoms: C_4  and  O_23
REMARK    4  A    between atoms: N_9  and  C1*_10
REMARK    5  A    between atoms: C2*_12  and  O2*_22
REMARK    6  A    between atoms: C3*_14  and  O3*_21
REMARK    7  A    between atoms: C4*_16  and  C5*_19
REMARK    8  A    between atoms: C5*_19  and  O5*_20
REMARK                            x       y       z     vdW  Elec       q    Type
REMARK                         _______ _______ _______ _____ _____    ______ ____
ROOT
ATOM      1  C1* UNL     1       1.427   1.647  -0.003  0.00  0.00    +0.251 C 
ATOM      2  C2* UNL     1      -0.013   1.086   0.008  0.00  0.00    +0.195 C 
ATOM      3  C3* UNL     1      -0.636   1.626  -1.299  0.00  0.00    +0.178 C 
ATOM      4  C4* UNL     1       0.501   2.449  -1.944  0.00  0.00    +0.177 C 
ATOM      5  O4* UNL     1       1.359   2.819  -0.844  0.00  0.00    -0.346 OA
ENDROOT
BRANCH   1  12
ATOM      6  C   UNL     1       2.357   1.061   2.172  0.00  0.00    +0.066 A 
ATOM      7  C   UNL     1       2.753   1.372   3.429  0.00  0.00    +0.183 A 
ATOM      8  C   UNL     1       2.612   2.707   3.888  0.00  0.00    +0.223 A 
ATOM      9  O   UNL     1       2.957   3.018   5.019  0.00  0.00    -0.284 OA
ATOM     10  C   UNL     1       2.067   3.670   3.010  0.00  0.00    +0.072 A 
ATOM     11  C   UNL     1       1.695   3.297   1.765  0.00  0.00    +0.092 A 
ATOM     12  N   UNL     1       1.841   2.015   1.353  0.00  0.00    -0.319 N 
BRANCH   6  14
ATOM     13  C   UNL     1       3.867  -0.534   1.021  0.00  0.00    +0.010 C 
ATOM     14  C   UNL     1       2.495  -0.355   1.675  0.00  0.00    +0.054 C 
ENDBRANCH   6  14
BRANCH   7  15
ATOM     15  O   UNL     1       3.274   0.415   4.244  0.00  0.00    -0.502 OA
ATOM     16  H   UNL     1       2.615  -0.049   4.778  0.00  0.00    +0.292 HD
ENDBRANCH   7  15
ENDBRANCH   1  12
BRANCH   3  17
ATOM     17  O3* UNL     1      -1.020   0.547  -2.153  0.00  0.00    -0.386 OA
ATOM     18  H3* UNL     1      -1.418   0.830  -2.988  0.00  0.00    +0.210 HD
ENDBRANCH   3  17
BRANCH   2  19
ATOM     19  O2* UNL     1      -0.730   1.569   1.145  0.00  0.00    -0.385 OA
ATOM     20  H2* UNL     1      -1.649   1.272   1.187  0.00  0.00    +0.210 HD
ENDBRANCH   2  19
BRANCH   4  21
ATOM     21  C5* UNL     1      -0.063   3.699  -2.623  0.00  0.00    +0.190 C 
BRANCH  21  22
ATOM     22  O5* UNL     1       0.999   4.421  -3.250  0.00  0.00    -0.392 OA
ATOM     23  H5* UNL     1       0.714   5.228  -3.701  0.00  0.00    +0.210 HD
ENDBRANCH  21  22
ENDBRANCH   4  21
TORSDOF 7
