REMARK  Name = ZINC67406972
REMARK  10 active torsions:
REMARK  status: ('A' for Active; 'I' for Inactive)
REMARK    1  A    between atoms: C_1  and  C_2
REMARK    2  A    between atoms: C_5  and  N_9
REMARK    3  A    between atoms: C_10  and  C_12
REMARK    4  A    between atoms: C_12  and  C_13
REMARK    5  A    between atoms: C_13  and  N_14
REMARK    6  A    between atoms: N_17  and  C_18
REMARK    7  A    between atoms: C_18  and  C_19
REMARK    8  A    between atoms: C_19  and  C_21
REMARK    9  A    between atoms: C_19  and  C_22
REMARK   10  A    between atoms: C_22  and  N_23
REMARK                            x       y       z     vdW  Elec       q    Type
REMARK                         _______ _______ _______ _____ _____    ______ ____
ROOT
ATOM      1  N   UNL     1      -0.704  -8.327  -2.593  0.00  0.00    -0.299 N 
ATOM      2  C   UNL     1      -0.697  -8.990  -3.766  0.00  0.00    +0.300 C 
ATOM      3  O   UNL     1      -0.644  -8.373  -4.813  0.00  0.00    -0.253 OA
ATOM      4  N   UNL     1      -0.750 -10.336  -3.780  0.00  0.00    -0.299 N 
ATOM      5  H   UNL     1      -0.746  -8.819  -1.758  0.00  0.00    +0.150 HD
ATOM      6  H   UNL     1      -0.792 -10.828  -2.945  0.00  0.00    +0.150 HD
ENDROOT
BRANCH   1   7
ATOM      7  C   UNL     1      -0.646  -6.863  -2.579  0.00  0.00    +0.115 C 
BRANCH   7   8
ATOM      8  C   UNL     1      -0.666  -6.366  -1.132  0.00  0.00    +0.115 C 
BRANCH   8  10
ATOM      9  N   UNL     1      -0.613  -4.197   0.056  0.00  0.00    -0.284 N 
ATOM     10  C   UNL     1      -0.607  -4.860  -1.117  0.00  0.00    +0.219 C 
ATOM     11  O   UNL     1      -0.554  -4.245  -2.161  0.00  0.00    -0.275 OA
ATOM     12  H   UNL     1      -0.577  -4.689   0.891  0.00  0.00    +0.155 HD
BRANCH   9  17
ATOM     13  C   UNL     1      -0.854   1.472   0.109  0.00  0.00    +0.044 C 
ATOM     14  C   UNL     1      -0.789  -0.033   0.096  0.00  0.00    -0.049 A 
ATOM     15  C   UNL     1      -1.276  -0.735  -0.993  0.00  0.00    +0.005 A 
ATOM     16  C   UNL     1      -1.219  -2.115  -1.008  0.00  0.00    +0.025 A 
ATOM     17  C   UNL     1      -0.672  -2.798   0.069  0.00  0.00    +0.052 A 
ATOM     18  C   UNL     1      -0.184  -2.091   1.161  0.00  0.00    +0.062 A 
ATOM     19  C   UNL     1      -0.239  -0.710   1.168  0.00  0.00    +0.025 A 
ATOM     20 CL   UNL     1       0.501  -2.941   2.511  0.00  0.00    -0.082 Cl
ENDBRANCH   9  17
ENDBRANCH   8  10
ENDBRANCH   7   8
ENDBRANCH   1   7
BRANCH   4  21
ATOM     21  C   UNL     1      -0.744 -11.057  -5.055  0.00  0.00    +0.107 C 
BRANCH  21  22
ATOM     22  C   UNL     1      -0.810 -12.563  -4.790  0.00  0.00    -0.014 C 
ATOM     23  C   UNL     1       0.461 -13.010  -4.066  0.00  0.00    +0.007 C 
BRANCH  22  24
ATOM     24  C   UNL     1      -0.929 -13.310  -6.120  0.00  0.00    -0.074 C 
BRANCH  24  25
ATOM     25  N   UNL     1      -1.031 -14.753  -5.864  0.00  0.00    +0.380 N 
ATOM     26  C   UNL     1      -0.997 -15.478  -7.139  0.00  0.00    -0.079 C 
ATOM     27  C   UNL     1      -1.021 -16.985  -6.874  0.00  0.00    -0.019 C 
ATOM     28  C   UNL     1      -2.302 -17.344  -6.115  0.00  0.00    -0.004 C 
ATOM     29  C   UNL     1      -2.363 -16.526  -4.822  0.00  0.00    -0.019 C 
ATOM     30  C   UNL     1      -2.289 -15.036  -5.163  0.00  0.00    -0.079 C 
ATOM     31  H   UNL     1      -0.254 -15.047  -5.291  0.00  0.00    -0.082 HD
ENDBRANCH  24  25
ENDBRANCH  22  24
ENDBRANCH  21  22
ENDBRANCH   4  21
TORSDOF 8
