REMARK  Name = ZINC39630814
REMARK  11 active torsions:
REMARK  status: ('A' for Active; 'I' for Inactive)
REMARK    1  A    between atoms: C_1  and  C_2
REMARK    2  A    between atoms: C_5  and  C_10
REMARK    3  A    between atoms: C_14  and  C_23
REMARK    4  A    between atoms: N_25  and  C_26
REMARK    5  A    between atoms: C_26  and  C_27
REMARK    6  A    between atoms: C_27  and  C_28
REMARK    7  A    between atoms: C_27  and  C_29
REMARK    8  A    between atoms: C_27  and  C_30
REMARK    9  A    between atoms: C_30  and  N_31
REMARK   10  A    between atoms: N_31  and  C_32
REMARK   11  A    between atoms: N_31  and  C_33
REMARK                            x       y       z     vdW  Elec       q    Type
REMARK                         _______ _______ _______ _____ _____    ______ ____
ROOT
ATOM      1  C   UNL     1       0.068  -6.063  -0.171  0.00  0.00    +0.250 C 
ATOM      2  O   UNL     1       0.307  -6.647   0.868  0.00  0.00    -0.270 OA
ATOM      3  N   UNL     1       0.202  -6.703  -1.350  0.00  0.00    -0.296 N 
ATOM      4  C   UNL     1       0.071  -6.133  -2.712  0.00  0.00    +0.121 C 
ATOM      5  C   UNL     1       1.187  -6.821  -3.531  0.00  0.00    +0.100 C 
ATOM      6  C   UNL     1       1.471  -8.134  -2.782  0.00  0.00    -0.004 C 
ATOM      7  C   UNL     1       0.519  -8.133  -1.577  0.00  0.00    +0.115 C 
ATOM      8  C   UNL     1       1.182  -9.330  -3.684  0.00  0.00    -0.010 C 
ATOM      9  C   UNL     1       1.527 -10.622  -2.938  0.00  0.00    -0.082 C 
ATOM     10  N   UNL     1       2.943 -10.604  -2.554  0.00  0.00    +0.379 N 
ATOM     11  C   UNL     1       3.193  -9.506  -1.613  0.00  0.00    -0.082 C 
ATOM     12  C   UNL     1       2.919  -8.167  -2.303  0.00  0.00    -0.010 C 
ATOM     13  H   UNL     1       3.183 -11.481  -2.116  0.00  0.00    -0.086 HD
ATOM     14  H   UNL     1       3.512 -10.476  -3.377  0.00  0.00    -0.086 HD
ENDROOT
BRANCH   1  19
ATOM     15  C   UNL     1      -1.646  -0.569  -0.062  0.00  0.00    +0.047 C 
ATOM     16  C   UNL     1      -1.196  -2.007  -0.088  0.00  0.00    -0.012 A 
ATOM     17  C   UNL     1      -1.560  -2.823  -1.146  0.00  0.00    +0.007 A 
ATOM     18  C   UNL     1      -1.153  -4.140  -1.178  0.00  0.00    +0.016 A 
ATOM     19  C   UNL     1      -0.370  -4.653  -0.142  0.00  0.00    +0.075 A 
ATOM     20  C   UNL     1      -0.004  -3.826   0.924  0.00  0.00    +0.171 A 
ATOM     21  C   UNL     1      -0.416  -2.503   0.941  0.00  0.00    +0.162 A 
ATOM     22  F   UNL     1      -0.060  -1.699   1.966  0.00  0.00    -0.202 F 
ATOM     23  F   UNL     1       0.752  -4.314   1.931  0.00  0.00    -0.202 F 
ENDBRANCH   1  19
BRANCH   5  24
ATOM     24  C   UNL     1       2.421  -5.957  -3.565  0.00  0.00    +0.218 C 
ATOM     25  O   UNL     1       2.716  -5.282  -2.601  0.00  0.00    -0.275 OA
ATOM     26  N   UNL     1       3.197  -5.933  -4.667  0.00  0.00    -0.315 N 
ATOM     27  H   UNL     1       2.962  -6.473  -5.437  0.00  0.00    +0.149 HD
BRANCH  26  28
ATOM     28  C   UNL     1       4.397  -5.093  -4.700  0.00  0.00    +0.108 C 
BRANCH  28  29
ATOM     29  C   UNL     1       5.092  -5.250  -6.054  0.00  0.00    -0.034 C 
ATOM     30  C   UNL     1       5.489  -6.713  -6.257  0.00  0.00    +0.010 C 
ATOM     31  C   UNL     1       4.137  -4.821  -7.170  0.00  0.00    +0.010 C 
BRANCH  29  32
ATOM     32  C   UNL     1       6.345  -4.372  -6.089  0.00  0.00    -0.072 C 
BRANCH  32  33
ATOM     33  N   UNL     1       6.996  -4.501  -7.399  0.00  0.00    +0.376 N 
ATOM     34  C   UNL     1       6.393  -3.550  -8.342  0.00  0.00    -0.097 C 
ATOM     35  C   UNL     1       8.430  -4.212  -7.263  0.00  0.00    -0.097 C 
ATOM     36  H   UNL     1       6.874  -5.441  -7.745  0.00  0.00    -0.083 HD
ENDBRANCH  32  33
ENDBRANCH  29  32
ENDBRANCH  28  29
ENDBRANCH  26  28
ENDBRANCH   5  24
TORSDOF 6
