REMARK  Name = ZINC10765951
REMARK  6 active torsions:
REMARK  status: ('A' for Active; 'I' for Inactive)
REMARK    1  A    between atoms: C_3  and  C_11
REMARK    2  A    between atoms: C_4  and  N_8
REMARK    3  A    between atoms: N_13  and  C_14
REMARK    4  A    between atoms: C_14  and  C_15
REMARK    5  A    between atoms: C_18  and  S_20
REMARK    6  A    between atoms: S_20  and  N_23
REMARK                            x       y       z     vdW  Elec       q    Type
REMARK                         _______ _______ _______ _____ _____    ______ ____
ROOT
ATOM      1  C   UNL     1       1.811   3.459   0.032  0.00  0.00    +0.147 C 
ENDROOT
BRANCH   1   2
ATOM      2  C   UNL     1       1.695   1.956   0.039  0.00  0.00    +0.009 A 
ATOM      3  C   UNL     1       0.580   1.186   0.009  0.00  0.00    +0.015 A 
ATOM      4  C   UNL     1       0.714  -0.189   0.022  0.00  0.00    +0.037 A 
ATOM      5  C   UNL     1       1.957  -0.728   0.065  0.00  0.00    +0.143 A 
ATOM      6  S   UNL     1       2.990   0.728   0.088  0.00  0.00    -0.072 S 
BRANCH   5   7
ATOM      7  S   UNL     1       2.431  -2.425   0.092  0.00  0.00    +0.067 S 
ATOM      8  O   UNL     1       3.722  -2.476   0.684  0.00  0.00    -0.152 OA
ATOM      9  O   UNL     1       1.325  -3.147   0.613  0.00  0.00    -0.152 OA
BRANCH   7  10
ATOM     10  N   UNL     1       2.613  -2.907  -1.482  0.00  0.00    -0.176 NA
ATOM     11  C   UNL     1       1.479  -3.472  -2.227  0.00  0.00    +0.109 C 
ATOM     12  C   UNL     1       1.311  -2.681  -3.533  0.00  0.00    +0.017 C 
ATOM     13  C   UNL     1       2.634  -2.688  -4.302  0.00  0.00    +0.003 C 
ATOM     14  C   UNL     1       3.717  -2.007  -3.462  0.00  0.00    +0.017 C 
ATOM     15  C   UNL     1       3.912  -2.785  -2.157  0.00  0.00    +0.109 C 
ENDBRANCH   7  10
ENDBRANCH   5   7
ENDBRANCH   1   2
BRANCH   1  18
ATOM     16  C   UNL     1       1.899   5.278   1.650  0.00  0.00    +0.247 C 
ATOM     17  O   UNL     1       1.990   6.059   0.723  0.00  0.00    -0.270 OA
ATOM     18  N   UNL     1       1.805   3.955   1.410  0.00  0.00    -0.307 N 
ATOM     19  H   UNL     1       1.733   3.332   2.150  0.00  0.00    +0.149 HD
BRANCH  16  22
ATOM     20  C   UNL     1       1.650   5.376   5.395  0.00  0.00    +0.021 A 
ATOM     21  C   UNL     1       1.654   4.902   4.100  0.00  0.00    +0.017 A 
ATOM     22  C   UNL     1       1.893   5.779   3.040  0.00  0.00    +0.067 A 
ATOM     23  C   UNL     1       2.132   7.130   3.300  0.00  0.00    +0.140 A 
ATOM     24  C   UNL     1       2.120   7.593   4.598  0.00  0.00    +0.053 A 
ATOM     25  C   UNL     1       1.883   6.718   5.646  0.00  0.00    +0.043 A 
ATOM     26 CL   UNL     1       1.877   7.306   7.279  0.00  0.00    -0.083 Cl
BRANCH  23  27
ATOM     27  N   UNL     1       2.392   8.065   2.182  0.00  0.00    +0.057 N 
ATOM     28  O   UNL     1       3.235   7.795   1.345  0.00  0.00    -0.126 OA
ATOM     29  O   UNL     1       1.763   9.105   2.099  0.00  0.00    -0.126 OA
ENDBRANCH  23  27
ENDBRANCH  16  22
ENDBRANCH   1  18
TORSDOF 6
