REMARK  Name = ZINC40825807
REMARK  8 active torsions:
REMARK  status: ('A' for Active; 'I' for Inactive)
REMARK    1  A    between atoms: C_1  and  C_2
REMARK    2  A    between atoms: C_6  and  C_7
REMARK    3  A    between atoms: N_9  and  C_10
REMARK    4  A    between atoms: C_13  and  C_16
REMARK    5  A    between atoms: C_16  and  C_17
REMARK    6  A    between atoms: C_16  and  C_18
REMARK    7  A    between atoms: N_23  and  N_24
REMARK    8  A    between atoms: C_25  and  C_27
REMARK                            x       y       z     vdW  Elec       q    Type
REMARK                         _______ _______ _______ _____ _____    ______ ____
ROOT
ATOM      1  C   UNL     1      -0.014   1.502   0.010  0.00  0.00    +0.048 C 
ATOM      2  C   UNL     1      -0.004  -0.005   0.002  0.00  0.00    +0.009 A 
ATOM      3  C   UNL     1      -0.007  -0.839  -1.123  0.00  0.00    +0.042 A 
ATOM      4  C   UNL     1       0.005  -2.139  -0.672  0.00  0.00    +0.115 A 
ATOM      5  O   UNL     1       0.019  -2.112   0.658  0.00  0.00    -0.454 OA
ATOM      6  C   UNL     1       0.018  -0.831   1.091  0.00  0.00    +0.193 A 
ATOM      7  C   UNL     1       0.000  -3.328  -1.598  0.00  0.00    +0.075 C 
ATOM      8  C   UNL     1      -0.527  -2.901  -2.971  0.00  0.00    +0.014 C 
ATOM      9  C   UNL     1       0.249  -1.688  -3.495  0.00  0.00    +0.058 C 
ATOM     10  C   UNL     1      -0.019  -0.514  -2.566  0.00  0.00    +0.070 C 
ATOM     11  N   UNL     1      -0.241   0.687  -3.007  0.00  0.00    -0.184 NA
ENDROOT
BRANCH   6  12
ATOM     12  C   UNL     1       0.033  -0.400   2.493  0.00  0.00    +0.284 C 
ATOM     13  O   UNL     1       0.027   0.786   2.765  0.00  0.00    -0.266 OA
ATOM     14  N   UNL     1       0.053  -1.317   3.480  0.00  0.00    -0.279 N 
ATOM     15  H   UNL     1      -0.010  -2.261   3.266  0.00  0.00    +0.155 HD
BRANCH  14  16
ATOM     16  C   UNL     1       0.165  -0.909   4.812  0.00  0.00    +0.034 A 
ATOM     17  C   UNL     1       0.886  -1.677   5.718  0.00  0.00    +0.023 A 
ATOM     18  C   UNL     1       0.995  -1.270   7.033  0.00  0.00    +0.006 A 
ATOM     19  C   UNL     1       0.388  -0.100   7.449  0.00  0.00    -0.045 A 
ATOM     20  C   UNL     1      -0.331   0.667   6.550  0.00  0.00    +0.006 A 
ATOM     21  C   UNL     1      -0.439   0.269   5.232  0.00  0.00    +0.023 A 
BRANCH  19  22
ATOM     22  C   UNL     1       0.508   0.341   8.885  0.00  0.00    +0.013 C 
ATOM     23  C   UNL     1       1.186   1.711   8.943  0.00  0.00    +0.012 C 
ATOM     24  C   UNL     1      -0.886   0.435   9.509  0.00  0.00    +0.012 C 
ENDBRANCH  19  22
ENDBRANCH  14  16
ENDBRANCH   6  12
BRANCH  11  25
ATOM     25  N   UNL     1      -0.241   0.938  -4.385  0.00  0.00    -0.201 N 
ATOM     26  C   UNL     1      -0.471   2.184  -4.843  0.00  0.00    +0.282 C 
ATOM     27  O   UNL     1      -0.680   3.090  -4.061  0.00  0.00    -0.267 OA
ATOM     28  H   UNL     1      -0.074   0.214  -5.010  0.00  0.00    +0.178 HD
BRANCH  26  29
ATOM     29  C   UNL     1      -0.471   2.449  -6.301  0.00  0.00    +0.128 A 
ATOM     30  C   UNL     1      -0.707   3.754  -6.761  0.00  0.00    +0.034 A 
ATOM     31  C   UNL     1      -0.709   4.012  -8.101  0.00  0.00    +0.012 A 
ATOM     32  C   UNL     1      -0.471   2.943  -8.985  0.00  0.00    +0.000 A 
ATOM     33  C   UNL     1      -0.458   3.136 -10.376  0.00  0.00    +0.010 A 
ATOM     34  C   UNL     1      -0.223   2.079 -11.201  0.00  0.00    +0.001 A 
ATOM     35  C   UNL     1       0.005   0.804 -10.684  0.00  0.00    +0.002 A 
ATOM     36  C   UNL     1       0.000   0.579  -9.343  0.00  0.00    +0.028 A 
ATOM     37  C   UNL     1      -0.238   1.646  -8.456  0.00  0.00    +0.072 A 
ATOM     38  N   UNL     1      -0.243   1.455  -7.137  0.00  0.00    -0.242 NA
ENDBRANCH  26  29
ENDBRANCH  11  25
TORSDOF 5
