REMARK  Name = ZINC32528060
REMARK  7 active torsions:
REMARK  status: ('A' for Active; 'I' for Inactive)
REMARK    1  A    between atoms: C_1  and  C_2
REMARK    2  A    between atoms: C_2  and  C_3
REMARK    3  A    between atoms: C_3  and  C_5
REMARK    4  A    between atoms: C_3  and  S_15
REMARK    5  A    between atoms: N_7  and  C_8
REMARK    6  A    between atoms: C_11  and  O_14
REMARK    7  A    between atoms: S_15  and  C_16
REMARK                            x       y       z     vdW  Elec       q    Type
REMARK                         _______ _______ _______ _____ _____    ______ ____
ROOT
ATOM      1  C   UNL     1      -2.586   0.613  -0.012  0.00  0.00    +0.138 C 
ENDROOT
BRANCH   1   2
ATOM      2  C   UNL     1      -3.983   0.049  -0.045  0.00  0.00    +0.231 C 
ATOM      3  O   UNL     1      -4.205  -1.048   0.422  0.00  0.00    -0.274 OA
ATOM      4  N   UNL     1      -4.985   0.763  -0.595  0.00  0.00    -0.285 N 
ATOM      5  H   UNL     1      -4.769   1.719  -1.095  0.00  0.00    +0.155 HD
BRANCH   4   6
ATOM      6  C   UNL     1      -6.301   0.289  -0.529  0.00  0.00    +0.034 A 
ATOM      7  C   UNL     1      -7.180   0.530  -1.577  0.00  0.00    +0.027 A 
ATOM      8  C   UNL     1      -8.476   0.057  -1.514  0.00  0.00    +0.047 A 
ATOM      9  C   UNL     1      -8.903  -0.648  -0.399  0.00  0.00    +0.117 A 
ATOM     10  C   UNL     1      -8.028  -0.885   0.651  0.00  0.00    +0.047 A 
ATOM     11  C   UNL     1      -6.730  -0.418   0.587  0.00  0.00    +0.027 A 
BRANCH   9  12
ATOM     12  O   UNL     1     -10.181  -1.109  -0.335  0.00  0.00    -0.507 OA
ATOM     13  H   UNL     1     -10.521  -1.668   0.549  0.00  0.00    +0.292 HD
ENDBRANCH   9  12
ENDBRANCH   4   6
ENDBRANCH   1   2
BRANCH   1  15
ATOM     14  C   UNL     1      -1.058   2.191   1.179  0.00  0.00    +0.005 C 
ATOM     15  C   UNL     1      -2.426   1.507   1.219  0.00  0.00    +0.020 C 
ENDBRANCH   1  15
BRANCH   1  16
ATOM     16  S   UNL     1      -1.389  -0.743   0.069  0.00  0.00    -0.093 S 
BRANCH  16  17
ATOM     17  C   UNL     1      -1.579  -1.415  -1.549  0.00  0.00    +0.098 A 
ATOM     18  C   UNL     1      -0.735  -2.458  -1.961  0.00  0.00    +0.035 A 
ATOM     19  C   UNL     1      -0.870  -2.986  -3.209  0.00  0.00    +0.012 A 
ATOM     20  C   UNL     1      -1.868  -2.458  -4.054  0.00  0.00    +0.000 A 
ATOM     21  C   UNL     1      -2.061  -2.956  -5.352  0.00  0.00    +0.010 A 
ATOM     22  C   UNL     1      -3.034  -2.422  -6.141  0.00  0.00    +0.001 A 
ATOM     23  C   UNL     1      -3.842  -1.387  -5.677  0.00  0.00    +0.002 A 
ATOM     24  C   UNL     1      -3.682  -0.880  -4.424  0.00  0.00    +0.028 A 
ATOM     25  C   UNL     1      -2.688  -1.405  -3.580  0.00  0.00    +0.072 A 
ATOM     26  N   UNL     1      -2.509  -0.925  -2.344  0.00  0.00    -0.240 NA
ENDBRANCH  16  17
ENDBRANCH   1  16
TORSDOF 6
