REMARK  Name = ZINC20149201
REMARK  5 active torsions:
REMARK  status: ('A' for Active; 'I' for Inactive)
REMARK    1  A    between atoms: C_2  and  C_8
REMARK    2  A    between atoms: C_8  and  N_9
REMARK    3  A    between atoms: C_13  and  N_16
REMARK    4  A    between atoms: C_19  and  C_22
REMARK    5  A    between atoms: C_22  and  O_23
REMARK                            x       y       z     vdW  Elec       q    Type
REMARK                         _______ _______ _______ _____ _____    ______ ____
ROOT
ATOM      1  N   UNL     1       0.126   1.456   4.861  0.00  0.00    -0.300 NA
ATOM      2  C   UNL     1       0.137   0.001   5.056  0.00  0.00    +0.084 C 
ATOM      3  C   UNL     1       0.839  -0.669   3.872  0.00  0.00    +0.014 C 
ATOM      4  C   UNL     1       0.099  -0.314   2.579  0.00  0.00    -0.013 C 
ATOM      5  C   UNL     1       0.059   1.209   2.425  0.00  0.00    -0.054 C 
ATOM      6  C   UNL     1      -0.620   1.824   3.651  0.00  0.00    +0.069 C 
ENDROOT
BRANCH   5   7
ATOM      7  N   UNL     1      -0.700   1.559   1.216  0.00  0.00    +0.382 N 
ATOM      8  C   UNL     1      -0.013   1.086   0.008  0.00  0.00    -0.078 C 
ATOM      9  C   UNL     1      -0.752   1.593  -1.232  0.00  0.00    -0.013 C 
ATOM     10  C   UNL     1      -2.194   1.077  -1.207  0.00  0.00    +0.011 C 
ATOM     11  C   UNL     1      -2.872   1.544   0.085  0.00  0.00    -0.013 C 
ATOM     12  C   UNL     1      -2.071   1.038   1.287  0.00  0.00    -0.078 C 
ATOM     13  H   UNL     1      -0.760   2.656   1.159  0.00  0.00    -0.081 HD
BRANCH  10  14
ATOM     14  C   UNL     1      -2.956   1.630  -2.413  0.00  0.00    +0.159 C 
BRANCH  14  15
ATOM     15  O   UNL     1      -4.265   1.058  -2.453  0.00  0.00    -0.395 OA
ATOM     16  H   UNL     1      -4.963   1.337  -3.255  0.00  0.00    +0.209 HD
ENDBRANCH  14  15
ENDBRANCH  10  14
ENDBRANCH   5   7
BRANCH   1  17
ATOM     17  C   UNL     1      -0.416   2.141   6.042  0.00  0.00    +0.122 C 
BRANCH  17  19
ATOM     18  C   UNL     1       1.373   2.092   7.809  0.00  0.00    +0.120 A 
ATOM     19  C   UNL     1       0.204   1.562   7.287  0.00  0.00    +0.003 A 
ATOM     20  C   UNL     1      -0.387   0.490   7.939  0.00  0.00    +0.120 A 
ATOM     21  N   UNL     1       0.185   0.002   9.027  0.00  0.00    -0.223 NA
ATOM     22  C   UNL     1       1.304   0.532   9.500  0.00  0.00    +0.212 A 
ATOM     23  N   UNL     1       1.890   1.560   8.904  0.00  0.00    -0.223 NA
ATOM     24  N   UNL     1       1.872   0.000  10.644  0.00  0.00    -0.327 N 
ATOM     25  H   UNL     1       2.801   0.430  11.048  0.00  0.00    +0.145 HD
ATOM     26  H   UNL     1       1.396  -0.853  11.150  0.00  0.00    +0.145 HD
ENDBRANCH  17  19
ENDBRANCH   1  17
TORSDOF 5
