REMARK  Name = ZINC57789204
REMARK  5 active torsions:
REMARK  status: ('A' for Active; 'I' for Inactive)
REMARK    1  A    between atoms: C_1  and  C_2
REMARK    2  A    between atoms: C_2  and  C_4
REMARK    3  A    between atoms: C_2  and  N_6
REMARK    4  A    between atoms: C_4  and  N_5
REMARK    5  A    between atoms: C_14  and  C_18
REMARK                            x       y       z     vdW  Elec       q    Type
REMARK                         _______ _______ _______ _____ _____    ______ ____
ROOT
ATOM      1  N   UNL     1      -1.372  -0.511   0.012  0.00  0.00    -0.264 N 
ATOM      2  C   UNL     1      -1.839  -1.323  -1.031  0.00  0.00    +0.080 A 
ATOM      3  C   UNL     1      -0.954  -1.922  -1.912  0.00  0.00    +0.047 A 
ATOM      4  C   UNL     1      -1.436  -2.719  -2.936  0.00  0.00    +0.043 A 
ATOM      5  C   UNL     1      -2.797  -2.917  -3.081  0.00  0.00    +0.024 A 
ATOM      6  C   UNL     1      -3.686  -2.322  -2.203  0.00  0.00    +0.049 A 
ATOM      7  C   UNL     1      -3.211  -1.525  -1.176  0.00  0.00    +0.143 A 
ATOM      8  O   UNL     1      -4.070  -0.934  -0.303  0.00  0.00    -0.473 OA
ATOM      9  C   UNL     1      -3.608  -0.766   1.040  0.00  0.00    +0.289 C 
ATOM     10  C   UNL     1      -2.208  -0.208   1.030  0.00  0.00    +0.265 C 
ATOM     11  O   UNL     1      -1.833   0.514   1.930  0.00  0.00    -0.271 OA
ATOM     12 CL   UNL     1      -0.329  -3.470  -4.042  0.00  0.00    -0.083 Cl
ENDROOT
BRANCH   9  13
ATOM     13  C   UNL     1      -3.605  -2.100   1.740  0.00  0.00    +0.002 A 
ATOM     14  C   UNL     1      -3.189  -3.233   1.066  0.00  0.00    +0.008 A 
ATOM     15  C   UNL     1      -3.187  -4.457   1.708  0.00  0.00    +0.000 A 
ATOM     16  C   UNL     1      -3.599  -4.548   3.025  0.00  0.00    +0.000 A 
ATOM     17  C   UNL     1      -4.015  -3.415   3.699  0.00  0.00    +0.000 A 
ATOM     18  C   UNL     1      -4.013  -2.190   3.058  0.00  0.00    +0.008 A 
ENDBRANCH   9  13
BRANCH   1  20
ATOM     19  C   UNL     1      -0.019   1.526   0.010  0.00  0.00    +0.026 C 
ATOM     20  C   UNL     1       0.002  -0.004   0.002  0.00  0.00    +0.061 C 
BRANCH  20  21
ATOM     21  C   UNL     1       0.742  -0.511   1.242  0.00  0.00    -0.064 C 
BRANCH  21  22
ATOM     22  N   UNL     1       0.659  -1.976   1.296  0.00  0.00    +0.379 N 
ATOM     23  H   UNL     1       1.082  -2.369   0.468  0.00  0.00    -0.090 HD
ATOM     24  H   UNL     1       1.147  -2.311   2.114  0.00  0.00    -0.090 HD
ATOM     25  H   UNL     1      -0.309  -2.257   1.345  0.00  0.00    -0.090 HD
ENDBRANCH  21  22
ENDBRANCH  20  21
ENDBRANCH   1  20
TORSDOF 4
