REMARK  Name = ZINC60372752
REMARK  12 active torsions:
REMARK  status: ('A' for Active; 'I' for Inactive)
REMARK    1  A    between atoms: C_1  and  C_2
REMARK    2  A    between atoms: C_2  and  C_4
REMARK    3  A    between atoms: C_7  and  O_10
REMARK    4  A    between atoms: O_10  and  C_11
REMARK    5  A    between atoms: C_11  and  C_12
REMARK    6  A    between atoms: C_12  and  C_13
REMARK    7  A    between atoms: C_13  and  O_15
REMARK    8  A    between atoms: O_15  and  C_16
REMARK    9  A    between atoms: C_16  and  C_17
REMARK   10  A    between atoms: N_19  and  C_20
REMARK   11  A    between atoms: C_21  and  C_31
REMARK   12  A    between atoms: N_24  and  C_25
REMARK                            x       y       z     vdW  Elec       q    Type
REMARK                         _______ _______ _______ _____ _____    ______ ____
ROOT
ATOM      1  C   UNL     1      -1.398  -9.407  -8.484  0.00  0.00    +0.256 C 
ATOM      2  O   UNL     1      -2.189  -9.192  -9.377  0.00  0.00    -0.272 OA
ATOM      3  N   UNL     1      -0.363 -10.246  -8.689  0.00  0.00    -0.266 N 
ATOM      4  H   UNL     1       0.303 -10.373  -7.995  0.00  0.00    +0.156 HD
ENDROOT
BRANCH   3   5
ATOM      5  C   UNL     1      -0.251 -10.929  -9.890  0.00  0.00    +0.146 A 
ATOM      6  C   UNL     1       0.268 -10.428 -11.079  0.00  0.00    +0.111 A 
ATOM      7  C   UNL     1       0.186 -11.465 -12.037  0.00  0.00    +0.155 A 
ATOM      8  N   UNL     1      -0.343 -12.510 -11.463  0.00  0.00    -0.172 NA
ATOM      9  N   UNL     1      -0.620 -12.208 -10.125  0.00  0.00    -0.217 N 
BRANCH   9  10
ATOM     10  C   UNL     1      -1.187 -13.082  -9.188  0.00  0.00    +0.067 A 
ATOM     11  C   UNL     1      -0.718 -13.101  -7.882  0.00  0.00    +0.028 A 
ATOM     12  C   UNL     1      -1.279 -13.964  -6.960  0.00  0.00    +0.002 A 
ATOM     13  C   UNL     1      -2.308 -14.808  -7.338  0.00  0.00    +0.000 A 
ATOM     14  C   UNL     1      -2.777 -14.791  -8.639  0.00  0.00    +0.002 A 
ATOM     15  C   UNL     1      -2.223 -13.927  -9.563  0.00  0.00    +0.028 A 
ENDBRANCH   9  10
BRANCH   6  16
ATOM     16  C   UNL     1       0.787  -9.110 -11.294  0.00  0.00    +0.104 C 
ATOM     17  N   UNL     1       1.198  -8.065 -11.464  0.00  0.00    -0.191 NA
ENDBRANCH   6  16
ENDBRANCH   3   5
BRANCH   1  18
ATOM     18  C   UNL     1      -1.571  -8.736  -7.146  0.00  0.00    +0.328 C 
BRANCH  18  19
ATOM     19  O   UNL     1      -2.730  -7.902  -7.178  0.00  0.00    -0.455 OA
BRANCH  19  20
ATOM     20  C   UNL     1      -3.027  -7.228  -6.056  0.00  0.00    +0.311 C 
ATOM     21  O   UNL     1      -2.326  -7.343  -5.079  0.00  0.00    -0.251 OA
BRANCH  20  22
ATOM     22  C   UNL     1      -4.235  -6.328  -6.014  0.00  0.00    +0.161 C 
BRANCH  22  23
ATOM     23  C   UNL     1      -4.345  -5.684  -4.631  0.00  0.00    +0.240 C 
BRANCH  23  24
ATOM     24  O   UNL     1      -5.490  -4.831  -4.591  0.00  0.00    -0.491 OA
BRANCH  24  28
ATOM     25  C   UNL     1      -6.229  -2.851  -1.051  0.00  0.00    +0.017 A 
ATOM     26  C   UNL     1      -7.083  -2.673  -2.147  0.00  0.00    +0.015 A 
ATOM     27  C   UNL     1      -6.832  -3.333  -3.322  0.00  0.00    +0.046 A 
ATOM     28  C   UNL     1      -5.733  -4.179  -3.427  0.00  0.00    +0.121 A 
ATOM     29  C   UNL     1      -4.883  -4.360  -2.341  0.00  0.00    +0.046 A 
ATOM     30  C   UNL     1      -5.121  -3.699  -1.164  0.00  0.00    +0.015 A 
BRANCH  25  32
ATOM     31  C   UNL     1      -7.686  -1.233   0.328  0.00  0.00    +0.091 C 
ATOM     32  C   UNL     1      -6.492  -2.145   0.210  0.00  0.00    +0.160 C 
ATOM     33  O   UNL     1      -5.749  -2.297   1.156  0.00  0.00    -0.292 OA
ENDBRANCH  25  32
ENDBRANCH  24  28
ENDBRANCH  23  24
ENDBRANCH  22  23
ENDBRANCH  20  22
ENDBRANCH  19  20
ENDBRANCH  18  19
ENDBRANCH   1  18
TORSDOF 11
