REMARK  Name = ZINC39980412
REMARK  3 active torsions:
REMARK  status: ('A' for Active; 'I' for Inactive)
REMARK    1  A    between atoms: C_8  and  C_13
REMARK    2  A    between atoms: N_17  and  N_18
REMARK    3  A    between atoms: C_19  and  C_20
REMARK                            x       y       z     vdW  Elec       q    Type
REMARK                         _______ _______ _______ _____ _____    ______ ____
ROOT
ATOM      1  C   UNL     1       2.593  -2.604  -2.002  0.00  0.00    +0.039 A 
ATOM      2  C   UNL     1       2.734  -3.689  -2.768  0.00  0.00    +0.070 A 
ATOM      3  S   UNL     1       2.773  -2.983  -4.408  0.00  0.00    -0.056 S 
ATOM      4  C   UNL     1       2.595  -1.269  -3.938  0.00  0.00    +0.192 A 
ATOM      5  N   UNL     1       2.548  -0.189  -4.704  0.00  0.00    -0.124 NA
ATOM      6  N   UNL     1       2.515  -1.371  -2.570  0.00  0.00    -0.335 N 
ATOM      7  H   UNL     1       2.409  -0.579  -2.021  0.00  0.00    +0.168 HD
ENDROOT
BRANCH   1  15
ATOM      8  C   UNL     1      -0.017   1.377   0.010  0.00  0.00    +0.000 A 
ATOM      9  C   UNL     1       1.171   2.084   0.002  0.00  0.00    +0.004 A 
ATOM     10  C   UNL     1       2.374   1.409  -0.017  0.00  0.00    +0.046 A 
ATOM     11  C   UNL     1       2.396   0.018  -0.026  0.00  0.00    +0.135 A 
ATOM     12  C   UNL     1       1.207  -0.689  -0.012  0.00  0.00    -0.004 A 
ATOM     13  C   UNL     1       0.002  -0.004   0.002  0.00  0.00    +0.007 A 
ATOM     14  C   UNL     1       1.177  -2.196   0.001  0.00  0.00    +0.059 C 
ATOM     15  C   UNL     1       2.514  -2.747  -0.504  0.00  0.00    +0.149 C 
ATOM     16  C   UNL     1       3.619  -1.941   0.150  0.00  0.00    +0.322 C 
ATOM     17  O   UNL     1       4.472  -2.467   0.824  0.00  0.00    -0.250 OA
ATOM     18  O   UNL     1       3.604  -0.609  -0.056  0.00  0.00    -0.425 OA
ENDBRANCH   1  15
BRANCH   5  19
ATOM     19  N   UNL     1       2.413   0.977  -4.168  0.00  0.00    -0.155 NA
ATOM     20  C   UNL     1       2.367   2.043  -4.923  0.00  0.00    +0.145 C 
BRANCH  20  21
ATOM     21  C   UNL     1       2.214   3.371  -4.312  0.00  0.00    +0.030 A 
ATOM     22  C   UNL     1       2.158   4.514  -5.117  0.00  0.00    +0.012 A 
ATOM     23  C   UNL     1       2.014   5.756  -4.536  0.00  0.00    +0.001 A 
ATOM     24  C   UNL     1       1.925   5.876  -3.160  0.00  0.00    +0.003 A 
ATOM     25  C   UNL     1       1.979   4.752  -2.355  0.00  0.00    +0.039 A 
ATOM     26  C   UNL     1       2.117   3.499  -2.920  0.00  0.00    +0.132 A 
ATOM     27  F   UNL     1       2.164   2.402  -2.134  0.00  0.00    -0.205 F 
ENDBRANCH  20  21
ENDBRANCH   5  19
TORSDOF 3
