REMARK  Name = ZINC12702130
REMARK  11 active torsions:
REMARK  status: ('A' for Active; 'I' for Inactive)
REMARK    1  A    between atoms: C_1  and  C_2
REMARK    2  A    between atoms: C_5  and  C_8
REMARK    3  A    between atoms: C_8  and  C_10
REMARK    4  A    between atoms: C_8  and  N_18
REMARK    5  A    between atoms: N_12  and  C_13
REMARK    6  A    between atoms: N_18  and  C_19
REMARK    7  A    between atoms: C_21  and  C_26
REMARK    8  A    between atoms: C_24  and  C_25
REMARK    9  A    between atoms: C_27  and  C_29
REMARK   10  A    between atoms: C_30  and  N_37
REMARK   11  A    between atoms: C_31  and  C_34
REMARK                            x       y       z     vdW  Elec       q    Type
REMARK                         _______ _______ _______ _____ _____    ______ ____
ROOT
ATOM      1  N   UNL     1      -0.448  -1.009  -0.250  0.00  0.00    -0.251 N 
ATOM      2  C   UNL     1      -0.929  -0.589  -1.437  0.00  0.00    +0.262 C 
ATOM      3  O   UNL     1      -0.563   0.477  -1.899  0.00  0.00    -0.269 OA
ENDROOT
BRANCH   1   4
ATOM      4  C   UNL     1      -0.868  -2.233   0.280  0.00  0.00    +0.041 A 
ATOM      5  C   UNL     1      -2.143  -2.358   0.818  0.00  0.00    +0.027 A 
ATOM      6  C   UNL     1      -2.556  -3.569   1.337  0.00  0.00    -0.049 A 
ATOM      7  C   UNL     1      -1.699  -4.654   1.330  0.00  0.00    +0.004 A 
ATOM      8  C   UNL     1      -0.428  -4.532   0.800  0.00  0.00    +0.005 A 
ATOM      9  C   UNL     1      -0.010  -3.325   0.275  0.00  0.00    -0.029 A 
ATOM     10  C   UNL     1       1.375  -3.192  -0.303  0.00  0.00    +0.045 C 
ATOM     11  C   UNL     1      -3.941  -3.707   1.916  0.00  0.00    +0.044 C 
ENDBRANCH   1   4
BRANCH   2  12
ATOM     12  C   UNL     1      -1.890  -1.413  -2.171  0.00  0.00    +0.116 A 
ATOM     13  C   UNL     1      -2.511  -1.169  -3.398  0.00  0.00    +0.076 A 
ATOM     14  C   UNL     1      -3.370  -2.200  -3.776  0.00  0.00    +0.155 A 
ATOM     15  N   UNL     1      -3.516  -3.240  -2.985  0.00  0.00    -0.203 NA
ATOM     16  S   UNL     1      -2.588  -2.992  -1.735  0.00  0.00    +0.019 S 
BRANCH  14  17
ATOM     17  C   UNL     1      -4.113  -2.122  -5.048  0.00  0.00    +0.262 C 
ATOM     18  O   UNL     1      -3.974  -1.157  -5.775  0.00  0.00    -0.269 OA
ATOM     19  N   UNL     1      -4.946  -3.120  -5.404  0.00  0.00    -0.324 N 
ATOM     20  H   UNL     1      -5.057  -3.889  -4.824  0.00  0.00    +0.145 HD
ATOM     21  H   UNL     1      -5.435  -3.068  -6.240  0.00  0.00    +0.145 HD
ENDBRANCH  14  17
BRANCH  13  22
ATOM     22  N   UNL     1      -2.294  -0.027  -4.158  0.00  0.00    -0.355 N 
ATOM     23  H   UNL     1      -1.682   0.656  -3.843  0.00  0.00    +0.142 HD
ATOM     24  H   UNL     1      -2.755   0.087  -5.004  0.00  0.00    +0.142 HD
ENDBRANCH  13  22
ENDBRANCH   2  12
BRANCH   1  25
ATOM     25  C   UNL     1       0.514  -0.184   0.484  0.00  0.00    +0.197 C 
BRANCH  25  30
ATOM     26  C   UNL     1      -1.974   4.816   1.968  0.00  0.00    +0.044 C 
ATOM     27  C   UNL     1      -1.325   3.512   1.581  0.00  0.00    -0.050 A 
ATOM     28  C   UNL     1      -0.072   3.510   0.996  0.00  0.00    +0.004 A 
ATOM     29  C   UNL     1       0.523   2.314   0.641  0.00  0.00    +0.006 A 
ATOM     30  C   UNL     1      -0.135   1.120   0.871  0.00  0.00    -0.018 A 
ATOM     31  C   UNL     1      -1.390   1.123   1.451  0.00  0.00    +0.006 A 
ATOM     32  C   UNL     1      -1.983   2.318   1.810  0.00  0.00    +0.004 A 
ENDBRANCH  25  30
BRANCH  25  33
ATOM     33  C   UNL     1       0.955  -0.914   1.727  0.00  0.00    +0.239 C 
ATOM     34  O   UNL     1       0.190  -1.665   2.293  0.00  0.00    -0.273 OA
ATOM     35  N   UNL     1       2.201  -0.731   2.209  0.00  0.00    -0.311 N 
ATOM     36  H   UNL     1       2.813  -0.130   1.756  0.00  0.00    +0.149 HD
BRANCH  35  37
ATOM     37  C   UNL     1       2.630  -1.440   3.417  0.00  0.00    +0.073 C 
ATOM     38  C   UNL     1       2.260  -0.621   4.670  0.00  0.00    +0.022 C 
ATOM     39  C   UNL     1       3.448  -0.848   5.637  0.00  0.00    +0.002 C 
ATOM     40  C   UNL     1       4.669  -0.853   4.683  0.00  0.00    +0.002 C 
ATOM     41  C   UNL     1       4.162  -1.588   3.425  0.00  0.00    +0.022 C 
ENDBRANCH  35  37
ENDBRANCH  25  33
ENDBRANCH   1  25
TORSDOF 8
