REMARK  Name = ZINC39664174
REMARK  12 active torsions:
REMARK  status: ('A' for Active; 'I' for Inactive)
REMARK    1  A    between atoms: C_1  and  C_2
REMARK    2  A    between atoms: C_2  and  C_3
REMARK    3  A    between atoms: C_3  and  C_5
REMARK    4  A    between atoms: C_3  and  C_6
REMARK    5  A    between atoms: C_6  and  C_7
REMARK    6  A    between atoms: C_11  and  C_20
REMARK    7  A    between atoms: N_22  and  C_23
REMARK    8  A    between atoms: C_23  and  C_24
REMARK    9  A    between atoms: C_24  and  C_26
REMARK   10  A    between atoms: C_24  and  N_34
REMARK   11  A    between atoms: C_29  and  O_32
REMARK   12  A    between atoms: O_32  and  C_33
REMARK                            x       y       z     vdW  Elec       q    Type
REMARK                         _______ _______ _______ _____ _____    ______ ____
ROOT
ATOM      1  C   UNL     1       2.617  -6.056   0.751  0.00  0.00    +0.218 C 
ATOM      2  O   UNL     1       2.805  -5.027   0.137  0.00  0.00    -0.275 OA
ATOM      3  N   UNL     1       3.370  -7.143   0.490  0.00  0.00    -0.316 N 
ATOM      4  H   UNL     1       3.220  -7.966   0.981  0.00  0.00    +0.149 HD
ENDROOT
BRANCH   1   9
ATOM      5  C   UNL     1       0.621  -2.618   1.874  0.00  0.00    +0.216 C 
ATOM      6  O   UNL     1       0.949  -1.726   2.628  0.00  0.00    -0.276 OA
ATOM      7  N   UNL     1       0.748  -3.904   2.256  0.00  0.00    -0.300 N 
ATOM      8  C   UNL     1       0.410  -5.120   1.478  0.00  0.00    +0.121 C 
ATOM      9  C   UNL     1       1.542  -6.119   1.805  0.00  0.00    +0.100 C 
ATOM     10  C   UNL     1       2.094  -5.657   3.164  0.00  0.00    -0.004 C 
ATOM     11  C   UNL     1       1.264  -4.423   3.545  0.00  0.00    +0.115 C 
ATOM     12  C   UNL     1       3.566  -5.278   3.036  0.00  0.00    -0.010 C 
ATOM     13  C   UNL     1       4.106  -4.877   4.411  0.00  0.00    -0.082 C 
ATOM     14  N   UNL     1       3.949  -5.997   5.346  0.00  0.00    +0.379 N 
ATOM     15  C   UNL     1       2.524  -6.296   5.535  0.00  0.00    -0.082 C 
ATOM     16  C   UNL     1       1.917  -6.756   4.207  0.00  0.00    -0.010 C 
ATOM     17  H   UNL     1       4.415  -6.811   4.975  0.00  0.00    -0.086 HD
ATOM     18  H   UNL     1       4.361  -5.753   6.234  0.00  0.00    -0.086 HD
BRANCH   5  19
ATOM     19  C   UNL     1       0.070  -2.287   0.511  0.00  0.00    +0.099 C 
BRANCH  19  20
ATOM     20  C   UNL     1       0.030  -0.768   0.331  0.00  0.00    -0.006 C 
ATOM     21  C   UNL     1       1.458  -0.217   0.336  0.00  0.00    +0.008 C 
BRANCH  20  23
ATOM     22  C   UNL     1      -0.795   1.088  -1.123  0.00  0.00    +0.004 C 
ATOM     23  C   UNL     1      -0.643  -0.429  -1.000  0.00  0.00    +0.000 C 
ENDBRANCH  20  23
ENDBRANCH  19  20
ENDBRANCH   5  19
ENDBRANCH   1   9
BRANCH   3  24
ATOM     24  C   UNL     1       4.415  -7.082  -0.535  0.00  0.00    +0.093 C 
BRANCH  24  25
ATOM     25  C   UNL     1       5.022  -8.473  -0.729  0.00  0.00    -0.020 C 
BRANCH  25  26
ATOM     26  C   UNL     1       3.977  -9.402  -1.292  0.00  0.00    -0.059 A 
ATOM     27  C   UNL     1       3.692  -9.380  -2.645  0.00  0.00    +0.005 A 
ATOM     28  C   UNL     1       2.735 -10.230  -3.164  0.00  0.00    +0.046 A 
ATOM     29  C   UNL     1       2.059 -11.107  -2.327  0.00  0.00    +0.120 A 
ATOM     30  C   UNL     1       2.348 -11.127  -0.970  0.00  0.00    +0.046 A 
ATOM     31  C   UNL     1       3.309 -10.278  -0.457  0.00  0.00    +0.005 A 
BRANCH  29  32
ATOM     32  O   UNL     1       1.117 -11.944  -2.835  0.00  0.00    -0.495 OA
ATOM     33  C   UNL     1       0.462 -12.818  -1.914  0.00  0.00    +0.277 C 
ENDBRANCH  29  32
ENDBRANCH  25  26
BRANCH  25  34
ATOM     34  N   UNL     1       6.155  -8.388  -1.660  0.00  0.00    +0.385 N 
ATOM     35  C   UNL     1       7.232  -7.545  -1.080  0.00  0.00    -0.078 C 
ATOM     36  C   UNL     1       8.494  -8.002  -1.853  0.00  0.00    -0.020 C 
ATOM     37  C   UNL     1       8.272  -9.524  -2.010  0.00  0.00    -0.020 C 
ATOM     38  C   UNL     1       6.753  -9.726  -1.859  0.00  0.00    -0.078 C 
ATOM     39  H   UNL     1       5.851  -8.007  -2.544  0.00  0.00    -0.081 HD
ENDBRANCH  25  34
ENDBRANCH  24  25
ENDBRANCH   3  24
TORSDOF 9
