REMARK  Name = ZINC67566978
REMARK  9 active torsions:
REMARK  status: ('A' for Active; 'I' for Inactive)
REMARK    1  A    between atoms: C_1  and  C_2
REMARK    2  A    between atoms: C_2  and  C_3
REMARK    3  A    between atoms: C_2  and  C_4
REMARK    4  A    between atoms: C_2  and  N_5
REMARK    5  A    between atoms: C_6  and  C_8
REMARK    6  A    between atoms: C_8  and  N_9
REMARK    7  A    between atoms: N_9  and  C_10
REMARK    8  A    between atoms: N_13  and  C_14
REMARK    9  A    between atoms: C_17  and  C_19
REMARK                            x       y       z     vdW  Elec       q    Type
REMARK                         _______ _______ _______ _____ _____    ______ ____
ROOT
ATOM      1  N   UNL     1       4.051  -0.111  -2.677  0.00  0.00    -0.280 N 
ATOM      2  C   UNL     1       5.125  -0.892  -2.057  0.00  0.00    +0.134 C 
ATOM      3  C   UNL     1       4.328   1.073  -3.257  0.00  0.00    +0.303 C 
ATOM      4  O   UNL     1       3.437   1.722  -3.772  0.00  0.00    -0.253 OA
ATOM      5  N   UNL     1       5.593   1.540  -3.267  0.00  0.00    -0.296 N 
ATOM      6  H   UNL     1       6.303   1.023  -2.856  0.00  0.00    +0.151 HD
ENDROOT
BRANCH   5   7
ATOM      7  C   UNL     1       5.893   2.828  -3.897  0.00  0.00    +0.082 C 
ATOM      8  C   UNL     1       6.830   3.779  -3.149  0.00  0.00    +0.033 C 
ATOM      9  C   UNL     1       7.320   3.051  -4.403  0.00  0.00    +0.041 C 
BRANCH   9  10
ATOM     10  C   UNL     1       7.494   3.866  -5.658  0.00  0.00    -0.040 A 
ATOM     11  C   UNL     1       7.053   5.176  -5.698  0.00  0.00    +0.004 A 
ATOM     12  C   UNL     1       7.212   5.925  -6.848  0.00  0.00    +0.003 A 
ATOM     13  C   UNL     1       7.811   5.366  -7.961  0.00  0.00    +0.038 A 
ATOM     14  C   UNL     1       8.254   4.055  -7.922  0.00  0.00    +0.124 A 
ATOM     15  C   UNL     1       8.100   3.307  -6.767  0.00  0.00    +0.042 A 
ATOM     16  F   UNL     1       8.840   3.507  -9.009  0.00  0.00    -0.205 F 
ENDBRANCH   9  10
ENDBRANCH   5   7
BRANCH   1  17
ATOM     17  C   UNL     1       2.677  -0.618  -2.667  0.00  0.00    +0.204 C 
BRANCH  17  19
ATOM     18  N   UNL     1       0.688  -0.476  -1.203  0.00  0.00    -0.309 N 
ATOM     19  C   UNL     1       1.972  -0.132  -1.427  0.00  0.00    +0.231 C 
ATOM     20  O   UNL     1       2.559   0.569  -0.630  0.00  0.00    -0.274 OA
ATOM     21  H   UNL     1       0.218  -1.037  -1.840  0.00  0.00    +0.149 HD
BRANCH  18  23
ATOM     22  C   UNL     1      -0.019   1.526   0.010  0.00  0.00    +0.031 C 
ATOM     23  C   UNL     1       0.002  -0.004   0.002  0.00  0.00    +0.026 C 
ATOM     24  C   UNL     1       0.742  -0.511   1.242  0.00  0.00    +0.031 C 
ATOM     25  C   UNL     1      -1.433  -0.534   0.013  0.00  0.00    +0.031 C 
ENDBRANCH  18  23
ENDBRANCH  17  19
ENDBRANCH   1  17
TORSDOF 5
