REMARK  Name = ZINC48847592
REMARK  2 active torsions:
REMARK  status: ('A' for Active; 'I' for Inactive)
REMARK    1  A    between atoms: C_8  and  C_10
REMARK    2  A    between atoms: C_10  and  C_12
REMARK                            x       y       z     vdW  Elec       q    Type
REMARK                         _______ _______ _______ _____ _____    ______ ____
ROOT
ATOM      1  C   UNL     1       4.557  -4.347  -0.176  0.00  0.00    +0.025 A 
ATOM      2  C   UNL     1       5.524  -3.529   0.420  0.00  0.00    +0.014 A 
ATOM      3  C   UNL     1       6.859  -3.839   0.303  0.00  0.00    +0.028 A 
ATOM      4  C   UNL     1       7.252  -4.967  -0.408  0.00  0.00    +0.067 A 
ATOM      5  C   UNL     1       6.291  -5.789  -1.006  0.00  0.00    +0.067 A 
ATOM      6  C   UNL     1       4.949  -5.484  -0.886  0.00  0.00    +0.039 A 
ATOM      7  N   UNL     1       6.983  -6.822  -1.636  0.00  0.00    -0.306 N 
ATOM      8  H   UNL     1       6.584  -7.551  -2.138  0.00  0.00    +0.170 HD
ATOM      9  C   UNL     1       8.300  -6.635  -1.430  0.00  0.00    +0.325 A 
ATOM     10  O   UNL     1       9.184  -7.360  -1.847  0.00  0.00    -0.247 OA
ATOM     11  N   UNL     1       8.491  -5.525  -0.693  0.00  0.00    -0.306 N 
ATOM     12  H   UNL     1       9.350  -5.174  -0.410  0.00  0.00    +0.170 HD
ENDROOT
BRANCH   1  13
ATOM     13  C   UNL     1       3.125  -4.012  -0.049  0.00  0.00    +0.200 C 
ATOM     14  O   UNL     1       2.283  -4.879  -0.188  0.00  0.00    -0.286 OA
BRANCH  13  22
ATOM     15  C   UNL     1       0.073   1.236   1.295  0.00  0.00    +0.001 A 
ATOM     16  C   UNL     1       1.241   1.988   1.243  0.00  0.00    +0.001 A 
ATOM     17  C   UNL     1       2.439   1.364   0.956  0.00  0.00    +0.015 A 
ATOM     18  C   UNL     1       2.459   0.005   0.725  0.00  0.00    +0.020 A 
ATOM     19  C   UNL     1       1.286  -0.785   0.772  0.00  0.00    -0.010 A 
ATOM     20  C   UNL     1       0.078  -0.103   1.070  0.00  0.00    +0.009 A 
ATOM     21  C   UNL     1       1.471  -2.155   0.514  0.00  0.00    +0.028 A 
ATOM     22  C   UNL     1       2.718  -2.632   0.244  0.00  0.00    +0.061 A 
ATOM     23  S   UNL     1       3.733  -1.167   0.335  0.00  0.00    -0.085 S 
ENDBRANCH  13  22
ENDBRANCH   1  13
TORSDOF 2
