REMARK  Name = ZINC65308535
REMARK  8 active torsions:
REMARK  status: ('A' for Active; 'I' for Inactive)
REMARK    1  A    between atoms: C_4  and  C_7
REMARK    2  A    between atoms: C_7  and  O_8
REMARK    3  A    between atoms: O_8  and  C_9
REMARK    4  A    between atoms: C_9  and  C_10
REMARK    5  A    between atoms: C_10  and  C_11
REMARK    6  A    between atoms: C_11  and  C_12
REMARK    7  A    between atoms: N_14  and  C_15
REMARK    8  A    between atoms: C_22  and  C_27
REMARK                            x       y       z     vdW  Elec       q    Type
REMARK                         _______ _______ _______ _____ _____    ______ ____
ROOT
ATOM      1  C   UNL     1       8.892  -3.612   6.205  0.00  0.00    +0.105 C 
ATOM      2  C   UNL     1       9.782  -4.846   6.339  0.00  0.00    +0.027 C 
ATOM      3  C   UNL     1      10.328  -4.890   7.771  0.00  0.00    +0.008 C 
ATOM      4  C   UNL     1      11.317  -3.740   7.941  0.00  0.00    +0.054 C 
ATOM      5  C   UNL     1      10.704  -2.437   7.492  0.00  0.00    +0.024 A 
ATOM      6  C   UNL     1       9.608  -2.382   6.700  0.00  0.00    -0.007 A 
ATOM      7  C   UNL     1       9.092  -1.139   6.307  0.00  0.00    +0.025 A 
ATOM      8  C   UNL     1       9.709   0.029   6.738  0.00  0.00    +0.101 A 
ATOM      9  C   UNL     1      10.851  -0.077   7.573  0.00  0.00    +0.261 A 
ATOM     10  O   UNL     1      11.415   0.927   7.973  0.00  0.00    -0.267 OA
ATOM     11  N   UNL     1      11.306  -1.291   7.921  0.00  0.00    -0.325 N 
ATOM     12  H   UNL     1      12.086  -1.355   8.494  0.00  0.00    +0.169 HD
ENDROOT
BRANCH   8  13
ATOM     13  C   UNL     1       9.189   1.346   6.338  0.00  0.00    +0.247 C 
ATOM     14  O   UNL     1       8.275   1.422   5.539  0.00  0.00    -0.270 OA
ATOM     15  N   UNL     1       9.725   2.468   6.858  0.00  0.00    -0.325 N 
ATOM     16  H   UNL     1      10.501   2.412   7.437  0.00  0.00    +0.145 HD
ATOM     17  H   UNL     1       9.335   3.332   6.652  0.00  0.00    +0.145 HD
ENDBRANCH   8  13
BRANCH   1  20
ATOM     18  C   UNL     1       7.392  -2.787   4.472  0.00  0.00    +0.214 C 
ATOM     19  O   UNL     1       6.664  -2.364   5.345  0.00  0.00    -0.276 OA
ATOM     20  N   UNL     1       8.533  -3.427   4.797  0.00  0.00    -0.308 N 
ATOM     21  H   UNL     1       9.115  -3.765   4.099  0.00  0.00    +0.149 HD
BRANCH  18  22
ATOM     22  C   UNL     1       7.022  -2.597   3.024  0.00  0.00    +0.098 C 
BRANCH  22  23
ATOM     23  C   UNL     1       5.692  -1.846   2.932  0.00  0.00    +0.037 C 
BRANCH  23  24
ATOM     24  C   UNL     1       5.316  -1.653   1.461  0.00  0.00    +0.161 C 
BRANCH  24  25
ATOM     25  O   UNL     1       4.074  -0.952   1.375  0.00  0.00    -0.375 OA
BRANCH  25  26
ATOM     26  C   UNL     1       3.630  -0.718   0.037  0.00  0.00    +0.195 C 
BRANCH  26  30
ATOM     27  C   UNL     1      -0.088   1.384   0.115  0.00  0.00    +0.000 A 
ATOM     28  C   UNL     1       1.102   2.086   0.090  0.00  0.00    +0.000 A 
ATOM     29  C   UNL     1       2.305   1.406   0.065  0.00  0.00    +0.006 A 
ATOM     30  C   UNL     1       2.318   0.023   0.066  0.00  0.00    -0.022 A 
ATOM     31  C   UNL     1       1.127  -0.679   0.092  0.00  0.00    +0.006 A 
ATOM     32  C   UNL     1      -0.076   0.001   0.115  0.00  0.00    +0.000 A 
ENDBRANCH  26  30
ENDBRANCH  25  26
ENDBRANCH  24  25
ENDBRANCH  23  24
ENDBRANCH  22  23
ENDBRANCH  18  22
ENDBRANCH   1  20
TORSDOF 8
