REMARK  Name = ZINC03013174
REMARK  6 active torsions:
REMARK  status: ('A' for Active; 'I' for Inactive)
REMARK    1  A    between atoms: C_3  and  C_10
REMARK    2  A    between atoms: C_5  and  N_7
REMARK    3  A    between atoms: N_11  and  N_12
REMARK    4  A    between atoms: C_13  and  S_15
REMARK    5  A    between atoms: S_15  and  C_16
REMARK    6  A    between atoms: N_21  and  C_24
REMARK                            x       y       z     vdW  Elec       q    Type
REMARK                         _______ _______ _______ _____ _____    ______ ____
ROOT
ATOM      1  N   UNL     1       1.100   7.468   0.032  0.00  0.00    -0.217 N 
ATOM      2  C   UNL     1       2.236   8.247   0.042  0.00  0.00    +0.146 C 
ATOM      3  N   UNL     1       3.411   7.686   0.124  0.00  0.00    -0.380 N 
ATOM      4  H   UNL     1       0.110   7.941  -0.037  0.00  0.00    +0.176 HD
ATOM      5  H   UNL     1       4.318   8.308   0.132  0.00  0.00    +0.158 HD
ATOM      6  H   UNL     1       3.494   6.590   0.183  0.00  0.00    +0.158 HD
ENDROOT
BRANCH   1   8
ATOM      7  C   UNL     1       0.137   5.339   0.098  0.00  0.00    +0.138 C 
ATOM      8  N   UNL     1       1.207   6.073   0.108  0.00  0.00    -0.188 NA
BRANCH   7  11
ATOM      9  C   UNL     1       1.602   1.893   0.339  0.00  0.00    +0.003 A 
ATOM     10  C   UNL     1       1.505   3.267   0.265  0.00  0.00    +0.009 A 
ATOM     11  C   UNL     1       0.248   3.871   0.178  0.00  0.00    -0.003 A 
ATOM     12  C   UNL     1      -0.901   3.078   0.167  0.00  0.00    +0.042 A 
ATOM     13  C   UNL     1      -0.789   1.705   0.235  0.00  0.00    +0.127 A 
ATOM     14  C   UNL     1       0.459   1.113   0.327  0.00  0.00    +0.033 A 
BRANCH  13  15
ATOM     15  N   UNL     1      -2.006   0.862   0.217  0.00  0.00    +0.056 N 
ATOM     16  O   UNL     1      -1.908  -0.350   0.282  0.00  0.00    -0.126 OA
ATOM     17  O   UNL     1      -3.105   1.381   0.136  0.00  0.00    -0.126 OA
ENDBRANCH  13  15
ENDBRANCH   7  11
ENDBRANCH   1   8
BRANCH   2  18
ATOM     18  S   UNL     1       2.102  10.001  -0.054  0.00  0.00    -0.078 S 
BRANCH  18  19
ATOM     19  C   UNL     1       3.853  10.444  -0.170  0.00  0.00    +0.149 C 
ATOM     20  C   UNL     1       4.034  11.973  -0.081  0.00  0.00    +0.120 C 
ATOM     21  C   UNL     1       4.663  12.334  -1.410  0.00  0.00    +0.228 C 
ATOM     22  O   UNL     1       4.975  13.452  -1.758  0.00  0.00    -0.275 OA
ATOM     23  N   UNL     1       4.820  11.222  -2.139  0.00  0.00    -0.209 N 
ATOM     24  C   UNL     1       4.399  10.101  -1.539  0.00  0.00    +0.240 C 
ATOM     25  O   UNL     1       4.448   8.988  -2.017  0.00  0.00    -0.274 OA
BRANCH  23  26
ATOM     26  C   UNL     1       5.380  11.230  -3.424  0.00  0.00    +0.044 A 
ATOM     27  C   UNL     1       6.600  10.609  -3.655  0.00  0.00    +0.025 A 
ATOM     28  C   UNL     1       7.147  10.615  -4.923  0.00  0.00    +0.017 A 
ATOM     29  C   UNL     1       6.486  11.247  -5.961  0.00  0.00    +0.018 A 
ATOM     30  C   UNL     1       5.272  11.871  -5.732  0.00  0.00    +0.017 A 
ATOM     31  C   UNL     1       4.719  11.865  -4.466  0.00  0.00    +0.025 A 
ATOM     32 BR   UNL     1       7.241  11.259  -7.694  0.00  0.00    -0.050 Br
ENDBRANCH  23  26
ENDBRANCH  18  19
ENDBRANCH   2  18
TORSDOF 6
