REMARK  Name = ZINC35883584
REMARK  6 active torsions:
REMARK  status: ('A' for Active; 'I' for Inactive)
REMARK    1  A    between atoms: C_1  and  N_2
REMARK    2  A    between atoms: C_4  and  C_30
REMARK    3  A    between atoms: C_6  and  C_22
REMARK    4  A    between atoms: C_13  and  C_18
REMARK    5  A    between atoms: C_22  and  C_24
REMARK    6  A    between atoms: C_34  and  N_36
REMARK                            x       y       z     vdW  Elec       q    Type
REMARK                         _______ _______ _______ _____ _____    ______ ____
ROOT
ATOM      1  C   UNL     1       0.058   1.528   0.160  0.00  0.00    +0.106 C 
ATOM      2  N   UNL     1       0.027   0.060   0.118  0.00  0.00    -0.287 NA
ATOM      3  C   UNL     1       0.695  -0.453  -1.107  0.00  0.00    +0.094 C 
ATOM      4  C   UNL     1       1.056  -1.913  -0.734  0.00  0.00    +0.046 C 
ATOM      5  C   UNL     1       1.449  -1.802   0.759  0.00  0.00    +0.103 C 
ATOM      6  C   UNL     1       0.774  -0.515   1.248  0.00  0.00    +0.136 C 
ATOM      7  C   UNL     1       1.791   0.459   1.781  0.00  0.00    +0.004 A 
ATOM      8  C   UNL     1       2.876   1.094   1.220  0.00  0.00    +0.008 A 
ATOM      9  C   UNL     1       3.643   1.956   1.982  0.00  0.00    +0.001 A 
ATOM     10  C   UNL     1       3.318   2.178   3.308  0.00  0.00    +0.014 A 
ATOM     11  C   UNL     1       2.232   1.544   3.874  0.00  0.00    +0.076 A 
ATOM     12  C   UNL     1       1.453   0.674   3.113  0.00  0.00    +0.051 A 
ATOM     13  N   UNL     1       0.323  -0.072   3.452  0.00  0.00    -0.283 N 
ATOM     14  C   UNL     1      -0.138  -0.795   2.415  0.00  0.00    +0.243 C 
ATOM     15  O   UNL     1      -1.102  -1.531   2.418  0.00  0.00    -0.273 OA
ATOM     16  H   UNL     1      -0.084  -0.069   4.333  0.00  0.00    +0.155 HD
ENDROOT
BRANCH   4  17
ATOM     17  C   UNL     1       2.216  -2.404  -1.560  0.00  0.00    -0.040 A 
ATOM     18  C   UNL     1       3.427  -1.738  -1.515  0.00  0.00    +0.004 A 
ATOM     19  C   UNL     1       4.492  -2.188  -2.272  0.00  0.00    +0.002 A 
ATOM     20  C   UNL     1       4.347  -3.304  -3.075  0.00  0.00    +0.033 A 
ATOM     21  C   UNL     1       3.136  -3.971  -3.119  0.00  0.00    +0.126 A 
ATOM     22  C   UNL     1       2.073  -3.523  -2.358  0.00  0.00    +0.036 A 
BRANCH  21  23
ATOM     23  N   UNL     1       2.981  -5.166  -3.979  0.00  0.00    +0.056 N 
ATOM     24  O   UNL     1       3.912  -5.559  -4.642  0.00  0.00    -0.126 OA
ATOM     25  O   UNL     1       1.922  -5.748  -4.017  0.00  0.00    -0.126 OA
ENDBRANCH  21  23
ENDBRANCH   4  17
BRANCH  11  26
ATOM     26  C   UNL     1       1.887   1.792   5.320  0.00  0.00    +0.419 C 
ATOM     27  F   UNL     1       2.804   2.693   5.870  0.00  0.00    -0.166 F 
ATOM     28  F   UNL     1       0.597   2.328   5.406  0.00  0.00    -0.166 F 
ATOM     29  F   UNL     1       1.938   0.585   6.026  0.00  0.00    -0.166 F 
ENDBRANCH  11  26
BRANCH   5  30
ATOM     30  C   UNL     1       0.933  -2.992   1.527  0.00  0.00    +0.171 C 
ATOM     31  O   UNL     1      -0.044  -3.591   1.132  0.00  0.00    -0.292 OA
BRANCH  30  32
ATOM     32  C   UNL     1       1.615  -3.426   2.757  0.00  0.00    +0.036 A 
ATOM     33  C   UNL     1       1.149  -4.535   3.478  0.00  0.00    +0.014 A 
ATOM     34  C   UNL     1       1.827  -4.901   4.627  0.00  0.00    +0.020 A 
ATOM     35  C   UNL     1       2.932  -4.170   5.024  0.00  0.00    +0.111 A 
ATOM     36  N   UNL     1       3.349  -3.130   4.326  0.00  0.00    -0.263 NA
ATOM     37  C   UNL     1       2.743  -2.744   3.223  0.00  0.00    +0.122 A 
ENDBRANCH  30  32
ENDBRANCH   5  30
TORSDOF 5
