REMARK  Name = ZINC54669568
REMARK  6 active torsions:
REMARK  status: ('A' for Active; 'I' for Inactive)
REMARK    1  A    between atoms: C_1  and  C_2
REMARK    2  A    between atoms: C_2  and  C_3
REMARK    3  A    between atoms: C_2  and  C_4
REMARK    4  A    between atoms: C_2  and  N_8
REMARK    5  A    between atoms: N_5  and  O_6
REMARK    6  A    between atoms: C_9  and  C_11
REMARK                            x       y       z     vdW  Elec       q    Type
REMARK                         _______ _______ _______ _____ _____    ______ ____
ROOT
ATOM      1  N   UNL     1       0.696   0.294  -1.521  0.00  0.00    -0.303 N 
ATOM      2  C   UNL     1       1.972  -0.132  -1.427  0.00  0.00    +0.221 C 
ATOM      3  O   UNL     1       2.566  -0.039  -0.374  0.00  0.00    -0.275 OA
ATOM      4  H   UNL     1       0.245   0.286  -2.380  0.00  0.00    +0.150 HD
ENDROOT
BRANCH   2   5
ATOM      5  C   UNL     1       2.659  -0.725  -2.630  0.00  0.00    +0.105 C 
ATOM      6  C   UNL     1       4.122  -0.287  -2.640  0.00  0.00    +0.018 C 
ATOM      7  C   UNL     1       4.853  -1.069  -3.739  0.00  0.00    +0.006 C 
ATOM      8  C   UNL     1       4.958  -2.529  -3.302  0.00  0.00    +0.035 C 
ATOM      9  C   UNL     1       3.610  -3.055  -2.885  0.00  0.00    -0.043 A 
ATOM     10  C   UNL     1       2.556  -2.226  -2.572  0.00  0.00    -0.032 A 
ATOM     11  C   UNL     1       1.340  -2.776  -2.187  0.00  0.00    +0.004 A 
ATOM     12  C   UNL     1       1.180  -4.145  -2.119  0.00  0.00    +0.000 A 
ATOM     13  C   UNL     1       2.238  -4.976  -2.436  0.00  0.00    +0.000 A 
ATOM     14  C   UNL     1       3.446  -4.432  -2.818  0.00  0.00    +0.004 A 
ENDBRANCH   2   5
BRANCH   1  16
ATOM     15  C   UNL     1       0.740   1.967   0.262  0.00  0.00    +0.039 C 
ATOM     16  C   UNL     1      -0.007   0.769  -0.327  0.00  0.00    +0.087 C 
ATOM     17  C   UNL     1      -0.069  -0.354   0.709  0.00  0.00    +0.039 C 
BRANCH  16  18
ATOM     18  C   UNL     1      -1.407   1.185  -0.701  0.00  0.00    +0.155 C 
ATOM     19  N   UNL     1      -2.420   0.670  -0.087  0.00  0.00    -0.075 NA
ATOM     20  N   UNL     1      -1.606   2.114  -1.698  0.00  0.00    -0.342 N 
ATOM     21  H   UNL     1      -0.846   2.501  -2.160  0.00  0.00    +0.144 HD
ATOM     22  H   UNL     1      -2.507   2.381  -1.939  0.00  0.00    +0.144 HD
BRANCH  19  23
ATOM     23  O   UNL     1      -3.735   1.060  -0.438  0.00  0.00    -0.408 OA
ATOM     24  H   UNL     1      -4.426   0.621   0.076  0.00  0.00    +0.328 HD
ENDBRANCH  19  23
ENDBRANCH  16  18
ENDBRANCH   1  16
TORSDOF 4
