REMARK  Name = ZINC26401354
REMARK  6 active torsions:
REMARK  status: ('A' for Active; 'I' for Inactive)
REMARK    1  A    between atoms: C_1  and  C_2
REMARK    2  A    between atoms: C_2  and  C_4
REMARK    3  A    between atoms: C_2  and  N_10
REMARK    4  A    between atoms: N_13  and  C_14
REMARK    5  A    between atoms: N_13  and  C_15
REMARK    6  A    between atoms: C_15  and  C_16
REMARK                            x       y       z     vdW  Elec       q    Type
REMARK                         _______ _______ _______ _____ _____    ______ ____
ROOT
ATOM      1  N   UNL     1      -3.584   1.836   1.672  0.00  0.00    -0.294 N 
ATOM      2  C   UNL     1      -4.401   1.705   2.736  0.00  0.00    +0.303 C 
ATOM      3  O   UNL     1      -4.519   2.620   3.528  0.00  0.00    -0.253 OA
ATOM      4  N   UNL     1      -5.086   0.559   2.923  0.00  0.00    -0.282 N 
ATOM      5  C   UNL     1      -4.943  -0.543   1.969  0.00  0.00    +0.134 C 
ATOM      6  H   UNL     1      -3.478   1.008   0.955  0.00  0.00    +0.151 HD
ENDROOT
BRANCH   1   8
ATOM      7  C   UNL     1      -3.723   4.090   0.731  0.00  0.00    +0.030 C 
ATOM      8  C   UNL     1      -2.840   3.082   1.469  0.00  0.00    +0.100 C 
BRANCH   8   9
ATOM      9  C   UNL     1      -1.587   2.797   0.638  0.00  0.00    +0.138 C 
ATOM     10  C   UNL     1      -0.788   1.610   1.241  0.00  0.00    +0.035 C 
ATOM     11  C   UNL     1      -0.013   1.086   0.008  0.00  0.00    +0.031 C 
ATOM     12  C   UNL     1      -0.808   1.621  -1.198  0.00  0.00    +0.160 C 
ATOM     13  O   UNL     1      -1.946   2.329  -0.680  0.00  0.00    -0.375 OA
ENDBRANCH   8   9
ENDBRANCH   1   8
BRANCH   4  14
ATOM     14  C   UNL     1      -5.973   0.416   4.080  0.00  0.00    +0.171 C 
BRANCH  14  15
ATOM     15  C   UNL     1      -7.356   0.888   3.714  0.00  0.00    +0.097 A 
ATOM     16  N   UNL     1      -8.339   0.197   3.209  0.00  0.00    -0.242 NA
ATOM     17  C   UNL     1      -9.540   0.744   2.928  0.00  0.00    +0.079 A 
ATOM     18  C   UNL     1     -10.693   0.131   2.388  0.00  0.00    +0.029 A 
ATOM     19  C   UNL     1     -11.824   0.853   2.166  0.00  0.00    +0.002 A 
ATOM     20  C   UNL     1     -11.891   2.209   2.457  0.00  0.00    +0.001 A 
ATOM     21  C   UNL     1     -10.784   2.845   2.986  0.00  0.00    +0.017 A 
ATOM     22  C   UNL     1      -9.637   2.124   3.214  0.00  0.00    +0.039 A 
ATOM     23  S   UNL     1      -8.022   2.486   3.855  0.00  0.00    -0.071 S 
ENDBRANCH  14  15
ENDBRANCH   4  14
TORSDOF 4
