REMARK  Name = ZINC38142884
REMARK  4 active torsions:
REMARK  status: ('A' for Active; 'I' for Inactive)
REMARK    1  A    between atoms: C_1  and  C_2
REMARK    2  A    between atoms: C_5  and  C_8
REMARK    3  A    between atoms: N_10  and  N_11
REMARK    4  A    between atoms: C_13  and  C_22
REMARK                            x       y       z     vdW  Elec       q    Type
REMARK                         _______ _______ _______ _____ _____    ______ ____
ROOT
ATOM      1  N   UNL     1       0.105  -6.335   1.129  0.00  0.00    -0.273 N 
ATOM      2  C   UNL     1       0.116  -6.992   2.257  0.00  0.00    +0.224 A 
ATOM      3  C   UNL     1       0.026  -8.469   2.282  0.00  0.00    +0.098 A 
ATOM      4  C   UNL     1       0.584  -9.116   3.359  0.00  0.00    +0.030 A 
ATOM      5  C   UNL     1       1.221  -8.290   4.391  0.00  0.00    +0.018 A 
ATOM      6  C   UNL     1       2.036  -8.871   5.369  0.00  0.00    +0.011 A 
ATOM      7  C   UNL     1       2.626  -8.074   6.325  0.00  0.00    +0.001 A 
ATOM      8  C   UNL     1       2.416  -6.703   6.323  0.00  0.00    +0.004 A 
ATOM      9  C   UNL     1       1.613  -6.116   5.364  0.00  0.00    +0.047 A 
ATOM     10  C   UNL     1       1.009  -6.900   4.394  0.00  0.00    +0.137 A 
ATOM     11  O   UNL     1       0.218  -6.339   3.449  0.00  0.00    -0.437 OA
ATOM     12  H   UNL     1       0.115  -6.817   0.287  0.00  0.00    +0.188 HD
ENDROOT
BRANCH   3  13
ATOM     13  C   UNL     1      -0.635  -9.215   1.198  0.00  0.00    +0.247 C 
ATOM     14  O   UNL     1      -1.045  -8.625   0.216  0.00  0.00    -0.270 OA
ATOM     15  N   UNL     1      -0.786 -10.550   1.293  0.00  0.00    -0.325 N 
ATOM     16  H   UNL     1      -0.527 -11.011   2.107  0.00  0.00    +0.145 HD
ATOM     17  H   UNL     1      -1.154 -11.052   0.548  0.00  0.00    +0.145 HD
ENDBRANCH   3  13
BRANCH   1  20
ATOM     18  C   UNL     1       0.066  -4.256  -0.031  0.00  0.00    +0.262 C 
ATOM     19  O   UNL     1       0.079  -4.861  -1.087  0.00  0.00    -0.269 OA
ATOM     20  N   UNL     1       0.078  -4.934   1.133  0.00  0.00    -0.223 N 
ATOM     21  H   UNL     1       0.067  -4.452   1.975  0.00  0.00    +0.175 HD
BRANCH  18  26
ATOM     22  C   UNL     1      -0.048   1.497  -0.012  0.00  0.00    +0.044 C 
ATOM     23  C   UNL     1      -0.018  -0.010  -0.017  0.00  0.00    -0.050 A 
ATOM     24  C   UNL     1      -0.002  -0.695  -1.219  0.00  0.00    +0.004 A 
ATOM     25  C   UNL     1       0.025  -2.074  -1.231  0.00  0.00    +0.013 A 
ATOM     26  C   UNL     1       0.037  -2.779  -0.026  0.00  0.00    +0.038 A 
ATOM     27  C   UNL     1       0.022  -2.082   1.183  0.00  0.00    +0.013 A 
ATOM     28  C   UNL     1      -0.001  -0.703   1.181  0.00  0.00    +0.004 A 
ENDBRANCH  18  26
ENDBRANCH   1  20
TORSDOF 3
