REMARK  Name = ZINC16348313
REMARK  6 active torsions:
REMARK  status: ('A' for Active; 'I' for Inactive)
REMARK    1  A    between atoms: C_1  and  C_2
REMARK    2  A    between atoms: C_9  and  C_12
REMARK    3  A    between atoms: C_12  and  C_22
REMARK    4  A    between atoms: C_13  and  C_14
REMARK    5  A    between atoms: C_17  and  O_21
REMARK    6  A    between atoms: C_18  and  O_20
REMARK                            x       y       z     vdW  Elec       q    Type
REMARK                         _______ _______ _______ _____ _____    ______ ____
ROOT
ATOM      1  C   UNL     1       0.191  -5.486   2.401  0.00  0.00    +0.094 C 
ATOM      2  C   UNL     1       0.094  -5.455   3.762  0.00  0.00    +0.030 C 
ENDROOT
BRANCH   1  11
ATOM      3  C   UNL     1      -0.267   1.461  -0.051  0.00  0.00    +0.044 C 
ATOM      4  C   UNL     1      -0.132  -0.040  -0.044  0.00  0.00    -0.048 A 
ATOM      5  C   UNL     1       0.013  -0.723  -1.244  0.00  0.00    +0.005 A 
ATOM      6  C   UNL     1       0.137  -2.096  -1.257  0.00  0.00    +0.028 A 
ATOM      7  C   UNL     1       0.118  -2.800  -0.061  0.00  0.00    +0.066 A 
ATOM      8  C   UNL     1      -0.028  -2.109   1.155  0.00  0.00    +0.090 A 
ATOM      9  C   UNL     1      -0.148  -0.715   1.143  0.00  0.00    +0.033 A 
ATOM     10  N   UNL     1      -0.013  -3.033   2.146  0.00  0.00    -0.227 NA
ATOM     11  C   UNL     1       0.130  -4.231   1.629  0.00  0.00    +0.150 A 
ATOM     12  N   UNL     1       0.216  -4.139   0.265  0.00  0.00    -0.337 N 
ATOM     13  H   UNL     1       0.325  -4.876  -0.356  0.00  0.00    +0.167 HD
ENDBRANCH   1  11
BRANCH   2  14
ATOM     14  C   UNL     1       0.005  -6.708   4.519  0.00  0.00    -0.020 A 
ATOM     15  C   UNL     1       0.512  -6.779   5.823  0.00  0.00    +0.012 A 
ATOM     16  C   UNL     1       0.426  -7.957   6.531  0.00  0.00    +0.050 A 
ATOM     17  C   UNL     1      -0.163  -9.076   5.956  0.00  0.00    +0.158 A 
ATOM     18  C   UNL     1      -0.670  -9.014   4.659  0.00  0.00    +0.159 A 
ATOM     19  C   UNL     1      -0.594  -7.836   3.942  0.00  0.00    +0.057 A 
BRANCH  18  20
ATOM     20  O   UNL     1      -1.246 -10.113   4.101  0.00  0.00    -0.503 OA
ATOM     21  H   UNL     1      -2.197 -10.181   4.258  0.00  0.00    +0.292 HD
ENDBRANCH  18  20
BRANCH  17  22
ATOM     22  O   UNL     1      -0.245 -10.235   6.660  0.00  0.00    -0.503 OA
ATOM     23  H   UNL     1      -1.053 -10.321   7.183  0.00  0.00    +0.292 HD
ENDBRANCH  17  22
ENDBRANCH   2  14
BRANCH   1  24
ATOM     24  C   UNL     1       0.351  -6.737   1.722  0.00  0.00    +0.103 C 
ATOM     25  N   UNL     1       0.478  -7.729   1.184  0.00  0.00    -0.191 NA
ENDBRANCH   1  24
TORSDOF 5
