REMARK  Name = ZINC17779640
REMARK  4 active torsions:
REMARK  status: ('A' for Active; 'I' for Inactive)
REMARK    1  A    between atoms: N_7  and  C1*_8
REMARK    2  A    between atoms: C3*_11  and  O3*_18
REMARK    3  A    between atoms: C4*_13  and  C5*_16
REMARK    4  A    between atoms: C5*_16  and  O5*_17
REMARK                            x       y       z     vdW  Elec       q    Type
REMARK                         _______ _______ _______ _____ _____    ______ ____
ROOT
ATOM      1  C   UNL     1       1.149   3.256   0.009  0.00  0.00    +0.113 A 
ATOM      2  C   UNL     1      -0.033   3.919   0.023  0.00  0.00    +0.094 A 
ATOM      3  C   UNL     1      -1.231   3.179   0.030  0.00  0.00    +0.267 A 
ATOM      4  N   UNL     1      -1.183   1.855   0.018  0.00  0.00    -0.274 N 
ATOM      5  C   UNL     1      -0.015   1.216   0.009  0.00  0.00    +0.331 A 
ATOM      6  O   UNL     1       0.002  -0.004   0.002  0.00  0.00    -0.246 OA
ATOM      7  N   UNL     1       1.148   1.894   0.001  0.00  0.00    -0.273 N 
ATOM      8  O   UNL     1      -2.423   3.816   0.045  0.00  0.00    -0.267 OA
ATOM      9  I   UNL     1      -0.077   6.013   0.034  0.00  0.00    -0.037 I 
ATOM     10  H   UNL     1      -2.034   1.330   0.015  0.00  0.00    +0.173 HD
ENDROOT
BRANCH   7  11
ATOM     11  C1* UNL     1       2.418   1.163  -0.014  0.00  0.00    +0.226 C 
ATOM     12  C2* UNL     1       2.558   0.301   1.265  0.00  0.00    +0.088 C 
ATOM     13  C3* UNL     1       3.536  -0.800   0.773  0.00  0.00    +0.150 C 
ATOM     14  C4* UNL     1       3.123  -0.969  -0.705  0.00  0.00    +0.175 C 
ATOM     15  O4* UNL     1       2.441   0.226  -1.103  0.00  0.00    -0.348 OA
BRANCH  13  16
ATOM     16  O3* UNL     1       4.893  -0.363   0.875  0.00  0.00    -0.389 OA
ATOM     17  H3* UNL     1       5.200  -0.243   1.784  0.00  0.00    +0.210 HD
ENDBRANCH  13  16
BRANCH  14  18
ATOM     18  C5* UNL     1       4.367  -1.169  -1.573  0.00  0.00    +0.190 C 
BRANCH  18  19
ATOM     19  O5* UNL     1       3.971  -1.431  -2.921  0.00  0.00    -0.392 OA
ATOM     20  H5* UNL     1       4.711  -1.569  -3.528  0.00  0.00    +0.210 HD
ENDBRANCH  18  19
ENDBRANCH  14  18
ENDBRANCH   7  11
TORSDOF 4
