REMARK  Name = ZINC50561034
REMARK  5 active torsions:
REMARK  status: ('A' for Active; 'I' for Inactive)
REMARK    1  A    between atoms: C_1  and  C_2
REMARK    2  A    between atoms: C_4  and  C_16
REMARK    3  A    between atoms: C_7  and  N_8
REMARK    4  A    between atoms: C_12  and  O_15
REMARK    5  A    between atoms: C_16  and  O_17
REMARK                            x       y       z     vdW  Elec       q    Type
REMARK                         _______ _______ _______ _____ _____    ______ ____
ROOT
ATOM      1  C   UNL     1      -0.018   1.503   0.010  0.00  0.00    +0.045 C 
ATOM      2  C   UNL     1       0.002  -0.004   0.002  0.00  0.00    -0.029 A 
ATOM      3  C   UNL     1       0.006  -0.689  -1.198  0.00  0.00    +0.011 A 
ATOM      4  C   UNL     1       0.024  -2.071  -1.206  0.00  0.00    -0.022 A 
ATOM      5  C   UNL     1       0.039  -2.773  -0.014  0.00  0.00    +0.008 A 
ATOM      6  C   UNL     1       0.036  -2.095   1.188  0.00  0.00    +0.024 A 
ATOM      7  C   UNL     1       0.023  -0.706   1.200  0.00  0.00    +0.033 A 
ENDROOT
BRANCH   7   8
ATOM      8  N   UNL     1       0.025  -0.016   2.415  0.00  0.00    -0.327 N 
ATOM      9  C   UNL     1      -1.238   0.331   3.081  0.00  0.00    +0.105 C 
ATOM     10  C   UNL     1      -1.197  -0.195   4.520  0.00  0.00    +0.021 C 
ATOM     11  C   UNL     1       0.052   0.345   5.221  0.00  0.00    +0.034 C 
ATOM     12  C   UNL     1       1.302  -0.150   4.490  0.00  0.00    +0.132 C 
ATOM     13  C   UNL     1       1.290   0.370   3.054  0.00  0.00    +0.136 C 
BRANCH  12  14
ATOM     14  O   UNL     1       2.469   0.328   5.163  0.00  0.00    -0.390 OA
ATOM     15  H   UNL     1       2.540   0.035   6.082  0.00  0.00    +0.210 HD
ENDBRANCH  12  14
ENDBRANCH   7   8
BRANCH   4  16
ATOM     16  C   UNL     1       0.027  -2.815  -2.517  0.00  0.00    +0.191 C 
BRANCH  16  17
ATOM     17  O   UNL     1       1.375  -3.032  -2.938  0.00  0.00    -0.390 OA
ATOM     18  H   UNL     1       1.453  -3.507  -3.777  0.00  0.00    +0.210 HD
ENDBRANCH  16  17
ENDBRANCH   4  16
TORSDOF 4
