REMARK  Name = ZINC40688727
REMARK  9 active torsions:
REMARK  status: ('A' for Active; 'I' for Inactive)
REMARK    1  A    between atoms: C_1  and  C_2
REMARK    2  A    between atoms: C_6  and  N_8
REMARK    3  A    between atoms: C_10  and  N_35
REMARK    4  A    between atoms: C_11  and  N_15
REMARK    5  A    between atoms: N_15  and  C_16
REMARK    6  A    between atoms: C_19  and  C_23
REMARK    7  A    between atoms: C_21  and  C_22
REMARK    8  A    between atoms: C_23  and  C_25
REMARK    9  A    between atoms: C_23  and  C_27
REMARK                            x       y       z     vdW  Elec       q    Type
REMARK                         _______ _______ _______ _____ _____    ______ ____
ROOT
ATOM      1  N   UNL     1      -0.900  -7.245   2.789  0.00  0.00    -0.298 N 
ATOM      2  H   UNL     1      -1.351  -6.643   3.402  0.00  0.00    +0.154 HD
ENDROOT
BRANCH   1   6
ATOM      3  N   UNL     1      -0.477  -3.758  -0.538  0.00  0.00    -0.298 N 
ATOM      4  C   UNL     1      -0.221  -5.045  -0.078  0.00  0.00    +0.149 A 
ATOM      5  C   UNL     1      -0.718  -5.469   1.156  0.00  0.00    +0.106 A 
ATOM      6  C   UNL     1      -0.430  -6.771   1.569  0.00  0.00    +0.149 A 
ATOM      7  N   UNL     1       0.301  -7.553   0.778  0.00  0.00    -0.219 NA
ATOM      8  C   UNL     1       0.751  -7.112  -0.380  0.00  0.00    +0.225 A 
ATOM      9  N   UNL     1       0.498  -5.893  -0.810  0.00  0.00    -0.219 NA
ATOM     10  H   UNL     1      -0.986  -3.139   0.010  0.00  0.00    +0.154 HD
BRANCH   3  16
ATOM     11  C   UNL     1       1.419  -0.253  -3.415  0.00  0.00    +0.044 C 
ATOM     12  C   UNL     1       0.922  -1.661  -3.213  0.00  0.00    -0.049 A 
ATOM     13  C   UNL     1       0.936  -2.557  -4.266  0.00  0.00    +0.003 A 
ATOM     14  C   UNL     1       0.482  -3.850  -4.085  0.00  0.00    +0.002 A 
ATOM     15  C   UNL     1       0.012  -4.252  -2.849  0.00  0.00    +0.023 A 
ATOM     16  C   UNL     1      -0.003  -3.355  -1.789  0.00  0.00    +0.033 A 
ATOM     17  C   UNL     1       0.459  -2.058  -1.974  0.00  0.00    +0.026 A 
ENDBRANCH   3  16
BRANCH   5  18
ATOM     18  N   UNL     1      -1.485  -4.611   1.958  0.00  0.00    -0.353 N 
ATOM     19  H   UNL     1      -1.676  -3.708   1.658  0.00  0.00    +0.143 HD
ATOM     20  H   UNL     1      -1.824  -4.920   2.813  0.00  0.00    +0.143 HD
ENDBRANCH   5  18
ENDBRANCH   1   6
BRANCH   1  21
ATOM     21  C   UNL     1      -0.724  -8.588   3.132  0.00  0.00    +0.037 A 
ATOM     22  C   UNL     1      -0.486  -9.534   2.143  0.00  0.00    +0.043 A 
ATOM     23  C   UNL     1      -0.312 -10.861   2.486  0.00  0.00    +0.047 A 
ATOM     24  C   UNL     1      -0.374 -11.248   3.814  0.00  0.00    -0.008 A 
ATOM     25  C   UNL     1      -0.611 -10.308   4.800  0.00  0.00    +0.011 A 
ATOM     26  C   UNL     1      -0.781  -8.979   4.464  0.00  0.00    -0.029 A 
ATOM     27  C   UNL     1      -1.032  -7.955   5.541  0.00  0.00    +0.045 C 
ATOM     28 CL   UNL     1      -0.015 -12.044   1.251  0.00  0.00    -0.083 Cl
BRANCH  24  29
ATOM     29  C   UNL     1      -0.184 -12.696   4.185  0.00  0.00    +0.153 C 
BRANCH  29  30
ATOM     30  C   UNL     1      -1.470 -13.243   4.749  0.00  0.00    -0.026 A 
ATOM     31  C   UNL     1      -1.870 -12.889   6.024  0.00  0.00    +0.006 A 
ATOM     32  C   UNL     1      -3.050 -13.390   6.543  0.00  0.00    +0.020 A 
ATOM     33  C   UNL     1      -3.829 -14.246   5.786  0.00  0.00    +0.041 A 
ATOM     34  C   UNL     1      -3.428 -14.600   4.510  0.00  0.00    +0.020 A 
ATOM     35  C   UNL     1      -2.252 -14.094   3.990  0.00  0.00    +0.006 A 
ATOM     36 CL   UNL     1      -5.310 -14.876   6.437  0.00  0.00    -0.084 Cl
ENDBRANCH  29  30
BRANCH  29  37
ATOM     37  C   UNL     1       0.882 -12.808   5.194  0.00  0.00    +0.075 C 
ATOM     38  N   UNL     1       1.704 -12.895   5.972  0.00  0.00    -0.196 NA
ENDBRANCH  29  37
ENDBRANCH  24  29
ENDBRANCH   1  21
TORSDOF 7
