REMARK  Name = ZINC05072157
REMARK  1 active torsions:
REMARK  status: ('A' for Active; 'I' for Inactive)
REMARK    1  A    between atoms: C_5  and  C_7
REMARK                            x       y       z     vdW  Elec       q    Type
REMARK                         _______ _______ _______ _____ _____    ______ ____
ROOT
ATOM      1  C   UNL     1      -3.122   0.022   0.029  0.00  0.00    +0.219 C 
ATOM      2  C   UNL     1      -5.131   1.391  -0.170  0.00  0.00    +0.159 C 
ATOM      3  N   UNL     1      -4.448   2.573   0.047  0.00  0.00    -0.259 N 
ATOM      4  C   UNL     1      -3.061   2.513  -0.011  0.00  0.00    +0.205 A 
ATOM      5  N   UNL     1      -2.414   1.300  -0.028  0.00  0.00    -0.287 N 
ATOM      6  C   UNL     1      -1.064   1.555  -0.100  0.00  0.00    +0.072 A 
ATOM      7  C   UNL     1       0.072   0.760  -0.153  0.00  0.00    +0.028 A 
ATOM      8  C   UNL     1       1.319   1.344  -0.227  0.00  0.00    +0.002 A 
ATOM      9  C   UNL     1       1.449   2.725  -0.244  0.00  0.00    +0.002 A 
ATOM     10  C   UNL     1       0.335   3.531  -0.187  0.00  0.00    +0.030 A 
ATOM     11  C   UNL     1      -0.936   2.957  -0.112  0.00  0.00    +0.091 A 
ATOM     12  N   UNL     1      -2.192   3.478  -0.049  0.00  0.00    -0.214 NA
ATOM     13  N   UNL     1      -6.489   1.445  -0.376  0.00  0.00    -0.332 N 
ATOM     14  H   UNL     1      -4.914   3.403   0.231  0.00  0.00    +0.158 HD
ATOM     15  H   UNL     1      -6.947   2.300  -0.367  0.00  0.00    +0.145 HD
ATOM     16  H   UNL     1      -6.989   0.629  -0.530  0.00  0.00    +0.145 HD
ATOM     17  N   UNL     1      -4.612   0.156  -0.206  0.00  0.00    -0.337 N 
ATOM     18  H   UNL     1      -5.200  -0.666  -0.386  0.00  0.00    +0.164 HD
ENDROOT
BRANCH   1  23
ATOM     19  C   UNL     1      -2.251  -0.422   3.675  0.00  0.00    +0.000 A 
ATOM     20  C   UNL     1      -2.520  -1.766   3.862  0.00  0.00    +0.001 A 
ATOM     21  C   UNL     1      -2.984  -2.531   2.809  0.00  0.00    +0.015 A 
ATOM     22  C   UNL     1      -3.179  -1.952   1.567  0.00  0.00    +0.025 A 
ATOM     23  C   UNL     1      -2.909  -0.609   1.381  0.00  0.00    +0.009 A 
ATOM     24  C   UNL     1      -2.440   0.155   2.434  0.00  0.00    +0.008 A 
ATOM     25 BR   UNL     1      -3.814  -2.998   0.126  0.00  0.00    -0.050 Br
ENDBRANCH   1  23
TORSDOF 1
