REMARK  Name = ZINC01465321
REMARK  9 active torsions:
REMARK  status: ('A' for Active; 'I' for Inactive)
REMARK    1  A    between atoms: C_1  and  C_2
REMARK    2  A    between atoms: C_2  and  O_3
REMARK    3  A    between atoms: O_3  and  C_4
REMARK    4  A    between atoms: C_4  and  C_6
REMARK    5  A    between atoms: C_10  and  N_11
REMARK    6  A    between atoms: C_12  and  C_14
REMARK    7  A    between atoms: C_14  and  C_15
REMARK    8  A    between atoms: C_15  and  C_17
REMARK    9  A    between atoms: C_19  and  C_23
REMARK                            x       y       z     vdW  Elec       q    Type
REMARK                         _______ _______ _______ _____ _____    ______ ____
ROOT
ATOM      1  C   UNL     1      -3.680   1.651   0.029  0.00  0.00    +0.091 A 
ATOM      2  C   UNL     1      -4.765   0.684   0.029  0.00  0.00    -0.021 A 
ATOM      3  C   UNL     1      -4.381  -0.611   0.020  0.00  0.00    -0.004 A 
ATOM      4  S   UNL     1      -2.612  -0.560   0.004  0.00  0.00    -0.077 S 
ATOM      5  C   UNL     1      -2.381   1.157   0.020  0.00  0.00    +0.086 A 
ATOM      6  C   UNL     1      -5.271  -1.817   0.018  0.00  0.00    +0.046 C 
ATOM      7  C   UNL     1      -6.688  -1.372   0.406  0.00  0.00    -0.009 C 
ATOM      8  C   UNL     1      -7.063  -0.140  -0.423  0.00  0.00    +0.008 C 
ATOM      9  C   UNL     1      -6.240   1.065   0.036  0.00  0.00    +0.037 C 
ATOM     10  C   UNL     1      -7.677  -2.505   0.121  0.00  0.00    +0.008 C 
ENDROOT
BRANCH   5  11
ATOM     11  N   UNL     1      -1.191   1.867   0.018  0.00  0.00    -0.279 N 
ATOM     12  C   UNL     1      -0.014   1.209   0.009  0.00  0.00    +0.225 C 
ATOM     13  O   UNL     1       0.002  -0.004   0.002  0.00  0.00    -0.275 OA
ATOM     14  H   UNL     1      -1.204   2.836   0.023  0.00  0.00    +0.155 HD
BRANCH  12  15
ATOM     15  C   UNL     1       1.280   1.980   0.001  0.00  0.00    +0.170 C 
BRANCH  15  16
ATOM     16  C   UNL     1       2.439   1.016  -0.016  0.00  0.00    +0.139 C 
ATOM     17  O   UNL     1       2.234  -0.174  -0.020  0.00  0.00    -0.297 OA
ATOM     18  C   UNL     1       3.853   1.538  -0.026  0.00  0.00    +0.086 C 
ENDBRANCH  15  16
ENDBRANCH  12  15
ENDBRANCH   5  11
BRANCH   1  19
ATOM     19  C   UNL     1      -3.945   3.091   0.037  0.00  0.00    +0.342 C 
ATOM     20  O   UNL     1      -4.060   3.694  -1.013  0.00  0.00    -0.245 OA
BRANCH  19  21
ATOM     21  O   UNL     1      -4.062   3.748   1.209  0.00  0.00    -0.461 OA
BRANCH  21  23
ATOM     22  C   UNL     1      -4.425   5.742   2.559  0.00  0.00    +0.048 C 
ATOM     23  C   UNL     1      -4.325   5.174   1.141  0.00  0.00    +0.229 C 
ENDBRANCH  21  23
ENDBRANCH  19  21
ENDBRANCH   1  19
TORSDOF 6
