REMARK  Name = ZINC20720960
REMARK  3 active torsions:
REMARK  status: ('A' for Active; 'I' for Inactive)
REMARK    1  A    between atoms: C_1  and  N_2
REMARK    2  A    between atoms: N_7  and  C_10
REMARK    3  A    between atoms: C_11  and  C_17
REMARK                            x       y       z     vdW  Elec       q    Type
REMARK                         _______ _______ _______ _____ _____    ______ ____
ROOT
ATOM      1  C   UNL     1      -0.018   1.461   0.010  0.00  0.00    +0.155 C 
ATOM      2  N   UNL     1       0.002  -0.004   0.002  0.00  0.00    -0.284 N 
ATOM      3  C   UNL     1      -1.180  -0.704   0.004  0.00  0.00    +0.118 A 
ATOM      4  C   UNL     1      -1.151  -2.066  -0.004  0.00  0.00    +0.063 A 
ATOM      5  C   UNL     1       0.089  -2.727  -0.014  0.00  0.00    +0.262 A 
ATOM      6  O   UNL     1       0.136  -3.945  -0.021  0.00  0.00    -0.267 OA
ATOM      7  N   UNL     1       1.226  -2.002  -0.015  0.00  0.00    -0.264 N 
ATOM      8  C   UNL     1       1.178  -0.658  -0.013  0.00  0.00    +0.333 A 
ATOM      9  O   UNL     1       2.215  -0.023  -0.019  0.00  0.00    -0.246 OA
ATOM     10  C   UNL     1       2.523  -2.684  -0.025  0.00  0.00    +0.157 C 
ATOM     11  C   UNL     1      -2.433  -2.854  -0.003  0.00  0.00    +0.066 C 
ATOM     12  C   UNL     1      -3.492  -2.101   0.805  0.00  0.00    +0.109 C 
ATOM     13  C   UNL     1      -3.515  -0.656   0.383  0.00  0.00    +0.219 C 
ATOM     14  O   UNL     1      -4.565  -0.048   0.378  0.00  0.00    -0.275 OA
ATOM     15  N   UNL     1      -2.382  -0.033   0.013  0.00  0.00    -0.271 N 
ATOM     16  H   UNL     1      -2.412   0.900  -0.250  0.00  0.00    +0.156 HD
ENDROOT
BRANCH  11  17
ATOM     17  C   UNL     1      -2.915  -3.031  -1.420  0.00  0.00    -0.039 A 
ATOM     18  C   UNL     1      -3.198  -1.924  -2.198  0.00  0.00    +0.005 A 
ATOM     19  C   UNL     1      -3.640  -2.087  -3.497  0.00  0.00    +0.015 A 
ATOM     20  C   UNL     1      -3.798  -3.358  -4.020  0.00  0.00    +0.018 A 
ATOM     21  C   UNL     1      -3.514  -4.465  -3.241  0.00  0.00    +0.015 A 
ATOM     22  C   UNL     1      -3.068  -4.302  -1.944  0.00  0.00    +0.005 A 
ATOM     23 BR   UNL     1      -4.402  -3.581  -5.798  0.00  0.00    -0.050 Br
ENDBRANCH  11  17
TORSDOF 1
