REMARK  Name = ZINC22111751
REMARK  12 active torsions:
REMARK  status: ('A' for Active; 'I' for Inactive)
REMARK    1  A    between atoms: C_1  and  C_2
REMARK    2  A    between atoms: C_2  and  C_4
REMARK    3  A    between atoms: C_2  and  O_14
REMARK    4  A    between atoms: N_6  and  C_7
REMARK    5  A    between atoms: C_7  and  C_8
REMARK    6  A    between atoms: C_7  and  C_9
REMARK    7  A    between atoms: C_7  and  C_11
REMARK    8  A    between atoms: C_11  and  C_12
REMARK    9  A    between atoms: C_11  and  C_13
REMARK   10  A    between atoms: O_14  and  C_15
REMARK   11  A    between atoms: C_15  and  C_17
REMARK   12  A    between atoms: C_21  and  N_23
REMARK                            x       y       z     vdW  Elec       q    Type
REMARK                         _______ _______ _______ _____ _____    ______ ____
ROOT
ATOM      1  C   UNL     1      -0.019   1.526   0.010  0.00  0.00    +0.062 C 
ATOM      2  C   UNL     1       0.002  -0.004   0.002  0.00  0.00    +0.259 C 
ENDROOT
BRANCH   2   3
ATOM      3  C   UNL     1       0.731  -0.503   1.223  0.00  0.00    +0.255 C 
ATOM      4  O   UNL     1       0.135  -1.137   2.068  0.00  0.00    -0.272 OA
ATOM      5  N   UNL     1       2.045  -0.246   1.375  0.00  0.00    -0.294 N 
ATOM      6  H   UNL     1       2.522   0.261   0.699  0.00  0.00    +0.150 HD
BRANCH   5   7
ATOM      7  C   UNL     1       2.754  -0.731   2.562  0.00  0.00    +0.121 C 
ATOM      8  C   UNL     1       2.112  -0.137   3.818  0.00  0.00    +0.048 C 
BRANCH   7   9
ATOM      9  C   UNL     1       4.222  -0.306   2.489  0.00  0.00    +0.020 C 
ATOM     10  C   UNL     1       4.315   1.220   2.558  0.00  0.00    +0.010 C 
ATOM     11  C   UNL     1       4.989  -0.917   3.664  0.00  0.00    +0.010 C 
ENDBRANCH   7   9
BRANCH   7  12
ATOM     12  C   UNL     1       2.670  -2.200   2.617  0.00  0.00    +0.088 C 
ATOM     13  N   UNL     1       2.606  -3.333   2.660  0.00  0.00    -0.194 NA
ENDBRANCH   7  12
ENDBRANCH   5   7
ENDBRANCH   2   3
BRANCH   2  14
ATOM     14  O   UNL     1      -1.339  -0.499   0.012  0.00  0.00    -0.449 OA
BRANCH  14  15
ATOM     15  C   UNL     1      -1.924  -0.704  -1.184  0.00  0.00    +0.340 C 
ATOM     16  O   UNL     1      -1.313  -0.469  -2.207  0.00  0.00    -0.245 OA
BRANCH  15  17
ATOM     17  C   UNL     1      -3.308  -1.214  -1.251  0.00  0.00    +0.061 A 
ATOM     18  C   UNL     1      -4.015  -1.479  -0.075  0.00  0.00    +0.016 A 
ATOM     19  C   UNL     1      -5.308  -1.955  -0.140  0.00  0.00    +0.022 A 
ATOM     20  C   UNL     1      -5.910  -2.171  -1.367  0.00  0.00    +0.062 A 
ATOM     21  C   UNL     1      -5.214  -1.911  -2.543  0.00  0.00    +0.044 A 
ATOM     22  C   UNL     1      -3.917  -1.427  -2.489  0.00  0.00    +0.039 A 
ATOM     23 CL   UNL     1      -7.537  -2.771  -1.439  0.00  0.00    -0.082 Cl
BRANCH  21  24
ATOM     24  N   UNL     1      -5.826  -2.132  -3.781  0.00  0.00    -0.357 N 
ATOM     25  H   UNL     1      -6.736  -2.467  -3.819  0.00  0.00    +0.142 HD
ATOM     26  H   UNL     1      -5.341  -1.950  -4.601  0.00  0.00    +0.142 HD
ENDBRANCH  21  24
ENDBRANCH  15  17
ENDBRANCH  14  15
ENDBRANCH   2  14
TORSDOF 8
