REMARK  Name = ZINC14745873
REMARK  9 active torsions:
REMARK  status: ('A' for Active; 'I' for Inactive)
REMARK    1  A    between atoms: C_1  and  C_2
REMARK    2  A    between atoms: C_2  and  C_3
REMARK    3  A    between atoms: C_2  and  C_4
REMARK    4  A    between atoms: C_4  and  N_5
REMARK    5  A    between atoms: N_8  and  C_24
REMARK    6  A    between atoms: C_16  and  C_17
REMARK    7  A    between atoms: C_16  and  N_61
REMARK    8  A    between atoms: C_20  and  O_23
REMARK    9  A    between atoms: C_24  and  C_25
REMARK                            x       y       z     vdW  Elec       q    Type
REMARK                         _______ _______ _______ _____ _____    ______ ____
ROOT
ATOM      1  N   UNL     1      -2.030   1.072   1.385  0.00  0.00    -0.271 N 
ATOM      2  C   UNL     1      -1.955   0.398   2.549  0.00  0.00    +0.312 C 
ATOM      3  O   UNL     1      -2.845  -0.310   2.978  0.00  0.00    -0.252 OA
ATOM      4  N   UNL     1      -0.791   0.595   3.179  0.00  0.00    -0.218 N 
ATOM      5  C   UNL     1       0.016   1.423   2.485  0.00  0.00    +0.247 C 
ATOM      6  O   UNL     1       1.129   1.792   2.792  0.00  0.00    -0.273 OA
ATOM      7  C   UNL     1      -0.760   1.794   1.242  0.00  0.00    +0.112 C 
ATOM      8  C   UNL     1      -0.018   1.332  -0.008  0.00  0.00    +0.017 C 
ATOM      9  C   UNL     1      -0.813   1.745  -1.250  0.00  0.00    -0.076 C 
ATOM     10  C   UNL     1      -1.766   3.648  -0.088  0.00  0.00    -0.076 C 
ATOM     11  C   UNL     1      -1.003   3.299   1.193  0.00  0.00    +0.017 C 
ATOM     12  N   UNL     1      -0.964   3.216  -1.254  0.00  0.00    +0.382 N 
ATOM     13  H   UNL     1      -0.034   3.647  -1.196  0.00  0.00    -0.081 HD
ENDROOT
BRANCH   1  14
ATOM     14  C   UNL     1      -3.155   1.081   0.447  0.00  0.00    +0.113 C 
BRANCH  14  16
ATOM     15  C   UNL     1      -4.201   3.055   1.567  0.00  0.00    +0.009 C 
ATOM     16  C   UNL     1      -4.408   1.595   1.159  0.00  0.00    +0.000 C 
ATOM     17  C   UNL     1      -5.608   1.495   0.215  0.00  0.00    +0.009 C 
ENDBRANCH  14  16
ENDBRANCH   1  14
BRANCH  12  18
ATOM     18  C   UNL     1      -1.618   3.653  -2.505  0.00  0.00    -0.043 C 
BRANCH  18  19
ATOM     19  C   UNL     1      -1.563   5.157  -2.581  0.00  0.00    -0.064 A 
ATOM     20  C   UNL     1      -2.600   5.913  -2.066  0.00  0.00    +0.005 A 
ATOM     21  C   UNL     1      -2.550   7.292  -2.130  0.00  0.00    +0.045 A 
ATOM     22  C   UNL     1      -1.462   7.918  -2.721  0.00  0.00    +0.117 A 
ATOM     23  C   UNL     1      -0.425   7.157  -3.242  0.00  0.00    +0.045 A 
ATOM     24  C   UNL     1      -0.478   5.779  -3.171  0.00  0.00    +0.005 A 
BRANCH  22  25
ATOM     25  O   UNL     1      -1.412   9.274  -2.790  0.00  0.00    -0.507 OA
ATOM     26  H   UNL     1      -1.808   9.643  -3.592  0.00  0.00    +0.292 HD
ENDBRANCH  22  25
ENDBRANCH  18  19
ENDBRANCH  12  18
BRANCH   4  27
ATOM     27  C   UNL     1      -0.438  -0.013   4.465  0.00  0.00    +0.173 C 
BRANCH  27  28
ATOM     28  C   UNL     1       0.242  -1.336   4.225  0.00  0.00    +0.059 A 
ATOM     29  C   UNL     1       1.622  -1.399   4.187  0.00  0.00    +0.025 A 
ATOM     30  C   UNL     1       2.238  -2.621   3.966  0.00  0.00    +0.003 A 
ATOM     31  C   UNL     1       1.438  -3.740   3.790  0.00  0.00    +0.020 A 
ATOM     32  C   UNL     1       0.064  -3.600   3.840  0.00  0.00    +0.111 A 
ATOM     33  N   UNL     1      -0.487  -2.422   4.058  0.00  0.00    -0.258 NA
ENDBRANCH  27  28
ENDBRANCH   4  27
TORSDOF 7
