REMARK  Name = ZINC03838678
REMARK  8 active torsions:
REMARK  status: ('A' for Active; 'I' for Inactive)
REMARK    1  A    between atoms: C_4  and  C_7
REMARK    2  A    between atoms: C_7  and  N_8
REMARK    3  A    between atoms: C_9  and  C_11
REMARK    4  A    between atoms: C_19  and  C_21
REMARK    5  A    between atoms: C_21  and  N_22
REMARK    6  A    between atoms: C_24  and  C_27
REMARK    7  A    between atoms: C_27  and  O_28
REMARK    8  A    between atoms: O_28  and  C_29
REMARK                            x       y       z     vdW  Elec       q    Type
REMARK                         _______ _______ _______ _____ _____    ______ ____
ROOT
ATOM      1  C   UNL     1      -0.754   1.593  -1.232  0.00  0.00    +0.061 C 
ATOM      2  C   UNL     1      -0.013   1.086   0.008  0.00  0.00    -0.065 C 
ATOM      3  C   UNL     1      -0.700   3.028   1.283  0.00  0.00    -0.078 C 
ATOM      4  C   UNL     1      -1.461   3.591   0.078  0.00  0.00    -0.015 C 
ATOM      5  C   UNL     1      -1.963   2.424  -0.781  0.00  0.00    -0.004 C 
ATOM      6  C   UNL     1      -2.871   1.537   0.081  0.00  0.00    -0.010 C 
ATOM      7  C   UNL     1      -2.071   1.032   1.284  0.00  0.00    -0.046 C 
ATOM      8  N   UNL     1      -0.687   1.550   1.240  0.00  0.00    +0.383 N 
ATOM      9  H   UNL     1      -0.172   1.197   2.055  0.00  0.00    -0.081 HD
ENDROOT
BRANCH   1  11
ATOM     10  N   UNL     1       1.310   1.929  -2.553  0.00  0.00    -0.311 N 
ATOM     11  C   UNL     1       0.171   2.450  -2.058  0.00  0.00    +0.215 C 
ATOM     12  O   UNL     1      -0.111   3.610  -2.277  0.00  0.00    -0.276 OA
ATOM     13  H   UNL     1       1.535   1.001  -2.378  0.00  0.00    +0.149 HD
BRANCH  10  14
ATOM     14  C   UNL     1       2.209   2.761  -3.356  0.00  0.00    +0.139 C 
BRANCH  14  18
ATOM     15  C   UNL     1       5.589   0.449  -4.570  0.00  0.00    +0.000 A 
ATOM     16  C   UNL     1       4.460   0.493  -5.366  0.00  0.00    +0.000 A 
ATOM     17  C   UNL     1       3.366   1.242  -4.973  0.00  0.00    +0.005 A 
ATOM     18  C   UNL     1       3.401   1.945  -3.784  0.00  0.00    -0.030 A 
ATOM     19  C   UNL     1       4.532   1.905  -2.990  0.00  0.00    +0.005 A 
ATOM     20  C   UNL     1       5.624   1.153  -3.381  0.00  0.00    +0.000 A 
ENDBRANCH  14  18
ENDBRANCH  10  14
ENDBRANCH   1  11
BRANCH   7  21
ATOM     21  C   UNL     1      -2.738   1.508   2.577  0.00  0.00    +0.130 C 
BRANCH  21  22
ATOM     22  N   UNL     1      -2.043   0.926   3.728  0.00  0.00    -0.253 N 
ATOM     23  C   UNL     1      -1.506   1.615   4.761  0.00  0.00    +0.137 A 
ATOM     24  C   UNL     1      -0.970   0.692   5.593  0.00  0.00    +0.120 A 
ATOM     25  N   UNL     1      -1.195  -0.501   5.031  0.00  0.00    -0.131 NA
ATOM     26  N   UNL     1      -1.833  -0.328   3.927  0.00  0.00    -0.065 NA
BRANCH  24  27
ATOM     27  C   UNL     1      -0.255   0.956   6.893  0.00  0.00    +0.287 C 
BRANCH  27  28
ATOM     28  O   UNL     1      -0.223   2.362   7.142  0.00  0.00    -0.486 OA
BRANCH  28  29
ATOM     29  C   UNL     1       0.390   2.773   8.283  0.00  0.00    +0.121 A 
ATOM     30  C   UNL     1       0.945   1.841   9.147  0.00  0.00    +0.045 A 
ATOM     31  C   UNL     1       1.574   2.262  10.303  0.00  0.00    +0.004 A 
ATOM     32  C   UNL     1       1.639   3.610  10.605  0.00  0.00    +0.000 A 
ATOM     33  C   UNL     1       1.082   4.540   9.748  0.00  0.00    +0.004 A 
ATOM     34  C   UNL     1       0.458   4.125   8.587  0.00  0.00    +0.045 A 
ENDBRANCH  28  29
ENDBRANCH  27  28
ENDBRANCH  24  27
ENDBRANCH  21  22
ENDBRANCH   7  21
TORSDOF 8
