REMARK  Name = ZINC20720643
REMARK  4 active torsions:
REMARK  status: ('A' for Active; 'I' for Inactive)
REMARK    1  A    between atoms: C_1  and  C_2
REMARK    2  A    between atoms: C_3  and  N_9
REMARK    3  A    between atoms: N_25  and  C_28
REMARK    4  A    between atoms: C_28  and  C_29
REMARK                            x       y       z     vdW  Elec       q    Type
REMARK                         _______ _______ _______ _____ _____    ______ ____
ROOT
ATOM      1  N   UNL     1      -0.161  -0.119  -2.481  0.00  0.00    -0.218 N 
ATOM      2  C   UNL     1      -0.347  -0.722  -3.672  0.00  0.00    +0.133 A 
ATOM      3  C   UNL     1      -0.391   0.260  -4.630  0.00  0.00    +0.032 A 
ATOM      4  C   UNL     1      -0.214   1.481  -3.997  0.00  0.00    +0.141 A 
ATOM      5  N   UNL     1      -0.081   1.264  -2.710  0.00  0.00    -0.173 NA
ATOM      6  C   UNL     1      -0.608  -0.054  -6.084  0.00  0.00    +0.112 C 
ATOM      7  C   UNL     1      -0.081  -1.456  -6.381  0.00  0.00    +0.122 C 
ATOM      8  C   UNL     1      -0.469  -2.424  -5.298  0.00  0.00    +0.220 C 
ATOM      9  O   UNL     1      -0.767  -3.560  -5.604  0.00  0.00    -0.275 OA
ATOM     10  N   UNL     1      -0.498  -2.069  -3.996  0.00  0.00    -0.270 N 
ATOM     11  C   UNL     1      -2.051   0.070  -6.455  0.00  0.00    -0.006 A 
ATOM     12  C   UNL     1      -3.172  -0.593  -6.005  0.00  0.00    +0.007 A 
ATOM     13  C   UNL     1      -4.390  -0.229  -6.570  0.00  0.00    +0.000 A 
ATOM     14  C   UNL     1      -4.469   0.752  -7.537  0.00  0.00    +0.002 A 
ATOM     15  C   UNL     1      -3.346   1.424  -7.994  0.00  0.00    +0.024 A 
ATOM     16  C   UNL     1      -2.117   1.069  -7.435  0.00  0.00    +0.041 A 
ATOM     17  N   UNL     1      -0.854   1.567  -7.701  0.00  0.00    -0.261 N 
ATOM     18  C   UNL     1       0.095   0.965  -6.953  0.00  0.00    +0.236 C 
ATOM     19  O   UNL     1       1.285   1.197  -6.973  0.00  0.00    -0.274 OA
ATOM     20  H   UNL     1      -0.620  -2.736  -3.302  0.00  0.00    +0.156 HD
ENDROOT
BRANCH   1  23
ATOM     21  C   UNL     1      -1.711   0.905  -0.325  0.00  0.00    +0.047 C 
ATOM     22  C   UNL     1      -0.809  -0.291  -0.159  0.00  0.00    -0.007 A 
ATOM     23  C   UNL     1      -0.069  -0.758  -1.236  0.00  0.00    +0.072 A 
ATOM     24  C   UNL     1       0.761  -1.860  -1.080  0.00  0.00    +0.028 A 
ATOM     25  C   UNL     1       0.849  -2.488   0.147  0.00  0.00    +0.004 A 
ATOM     26  C   UNL     1       0.112  -2.022   1.219  0.00  0.00    +0.020 A 
ATOM     27  C   UNL     1      -0.713  -0.920   1.068  0.00  0.00    +0.046 A 
ATOM     28 CL   UNL     1      -1.631  -0.332   2.419  0.00  0.00    -0.083 Cl
ENDBRANCH   1  23
BRANCH  17  29
ATOM     29  C   UNL     1      -0.579   2.622  -8.679  0.00  0.00    +0.209 C 
BRANCH  29  30
ATOM     30  C   UNL     1      -0.659   3.967  -8.002  0.00  0.00    +0.228 C 
ATOM     31  O   UNL     1      -0.921   4.036  -6.820  0.00  0.00    -0.274 OA
ATOM     32  N   UNL     1      -0.440   5.092  -8.712  0.00  0.00    -0.328 N 
ATOM     33  H   UNL     1      -0.231   5.036  -9.657  0.00  0.00    +0.145 HD
ATOM     34  H   UNL     1      -0.492   5.957  -8.277  0.00  0.00    +0.145 HD
ENDBRANCH  29  30
ENDBRANCH  17  29
TORSDOF 3
