REMARK  Name = ZINC58089831
REMARK  8 active torsions:
REMARK  status: ('A' for Active; 'I' for Inactive)
REMARK    1  A    between atoms: C_1  and  C_2
REMARK    2  A    between atoms: C_2  and  C_3
REMARK    3  A    between atoms: C_3  and  C_4
REMARK    4  A    between atoms: C_4  and  C_6
REMARK    5  A    between atoms: C_4  and  O_19
REMARK    6  A    between atoms: C_12  and  C_17
REMARK    7  A    between atoms: C_12  and  C_18
REMARK    8  A    between atoms: N_15  and  C_16
REMARK                            x       y       z     vdW  Elec       q    Type
REMARK                         _______ _______ _______ _____ _____    ______ ____
ROOT
ATOM      1  C   UNL     1       1.596  -2.538   2.386  0.00  0.00    -0.019 A 
ATOM      2  C   UNL     1       1.026  -2.691   3.638  0.00  0.00    +0.008 A 
ATOM      3  C   UNL     1       1.783  -3.146   4.697  0.00  0.00    +0.024 A 
ATOM      4  C   UNL     1       3.129  -3.456   4.514  0.00  0.00    +0.040 A 
ATOM      5  C   UNL     1       3.689  -3.298   3.252  0.00  0.00    -0.011 A 
ATOM      6  C   UNL     1       2.931  -2.849   2.195  0.00  0.00    +0.012 A 
ATOM      7  C   UNL     1       5.138  -3.709   3.376  0.00  0.00    +0.068 C 
ATOM      8  C   UNL     1       5.287  -4.100   4.831  0.00  0.00    +0.230 C 
ATOM      9  O   UNL     1       6.298  -4.496   5.371  0.00  0.00    -0.274 OA
ATOM     10  N   UNL     1       4.088  -3.925   5.412  0.00  0.00    -0.273 N 
ATOM     11  C   UNL     1       3.819  -4.195   6.827  0.00  0.00    +0.138 C 
ATOM     12  C   UNL     1       5.436  -4.904   2.467  0.00  0.00    +0.025 C 
ATOM     13  C   UNL     1       6.059  -2.535   3.039  0.00  0.00    +0.025 C 
ENDROOT
BRANCH   1  14
ATOM     14  C   UNL     1       0.763  -2.041   1.233  0.00  0.00    +0.145 C 
BRANCH  14  15
ATOM     15  O   UNL     1      -0.572  -2.536   1.361  0.00  0.00    -0.387 OA
ATOM     16  H   UNL     1      -1.017  -2.261   2.174  0.00  0.00    +0.210 HD
ENDBRANCH  14  15
BRANCH  14  17
ATOM     17  C   UNL     1       0.742  -0.511   1.242  0.00  0.00    +0.036 C 
BRANCH  17  19
ATOM     18  C   UNL     1      -0.019   1.526   0.010  0.00  0.00    +0.004 C 
ATOM     19  C   UNL     1       0.002  -0.004   0.002  0.00  0.00    -0.001 C 
ENDBRANCH  17  19
ENDBRANCH  14  17
ENDBRANCH   1  14
TORSDOF 4
