REMARK  Name = ZINC61187569
REMARK  6 active torsions:
REMARK  status: ('A' for Active; 'I' for Inactive)
REMARK    1  A    between atoms: C_1  and  C_2
REMARK    2  A    between atoms: C_7  and  C_8
REMARK    3  A    between atoms: C_8  and  C_9
REMARK    4  A    between atoms: C_8  and  N_10
REMARK    5  A    between atoms: N_13  and  C_14
REMARK    6  A    between atoms: C_14  and  C_15
REMARK                            x       y       z     vdW  Elec       q    Type
REMARK                         _______ _______ _______ _____ _____    ______ ____
ROOT
ATOM      1  N   UNL     1       0.630  -0.793   3.543  0.00  0.00    -0.293 N 
ATOM      2  C   UNL     1       1.199  -0.221   4.623  0.00  0.00    +0.300 C 
ATOM      3  O   UNL     1       1.211   0.989   4.735  0.00  0.00    -0.253 OA
ATOM      4  N   UNL     1       1.756  -0.992   5.578  0.00  0.00    -0.294 N 
ATOM      5  H   UNL     1       0.621  -1.758   3.453  0.00  0.00    +0.151 HD
ATOM      6  H   UNL     1       1.747  -1.958   5.489  0.00  0.00    +0.151 HD
ENDROOT
BRANCH   1   7
ATOM      7  C   UNL     1       0.025   0.045   2.504  0.00  0.00    +0.102 C 
ATOM      8  C   UNL     1      -1.413   0.387   2.899  0.00  0.00    +0.033 C 
BRANCH   7  15
ATOM      9  C   UNL     1      -0.018   1.503   0.010  0.00  0.00    +0.044 C 
ATOM     10  C   UNL     1       0.002  -0.004   0.002  0.00  0.00    -0.046 A 
ATOM     11  C   UNL     1       0.006  -0.689  -1.199  0.00  0.00    +0.004 A 
ATOM     12  C   UNL     1       0.025  -2.071  -1.207  0.00  0.00    +0.000 A 
ATOM     13  C   UNL     1       0.040  -2.768  -0.013  0.00  0.00    +0.000 A 
ATOM     14  C   UNL     1       0.037  -2.084   1.188  0.00  0.00    +0.006 A 
ATOM     15  C   UNL     1       0.023  -0.702   1.195  0.00  0.00    -0.025 A 
ENDBRANCH   7  15
ENDBRANCH   1   7
BRANCH   4  16
ATOM     16  C   UNL     1       2.375  -0.371   6.752  0.00  0.00    +0.162 C 
BRANCH  16  17
ATOM     17  C   UNL     1       2.918  -1.443   7.660  0.00  0.00    +0.078 A 
ATOM     18  C   UNL     1       4.184  -1.893   7.676  0.00  0.00    +0.118 A 
ATOM     19  N   UNL     1       4.271  -2.878   8.656  0.00  0.00    -0.300 N 
ATOM     20  C   UNL     1       5.225  -3.721   9.184  0.00  0.00    +0.100 A 
ATOM     21  C   UNL     1       4.917  -4.571  10.163  0.00  0.00    +0.067 A 
ATOM     22  S   UNL     1       3.183  -4.225  10.419  0.00  0.00    -0.058 S 
ATOM     23  C   UNL     1       3.010  -2.960   9.183  0.00  0.00    +0.178 A 
ATOM     24  N   UNL     1       2.221  -2.108   8.595  0.00  0.00    -0.225 NA
ENDBRANCH  16  17
ENDBRANCH   4  16
TORSDOF 4
