REMARK  Name = ZINC56645048
REMARK  8 active torsions:
REMARK  status: ('A' for Active; 'I' for Inactive)
REMARK    1  A    between atoms: C_1  and  C_2
REMARK    2  A    between atoms: C_2  and  C_4
REMARK    3  A    between atoms: C_2  and  N_13
REMARK    4  A    between atoms: C_4  and  O_5
REMARK    5  A    between atoms: O_5  and  C_6
REMARK    6  A    between atoms: N_16  and  C_17
REMARK    7  A    between atoms: C_22  and  C_23
REMARK    8  A    between atoms: C_23  and  C_24
REMARK                            x       y       z     vdW  Elec       q    Type
REMARK                         _______ _______ _______ _____ _____    ______ ____
ROOT
ATOM      1  N   UNL     1       0.685  -0.492  -1.199  0.00  0.00    -0.293 N 
ATOM      2  C   UNL     1       0.006  -0.612  -2.357  0.00  0.00    +0.304 C 
ATOM      3  O   UNL     1      -1.177  -0.331  -2.401  0.00  0.00    -0.252 OA
ATOM      4  N   UNL     1       0.637  -1.043  -3.467  0.00  0.00    -0.269 N 
ATOM      5  H   UNL     1       1.628  -0.717  -1.165  0.00  0.00    +0.151 HD
ATOM      6  H   UNL     1       1.596  -1.189  -3.454  0.00  0.00    +0.156 HD
ENDROOT
BRANCH   4   7
ATOM      7  C   UNL     1      -0.091  -1.280  -4.639  0.00  0.00    +0.038 A 
ATOM      8  C   UNL     1      -1.445  -1.579  -4.569  0.00  0.00    +0.023 A 
ATOM      9  C   UNL     1      -2.160  -1.811  -5.727  0.00  0.00    +0.002 A 
ATOM     10  C   UNL     1      -1.530  -1.747  -6.956  0.00  0.00    +0.000 A 
ATOM     11  C   UNL     1      -0.181  -1.450  -7.029  0.00  0.00    +0.006 A 
ATOM     12  C   UNL     1       0.538  -1.210  -5.875  0.00  0.00    -0.017 A 
BRANCH  12  13
ATOM     13  C   UNL     1       2.007  -0.880  -5.956  0.00  0.00    +0.132 C 
BRANCH  13  14
ATOM     14  C   UNL     1       2.815  -2.139  -5.777  0.00  0.00    +0.215 C 
ATOM     15  O   UNL     1       2.255  -3.200  -5.601  0.00  0.00    -0.276 OA
ATOM     16  N   UNL     1       4.162  -2.086  -5.813  0.00  0.00    -0.329 N 
ATOM     17  H   UNL     1       4.610  -1.238  -5.954  0.00  0.00    +0.145 HD
ATOM     18  H   UNL     1       4.682  -2.897  -5.698  0.00  0.00    +0.145 HD
ENDBRANCH  13  14
ENDBRANCH  12  13
ENDBRANCH   4   7
BRANCH   1  20
ATOM     19  C   UNL     1      -0.013   1.506   0.026  0.00  0.00    +0.031 C 
ATOM     20  C   UNL     1      -0.002  -0.024   0.007  0.00  0.00    +0.109 C 
BRANCH  20  21
ATOM     21  C   UNL     1       0.731  -0.544   1.245  0.00  0.00    +0.251 C 
BRANCH  21  22
ATOM     22  O   UNL     1       2.037   0.035   1.304  0.00  0.00    -0.487 OA
BRANCH  22  23
ATOM     23  C   UNL     1       2.825  -0.325   2.352  0.00  0.00    +0.156 A 
ATOM     24  C   UNL     1       2.354  -1.221   3.300  0.00  0.00    +0.048 A 
ATOM     25  C   UNL     1       3.157  -1.585   4.364  0.00  0.00    +0.004 A 
ATOM     26  C   UNL     1       4.429  -1.058   4.485  0.00  0.00    +0.003 A 
ATOM     27  C   UNL     1       4.902  -0.164   3.542  0.00  0.00    +0.042 A 
ATOM     28  C   UNL     1       4.106   0.199   2.471  0.00  0.00    +0.165 A 
ATOM     29  F   UNL     1       4.570   1.068   1.547  0.00  0.00    -0.202 F 
ENDBRANCH  22  23
ENDBRANCH  21  22
ENDBRANCH  20  21
ENDBRANCH   1  20
TORSDOF 7
