REMARK  Name = ZINC50251476
REMARK  4 active torsions:
REMARK  status: ('A' for Active; 'I' for Inactive)
REMARK    1  A    between atoms: C_5  and  C_8
REMARK    2  A    between atoms: C_8  and  C_9
REMARK    3  A    between atoms: C_17  and  C_20
REMARK    4  A    between atoms: C_20  and  N_21
REMARK                            x       y       z     vdW  Elec       q    Type
REMARK                         _______ _______ _______ _____ _____    ______ ____
ROOT
ATOM      1  C   UNL     1       0.003   1.565   0.007  0.00  0.00    +0.003 C 
ATOM      2  C   UNL     1       1.385   2.224  -0.010  0.00  0.00    +0.019 C 
ATOM      3  C   UNL     1       2.211   1.699   1.168  0.00  0.00    +0.109 C 
ATOM      4  N   UNL     1       2.242   0.231   1.107  0.00  0.00    -0.282 N 
ATOM      5  C   UNL     1       0.970  -0.499   1.029  0.00  0.00    +0.088 C 
ATOM      6  C   UNL     1       0.157   0.050  -0.147  0.00  0.00    +0.023 C 
ATOM      7  C   UNL     1       3.415  -0.432   1.122  0.00  0.00    +0.305 C 
ATOM      8  O   UNL     1       3.434  -1.629   1.334  0.00  0.00    -0.252 OA
ATOM      9  N   UNL     1       4.567   0.231   0.901  0.00  0.00    -0.285 N 
ATOM     10  C   UNL     1       4.708   1.690   0.786  0.00  0.00    +0.109 C 
ATOM     11  C   UNL     1       6.197   1.987   0.511  0.00  0.00    +0.022 C 
ATOM     12  C   UNL     1       6.715   0.647  -0.076  0.00  0.00    -0.010 C 
ATOM     13  C   UNL     1       5.897  -0.386   0.742  0.00  0.00    +0.111 C 
ENDROOT
BRANCH   5  14
ATOM     14  C   UNL     1       1.246  -1.989   0.814  0.00  0.00    +0.147 C 
BRANCH  14  15
ATOM     15  C   UNL     1       1.625  -2.624   2.127  0.00  0.00    +0.358 C 
ATOM     16  O   UNL     1       1.670  -1.948   3.140  0.00  0.00    -0.246 OA
ATOM     17  O   UNL     1       1.887  -3.814   2.175  0.00  0.00    -0.246 OA
ENDBRANCH  14  15
ENDBRANCH   5  14
BRANCH  12  18
ATOM     18  C   UNL     1       8.215   0.481   0.177  0.00  0.00    -0.081 C 
BRANCH  18  19
ATOM     19  N   UNL     1       8.956   1.496  -0.584  0.00  0.00    +0.378 N 
ATOM     20  H   UNL     1       8.766   1.383  -1.568  0.00  0.00    -0.090 HD
ATOM     21  H   UNL     1       8.664   2.416  -0.289  0.00  0.00    -0.090 HD
ATOM     22  H   UNL     1       9.945   1.387  -0.416  0.00  0.00    -0.090 HD
ENDBRANCH  18  19
ENDBRANCH  12  18
TORSDOF 4
