REMARK  Name = ZINC18199280
REMARK  7 active torsions:
REMARK  status: ('A' for Active; 'I' for Inactive)
REMARK    1  A    between atoms: C_1  and  O_2
REMARK    2  A    between atoms: O_2  and  C_3
REMARK    3  A    between atoms: C_6  and  C_11
REMARK    4  A    between atoms: C_8  and  O_9
REMARK    5  A    between atoms: O_9  and  C_10
REMARK    6  A    between atoms: C_16  and  C_25
REMARK    7  A    between atoms: C_28  and  O_31
REMARK                            x       y       z     vdW  Elec       q    Type
REMARK                         _______ _______ _______ _____ _____    ______ ____
ROOT
ATOM      1  C   UNL     1      -4.987  -2.627   0.035  0.00  0.00    +0.032 C 
ATOM      2  C   UNL     1      -5.789  -2.221  -1.202  0.00  0.00    +0.060 C 
ATOM      3  C   UNL     1      -7.144  -2.888  -1.171  0.00  0.00    +0.020 C 
ATOM      4  C   UNL     1      -7.753  -3.168   0.002  0.00  0.00    +0.041 C 
ATOM      5  C   UNL     1      -9.109  -3.836   0.065  0.00  0.00    +0.175 C 
ATOM      6  N   UNL     1      -9.741  -3.805  -1.247  0.00  0.00    -0.219 N 
ATOM      7  C   UNL     1      -9.076  -3.504  -2.389  0.00  0.00    +0.220 A 
ATOM      8  N   UNL     1      -9.922  -3.572  -3.382  0.00  0.00    -0.180 NA
ATOM      9  C   UNL     1     -11.133  -3.907  -2.915  0.00  0.00    +0.233 A 
ATOM     10  N   UNL     1     -11.063  -4.058  -1.611  0.00  0.00    -0.132 NA
ATOM     11  N   UNL     1     -12.283  -4.071  -3.690  0.00  0.00    -0.326 N 
ATOM     12  N   UNL     1      -7.728  -3.188  -2.378  0.00  0.00    -0.287 N 
ATOM     13  C   UNL     1      -7.139  -2.849   1.227  0.00  0.00    +0.164 C 
ATOM     14  O   UNL     1      -7.723  -3.093   2.265  0.00  0.00    -0.292 OA
ATOM     15  C   UNL     1      -5.778  -2.212   1.280  0.00  0.00    +0.088 C 
ATOM     16  H   UNL     1     -12.243  -3.940  -4.650  0.00  0.00    +0.145 HD
ATOM     17  H   UNL     1     -13.121  -4.315  -3.268  0.00  0.00    +0.145 HD
ATOM     18  H   UNL     1      -7.210  -3.178  -3.199  0.00  0.00    +0.155 HD
ENDROOT
BRANCH   1  22
ATOM     19  C   UNL     1      -1.201  -0.638   0.010  0.00  0.00    +0.161 A 
ATOM     20  C   UNL     1      -2.374   0.099   0.031  0.00  0.00    +0.049 A 
ATOM     21  C   UNL     1      -3.596  -0.546   0.033  0.00  0.00    +0.008 A 
ATOM     22  C   UNL     1      -3.652  -1.928   0.026  0.00  0.00    -0.040 A 
ATOM     23  C   UNL     1      -2.485  -2.669   0.011  0.00  0.00    +0.053 A 
ATOM     24  C   UNL     1      -1.257  -2.028   0.003  0.00  0.00    +0.162 A 
BRANCH  19  26
ATOM     25  C   UNL     1      -0.017   1.425   0.010  0.00  0.00    +0.277 C 
ATOM     26  O   UNL     1       0.002  -0.004   0.002  0.00  0.00    -0.491 OA
ENDBRANCH  19  26
BRANCH  24  27
ATOM     27  O   UNL     1      -0.108  -2.756  -0.012  0.00  0.00    -0.491 OA
ATOM     28  C   UNL     1      -0.242  -4.179  -0.018  0.00  0.00    +0.277 C 
ENDBRANCH  24  27
ENDBRANCH   1  22
BRANCH   5  29
ATOM     29  C   UNL     1      -8.941  -5.267   0.506  0.00  0.00    -0.018 A 
ATOM     30  C   UNL     1      -8.177  -6.137  -0.250  0.00  0.00    +0.009 A 
ATOM     31  C   UNL     1      -8.017  -7.448   0.155  0.00  0.00    +0.046 A 
ATOM     32  C   UNL     1      -8.633  -7.894   1.316  0.00  0.00    +0.117 A 
ATOM     33  C   UNL     1      -9.403  -7.021   2.070  0.00  0.00    +0.046 A 
ATOM     34  C   UNL     1      -9.555  -5.709   1.663  0.00  0.00    +0.009 A 
BRANCH  32  35
ATOM     35  O   UNL     1      -8.481  -9.185   1.714  0.00  0.00    -0.507 OA
ATOM     36  H   UNL     1      -9.152  -9.786   1.363  0.00  0.00    +0.292 HD
ENDBRANCH  32  35
ENDBRANCH   5  29
TORSDOF 5
