REMARK  Name = ZINC13041176
REMARK  14 active torsions:
REMARK  status: ('A' for Active; 'I' for Inactive)
REMARK    1  A    between atoms: C_1  and  C_2
REMARK    2  A    between atoms: C_2  and  C_3
REMARK    3  A    between atoms: C_2  and  C_4
REMARK    4  A    between atoms: C_4  and  N_5
REMARK    5  A    between atoms: C_6  and  N_32
REMARK    6  A    between atoms: C_7  and  N_14
REMARK    7  A    between atoms: N_14  and  C_15
REMARK    8  A    between atoms: C_15  and  C_16
REMARK    9  A    between atoms: C_16  and  O_17
REMARK   10  A    between atoms: O_17  and  C_18
REMARK   11  A    between atoms: C_19  and  C_21
REMARK   12  A    between atoms: C_21  and  C_22
REMARK   13  A    between atoms: C_22  and  C_23
REMARK   14  A    between atoms: N_25  and  C_26
REMARK                            x       y       z     vdW  Elec       q    Type
REMARK                         _______ _______ _______ _____ _____    ______ ____
ROOT
ATOM      1  N   UNL     1      -0.440   1.572   0.113  0.00  0.00    -0.262 N 
ATOM      2  C   UNL     1      -1.567   2.314   0.082  0.00  0.00    +0.221 C 
ATOM      3  O   UNL     1      -1.496   3.521  -0.026  0.00  0.00    -0.275 OA
ENDROOT
BRANCH   1   6
ATOM      4  N   UNL     1       2.904   2.682  -0.929  0.00  0.00    -0.280 N 
ATOM      5  C   UNL     1       1.681   2.053  -0.957  0.00  0.00    +0.127 A 
ATOM      6  C   UNL     1       0.821   2.204   0.112  0.00  0.00    +0.140 A 
ATOM      7  C   UNL     1       1.222   3.004   1.198  0.00  0.00    +0.277 A 
ATOM      8  O   UNL     1       0.480   3.159   2.153  0.00  0.00    -0.266 OA
ATOM      9  N   UNL     1       2.433   3.595   1.177  0.00  0.00    -0.273 N 
ATOM     10  H   UNL     1       2.757   4.214   2.026  0.00  0.00    +0.173 HD
ATOM     11  C   UNL     1       3.257   3.436   0.127  0.00  0.00    +0.331 A 
ATOM     12  O   UNL     1       4.343   3.984   0.132  0.00  0.00    -0.246 OA
BRANCH   5  13
ATOM     13  N   UNL     1       1.320   1.282  -2.036  0.00  0.00    -0.343 N 
ATOM     14  H   UNL     1       0.340   0.782  -2.051  0.00  0.00    +0.144 HD
ATOM     15  H   UNL     1       2.010   1.165  -2.884  0.00  0.00    +0.144 HD
ENDBRANCH   5  13
BRANCH   4  16
ATOM     16  C   UNL     1       3.826   2.530  -2.057  0.00  0.00    +0.131 C 
BRANCH  16  18
ATOM     17  C   UNL     1       3.903   4.994  -2.463  0.00  0.00    +0.009 C 
ATOM     18  C   UNL     1       3.566   3.635  -3.082  0.00  0.00    +0.003 C 
ATOM     19  C   UNL     1       4.442   3.405  -4.315  0.00  0.00    +0.009 C 
ENDBRANCH  16  18
ENDBRANCH   4  16
ENDBRANCH   1   6
BRANCH   1  20
ATOM     20  C   UNL     1      -0.527   0.110   0.142  0.00  0.00    +0.142 C 
BRANCH  20  21
ATOM     21  C   UNL     1      -0.419  -0.379   1.588  0.00  0.00    +0.178 C 
BRANCH  21  22
ATOM     22  O   UNL     1      -1.549   0.082   2.332  0.00  0.00    -0.381 OA
ATOM     23  C   UNL     1      -1.546  -0.322   3.703  0.00  0.00    +0.194 C 
ENDBRANCH  21  22
ENDBRANCH  20  21
ENDBRANCH   1  20
BRANCH   2  24
ATOM     24  C   UNL     1      -2.913   1.645   0.182  0.00  0.00    +0.105 C 
BRANCH  24  25
ATOM     25  C   UNL     1      -4.015   2.704   0.122  0.00  0.00    +0.105 C 
BRANCH  25  26
ATOM     26  C   UNL     1      -5.362   2.035   0.223  0.00  0.00    +0.218 C 
ATOM     27  O   UNL     1      -5.433   0.829   0.331  0.00  0.00    -0.275 OA
ATOM     28  N   UNL     1      -6.487   2.776   0.192  0.00  0.00    -0.285 N 
ATOM     29  H   UNL     1      -6.428   3.858   0.003  0.00  0.00    +0.155 HD
BRANCH  28  30
ATOM     30  C   UNL     1      -7.731   2.169   0.399  0.00  0.00    +0.033 A 
ATOM     31  C   UNL     1      -8.852   2.632  -0.277  0.00  0.00    +0.023 A 
ATOM     32  C   UNL     1     -10.077   2.027  -0.074  0.00  0.00    +0.002 A 
ATOM     33  C   UNL     1     -10.190   0.969   0.808  0.00  0.00    +0.000 A 
ATOM     34  C   UNL     1      -9.076   0.509   1.487  0.00  0.00    +0.002 A 
ATOM     35  C   UNL     1      -7.847   1.106   1.285  0.00  0.00    +0.023 A 
ENDBRANCH  28  30
ENDBRANCH  25  26
ENDBRANCH  24  25
ENDBRANCH   2  24
TORSDOF 11
