REMARK  Name = ZINC39964182
REMARK  3 active torsions:
REMARK  status: ('A' for Active; 'I' for Inactive)
REMARK    1  A    between atoms: C_1  and  C_2
REMARK    2  A    between atoms: C_3  and  C_24
REMARK    3  A    between atoms: C_20  and  C_23
REMARK                            x       y       z     vdW  Elec       q    Type
REMARK                         _______ _______ _______ _____ _____    ______ ____
ROOT
ATOM      1  C   UNL     1      -0.018   1.503   0.010  0.00  0.00    +0.068 C 
ATOM      2  C   UNL     1       0.002  -0.004   0.002  0.00  0.00    +0.070 A 
ATOM      3  C   UNL     1       0.008  -0.825  -1.149  0.00  0.00    +0.044 A 
ATOM      4  C   UNL     1       0.025  -2.120  -0.719  0.00  0.00    +0.130 A 
ATOM      5  N   UNL     1       0.040  -2.099   0.651  0.00  0.00    -0.238 N 
ATOM      6  N   UNL     1       0.023  -0.777   1.062  0.00  0.00    -0.173 NA
ATOM      7  C   UNL     1       0.082  -3.355   1.398  0.00  0.00    +0.169 C 
ATOM      8  C   UNL     1      -0.513  -3.211   2.762  0.00  0.00    +0.020 C 
ATOM      9  C   UNL     1      -1.342  -4.095   3.263  0.00  0.00    +0.085 C 
ATOM     10  N   UNL     1      -1.733  -5.226   2.561  0.00  0.00    -0.211 N 
ATOM     11  C   UNL     1      -1.427  -5.377   1.259  0.00  0.00    +0.257 C 
ATOM     12  O   UNL     1      -1.814  -6.360   0.653  0.00  0.00    -0.269 OA
ATOM     13  C   UNL     1      -0.672  -4.393   0.603  0.00  0.00    +0.057 C 
ATOM     14  H   UNL     1       0.454  -3.461  -2.253  0.00  0.00    +0.153 HD
ATOM     15  C   UNL     1      -0.657  -4.361  -0.751  0.00  0.00    +0.084 C 
ATOM     16  N   UNL     1       0.018  -3.339  -1.395  0.00  0.00    -0.305 N 
ATOM     17  C   UNL     1      -2.452  -6.221   3.213  0.00  0.00    +0.250 A 
ATOM     18  N   UNL     1      -2.837  -6.218   4.522  0.00  0.00    -0.196 NA
ATOM     19  C   UNL     1      -3.514  -7.388   4.713  0.00  0.00    +0.152 A 
ATOM     20  N   UNL     1      -3.515  -8.025   3.575  0.00  0.00    -0.131 NA
ATOM     21  N   UNL     1      -2.893  -7.338   2.685  0.00  0.00    -0.111 NA
ATOM     22  C   UNL     1      -4.143  -7.857   5.999  0.00  0.00    +0.090 C 
ENDROOT
BRANCH   3  23
ATOM     23  C   UNL     1      -0.003  -0.365  -2.559  0.00  0.00    -0.013 A 
ATOM     24  C   UNL     1      -1.098  -0.640  -3.376  0.00  0.00    +0.010 A 
ATOM     25  C   UNL     1      -1.103  -0.210  -4.687  0.00  0.00    +0.016 A 
ATOM     26  C   UNL     1      -0.023   0.494  -5.191  0.00  0.00    +0.018 A 
ATOM     27  C   UNL     1       1.067   0.770  -4.384  0.00  0.00    +0.016 A 
ATOM     28  C   UNL     1       1.079   0.350  -3.070  0.00  0.00    +0.010 A 
ATOM     29 BR   UNL     1      -0.037   1.079  -6.989  0.00  0.00    -0.050 Br
ENDBRANCH   3  23
TORSDOF 1
