REMARK  Name = ZINC63279417
REMARK  7 active torsions:
REMARK  status: ('A' for Active; 'I' for Inactive)
REMARK    1  A    between atoms: C_1  and  C_2
REMARK    2  A    between atoms: C_3  and  C_33
REMARK    3  A    between atoms: N_6  and  C_22
REMARK    4  A    between atoms: C_10  and  N_11
REMARK    5  A    between atoms: N_11  and  C_12
REMARK    6  A    between atoms: C_22  and  C_23
REMARK    7  A    between atoms: C_23  and  C_24
REMARK                            x       y       z     vdW  Elec       q    Type
REMARK                         _______ _______ _______ _____ _____    ______ ____
ROOT
ATOM      1  C   UNL     1      -0.095   1.501   0.012  0.00  0.00    +0.046 C 
ATOM      2  C   UNL     1      -0.038  -0.004   0.003  0.00  0.00    -0.015 C 
ATOM      3  C   UNL     1      -0.036  -0.704  -1.195  0.00  0.00    +0.118 C 
ATOM      4  C   UNL     1       0.019  -2.167  -1.177  0.00  0.00    +0.264 C 
ATOM      5  O   UNL     1       0.021  -2.782  -2.228  0.00  0.00    -0.269 OA
ATOM      6  N   UNL     1       0.068  -2.841  -0.015  0.00  0.00    -0.233 N 
ATOM      7  C   UNL     1       0.068  -2.198   1.167  0.00  0.00    +0.255 C 
ATOM      8  O   UNL     1       0.113  -2.836   2.203  0.00  0.00    -0.269 OA
ATOM      9  C   UNL     1       0.020  -0.730   1.214  0.00  0.00    +0.055 C 
ATOM     10  C   UNL     1       0.026  -0.064   2.434  0.00  0.00    +0.085 C 
ENDROOT
BRANCH  10  11
ATOM     11  N   UNL     1      -0.055  -0.763   3.584  0.00  0.00    -0.320 N 
ATOM     12  H   UNL     1      -0.043  -1.733   3.564  0.00  0.00    +0.152 HD
BRANCH  11  13
ATOM     13  C   UNL     1      -0.157  -0.096   4.794  0.00  0.00    +0.031 C 
ATOM     14  C   UNL     1      -0.236  -0.813   5.981  0.00  0.00    +0.029 C 
ATOM     15  C   UNL     1      -0.277  -0.033   7.142  0.00  0.00    -0.016 C 
ATOM     16  C   UNL     1      -0.846  -0.220   8.350  0.00  0.00    +0.025 C 
ATOM     17  C   UNL     1      -0.830   0.994   9.066  0.00  0.00    +0.106 C 
ATOM     18  N   UNL     1      -0.195   1.936   8.424  0.00  0.00    -0.279 NA
ATOM     19  C   UNL     1       0.358   1.346   7.214  0.00  0.00    +0.158 C 
ATOM     20  C   UNL     1       0.027   2.070   5.944  0.00  0.00    +0.006 C 
ATOM     21  C   UNL     1      -0.177   1.369   4.828  0.00  0.00    +0.021 C 
ENDBRANCH  11  13
ENDBRANCH  10  11
BRANCH   3  22
ATOM     22  C   UNL     1      -0.089  -0.001  -2.441  0.00  0.00    +0.105 C 
ATOM     23  N   UNL     1      -0.131   0.558  -3.429  0.00  0.00    -0.191 NA
ENDBRANCH   3  22
BRANCH   6  24
ATOM     24  C   UNL     1       0.123  -4.305  -0.035  0.00  0.00    +0.121 C 
BRANCH  24  25
ATOM     25  C   UNL     1       1.583  -4.760  -0.072  0.00  0.00    +0.052 C 
BRANCH  25  26
ATOM     26  C   UNL     1       1.639  -6.266  -0.093  0.00  0.00    -0.040 C 
ATOM     27  C   UNL     1       1.746  -7.060  -1.183  0.00  0.00    -0.001 A 
ATOM     28  C   UNL     1       1.838  -6.771  -2.619  0.00  0.00    +0.010 A 
ATOM     29  C   UNL     1       1.938  -7.801  -3.490  0.00  0.00    +0.001 A 
ATOM     30  C   UNL     1       1.955  -9.134  -3.057  0.00  0.00    +0.002 A 
ATOM     31  C   UNL     1       1.875  -9.479  -1.754  0.00  0.00    +0.026 A 
ATOM     32  C   UNL     1       1.767  -8.476  -0.751  0.00  0.00    +0.043 A 
ATOM     33  N   UNL     1       1.676  -8.554   0.555  0.00  0.00    -0.380 N 
ATOM     34  C   UNL     1       1.594  -7.194   1.100  0.00  0.00    +0.144 C 
ATOM     35  H   UNL     1       1.669  -9.373   1.074  0.00  0.00    +0.160 HD
ENDBRANCH  25  26
ENDBRANCH  24  25
ENDBRANCH   6  24
TORSDOF 6
