REMARK  Name = ZINC20574624
REMARK  8 active torsions:
REMARK  status: ('A' for Active; 'I' for Inactive)
REMARK    1  A    between atoms: C_1  and  C_2
REMARK    2  A    between atoms: C_2  and  N_3
REMARK    3  A    between atoms: C_7  and  C_9
REMARK    4  A    between atoms: C_9  and  N_10
REMARK    5  A    between atoms: C_11  and  C_13
REMARK    6  A    between atoms: C_13  and  C_14
REMARK    7  A    between atoms: C_14  and  N_15
REMARK    8  A    between atoms: C_22  and  C_25
REMARK                            x       y       z     vdW  Elec       q    Type
REMARK                         _______ _______ _______ _____ _____    ______ ____
ROOT
ATOM      1  N   UNL     1       3.802   2.615  -0.068  0.00  0.00    -0.298 N 
ATOM      2  C   UNL     1       2.970   3.683  -0.040  0.00  0.00    +0.206 A 
ATOM      3  N   UNL     1       1.670   3.563  -0.037  0.00  0.00    -0.200 NA
ATOM      4  C   UNL     1       1.086   2.361  -0.061  0.00  0.00    +0.265 A 
ATOM      5  C   UNL     1       1.895   1.214  -0.090  0.00  0.00    +0.133 A 
ATOM      6  C   UNL     1       3.295   1.358  -0.093  0.00  0.00    +0.267 A 
ATOM      7  O   UNL     1       4.028   0.385  -0.119  0.00  0.00    -0.267 OA
ATOM      8  C   UNL     1       0.925   0.117  -0.110  0.00  0.00    +0.128 A 
ATOM      9  N   UNL     1      -0.249   0.702  -0.092  0.00  0.00    -0.075 NA
ATOM     10  O   UNL     1      -0.175   1.909  -0.065  0.00  0.00    -0.334 OA
ENDROOT
BRANCH   8  11
ATOM     11  C   UNL     1       1.208  -1.339  -0.144  0.00  0.00    +0.005 A 
ATOM     12  C   UNL     1       2.305  -1.821  -0.857  0.00  0.00    +0.013 A 
ATOM     13  C   UNL     1       2.568  -3.175  -0.881  0.00  0.00    +0.039 A 
ATOM     14  C   UNL     1       1.737  -4.056  -0.208  0.00  0.00    +0.123 A 
ATOM     15  C   UNL     1       0.643  -3.582   0.497  0.00  0.00    +0.039 A 
ATOM     16  C   UNL     1       0.375  -2.229   0.532  0.00  0.00    +0.013 A 
ATOM     17  F   UNL     1       1.995  -5.382  -0.239  0.00  0.00    -0.205 F 
ENDBRANCH   8  11
BRANCH   1  18
ATOM     18  C   UNL     1       5.253   2.818  -0.071  0.00  0.00    +0.135 C 
BRANCH  18  19
ATOM     19  C   UNL     1       5.751   2.921  -1.514  0.00  0.00    +0.117 C 
BRANCH  19  21
ATOM     20  N   UNL     1       7.905   3.249  -2.685  0.00  0.00    -0.317 N 
ATOM     21  C   UNL     1       7.243   3.129  -1.517  0.00  0.00    +0.215 C 
ATOM     22  O   UNL     1       7.849   3.190  -0.468  0.00  0.00    -0.276 OA
ATOM     23  H   UNL     1       7.355   3.194  -3.637  0.00  0.00    +0.149 HD
BRANCH  20  24
ATOM     24  C   UNL     1       9.355   3.452  -2.688  0.00  0.00    +0.089 C 
BRANCH  24  29
ATOM     25  N   UNL     1      11.316   3.720  -4.149  0.00  0.00    +0.382 N 
ATOM     26  C   UNL     1      12.023   2.551  -4.714  0.00  0.00    -0.078 C 
ATOM     27  C   UNL     1      10.963   1.829  -5.582  0.00  0.00    -0.020 C 
ATOM     28  C   UNL     1       9.679   2.023  -4.733  0.00  0.00    -0.016 C 
ATOM     29  C   UNL     1       9.871   3.429  -4.129  0.00  0.00    -0.051 C 
ATOM     30  H   UNL     1      11.505   4.608  -4.771  0.00  0.00    -0.081 HD
BRANCH  25  32
ATOM     31  C   UNL     1      13.326   4.229  -2.846  0.00  0.00    -0.017 C 
ATOM     32  C   UNL     1      11.809   4.033  -2.801  0.00  0.00    -0.082 C 
ENDBRANCH  25  32
ENDBRANCH  24  29
ENDBRANCH  20  24
ENDBRANCH  19  21
ENDBRANCH  18  19
ENDBRANCH   1  18
TORSDOF 7
