REMARK  Name = ZINC03586551
REMARK  7 active torsions:
REMARK  status: ('A' for Active; 'I' for Inactive)
REMARK    1  A    between atoms: C_1  and  C_2
REMARK    2  A    between atoms: C_7  and  N_8
REMARK    3  A    between atoms: N_8  and  N_9
REMARK    4  A    between atoms: C_10  and  C_11
REMARK    5  A    between atoms: C_10  and  S_15
REMARK    6  A    between atoms: N_13  and  N_14
REMARK    7  A    between atoms: S_15  and  C_18
REMARK                            x       y       z     vdW  Elec       q    Type
REMARK                         _______ _______ _______ _____ _____    ______ ____
ROOT
ATOM      1  N   UNL     1      -0.235  -0.731   3.687  0.00  0.00    -0.158 NA
ATOM      2  C   UNL     1       0.147  -0.086   4.754  0.00  0.00    +0.262 C 
ENDROOT
BRANCH   2   3
ATOM      3  C   UNL     1       0.595  -0.824   5.934  0.00  0.00    +0.296 C 
ATOM      4  O   UNL     1       0.951  -0.221   6.930  0.00  0.00    -0.266 OA
ATOM      5  N   UNL     1       0.613  -2.172   5.920  0.00  0.00    -0.247 N 
ATOM      6  H   UNL     1       0.329  -2.652   5.126  0.00  0.00    +0.169 HD
BRANCH   5   7
ATOM      7  N   UNL     1       1.031  -2.861   7.022  0.00  0.00    -0.254 NA
ATOM      8  H   UNL     1       0.493  -2.602   7.836  0.00  0.00    +0.140 HD
ATOM      9  H   UNL     1       0.990  -3.857   6.863  0.00  0.00    +0.140 HD
ENDBRANCH   5   7
ENDBRANCH   2   3
BRANCH   2  10
ATOM     10  S   UNL     1       0.123   1.676   4.773  0.00  0.00    +0.049 S 
ATOM     11  O   UNL     1       0.982   2.082   5.830  0.00  0.00    -0.163 OA
ATOM     12  O   UNL     1       0.315   2.099   3.430  0.00  0.00    -0.163 OA
BRANCH  10  13
ATOM     13  C   UNL     1      -1.505   2.170   5.229  0.00  0.00    +0.095 A 
ATOM     14  C   UNL     1      -2.463   2.378   4.255  0.00  0.00    +0.027 A 
ATOM     15  C   UNL     1      -3.742   2.761   4.613  0.00  0.00    +0.002 A 
ATOM     16  C   UNL     1      -4.060   2.946   5.946  0.00  0.00    +0.000 A 
ATOM     17  C   UNL     1      -3.101   2.744   6.920  0.00  0.00    +0.002 A 
ATOM     18  C   UNL     1      -1.823   2.356   6.562  0.00  0.00    +0.027 A 
ENDBRANCH  10  13
ENDBRANCH   2  10
BRANCH   1  19
ATOM     19  N   UNL     1      -0.799  -0.034   2.611  0.00  0.00    -0.236 N 
ATOM     20  H   UNL     1      -0.982   0.915   2.690  0.00  0.00    +0.174 HD
BRANCH  19  27
ATOM     21  C   UNL     1      -1.942   1.459   0.476  0.00  0.00    +0.046 C 
ATOM     22  C   UNL     1      -1.656  -0.015   0.355  0.00  0.00    -0.028 A 
ATOM     23  C   UNL     1      -1.955  -0.684  -0.816  0.00  0.00    +0.005 A 
ATOM     24  C   UNL     1      -1.689  -2.036  -0.929  0.00  0.00    +0.000 A 
ATOM     25  C   UNL     1      -1.132  -2.726   0.133  0.00  0.00    +0.002 A 
ATOM     26  C   UNL     1      -0.836  -2.065   1.308  0.00  0.00    +0.025 A 
ATOM     27  C   UNL     1      -1.097  -0.705   1.424  0.00  0.00    +0.051 A 
ENDBRANCH  19  27
ENDBRANCH   1  19
TORSDOF 6
