REMARK  Name = ZINC37607997
REMARK  7 active torsions:
REMARK  status: ('A' for Active; 'I' for Inactive)
REMARK    1  A    between atoms: C_1  and  C_2
REMARK    2  A    between atoms: C_2  and  C_4
REMARK    3  A    between atoms: C_2  and  N_20
REMARK    4  A    between atoms: C_4  and  C_5
REMARK    5  A    between atoms: N_7  and  C_8
REMARK    6  A    between atoms: C_13  and  O_14
REMARK    7  A    between atoms: O_14  and  C_15
REMARK                            x       y       z     vdW  Elec       q    Type
REMARK                         _______ _______ _______ _____ _____    ______ ____
ROOT
ATOM      1  C   UNL     1       1.073  -4.072   2.421  0.00  0.00    +0.078 A 
ATOM      2  C   UNL     1       0.991  -4.855   1.279  0.00  0.00    +0.047 A 
ATOM      3  C   UNL     1       0.826  -6.224   1.390  0.00  0.00    +0.044 A 
ATOM      4  C   UNL     1       0.743  -6.815   2.638  0.00  0.00    +0.039 A 
ATOM      5  C   UNL     1       0.824  -6.040   3.781  0.00  0.00    +0.063 A 
ATOM      6  C   UNL     1       0.996  -4.668   3.677  0.00  0.00    +0.162 A 
ATOM      7 BR   UNL     1       0.710  -6.852   5.485  0.00  0.00    -0.046 Br
ATOM      8 CL   UNL     1       0.722  -7.203  -0.040  0.00  0.00    -0.083 Cl
ENDROOT
BRANCH   1  11
ATOM      9  C   UNL     1       0.663  -2.015   1.294  0.00  0.00    +0.216 C 
ATOM     10  O   UNL     1       0.066  -2.622   0.429  0.00  0.00    -0.276 OA
ATOM     11  N   UNL     1       1.241  -2.685   2.311  0.00  0.00    -0.283 N 
ATOM     12  H   UNL     1       1.772  -2.207   2.966  0.00  0.00    +0.155 HD
BRANCH   9  13
ATOM     13  C   UNL     1       0.758  -0.513   1.230  0.00  0.00    +0.080 C 
BRANCH  13  15
ATOM     14  C   UNL     1       0.013   1.523  -0.012  0.00  0.00    -0.014 C 
ATOM     15  C   UNL     1       0.024  -0.007  -0.013  0.00  0.00    -0.070 C 
BRANCH  15  16
ATOM     16  N   UNL     1       0.710  -0.491  -1.218  0.00  0.00    +0.380 N 
ATOM     17  H   UNL     1       0.717  -1.500  -1.219  0.00  0.00    -0.090 HD
ATOM     18  H   UNL     1       0.226  -0.158  -2.038  0.00  0.00    -0.090 HD
ATOM     19  H   UNL     1       1.659  -0.149  -1.226  0.00  0.00    -0.090 HD
ENDBRANCH  15  16
ENDBRANCH  13  15
ENDBRANCH   9  13
ENDBRANCH   1  11
BRANCH   6  20
ATOM     20  O   UNL     1       1.082  -3.905   4.800  0.00  0.00    -0.431 OA
BRANCH  20  21
ATOM     21  C   UNL     1      -0.141  -3.389   5.329  0.00  0.00    +0.541 C 
ATOM     22  F   UNL     1      -0.759  -2.579   4.370  0.00  0.00    -0.166 F 
ATOM     23  F   UNL     1      -0.991  -4.450   5.660  0.00  0.00    -0.166 F 
ENDBRANCH  20  21
ENDBRANCH   6  20
TORSDOF 6
