REMARK  Name = ZINC56017322
REMARK  5 active torsions:
REMARK  status: ('A' for Active; 'I' for Inactive)
REMARK    1  A    between atoms: C_1  and  C_2
REMARK    2  A    between atoms: C_5  and  C_9
REMARK    3  A    between atoms: C_10  and  C_11
REMARK    4  A    between atoms: C_15  and  C_22
REMARK    5  A    between atoms: C_19  and  C_21
REMARK                            x       y       z     vdW  Elec       q    Type
REMARK                         _______ _______ _______ _____ _____    ______ ____
ROOT
ATOM      1  C   UNL     1      -0.213  -4.280   2.497  0.00  0.00    +0.240 C 
ATOM      2  O   UNL     1      -0.382  -3.075   2.504  0.00  0.00    -0.271 OA
ATOM      3  N   UNL     1       0.172  -4.913   3.623  0.00  0.00    -0.294 N 
ATOM      4  C   UNL     1       0.279  -6.378   3.659  0.00  0.00    +0.121 C 
ATOM      5  C   UNL     1      -0.551  -6.904   4.835  0.00  0.00    +0.092 C 
ATOM      6  C   UNL     1      -0.102  -6.209   6.122  0.00  0.00    +0.016 C 
ATOM      7  C   UNL     1      -0.339  -4.702   6.000  0.00  0.00    +0.023 C 
ATOM      8  C   UNL     1       0.498  -4.150   4.836  0.00  0.00    +0.073 C 
ATOM      9  C   UNL     1       0.167  -2.673   4.618  0.00  0.00    +0.028 C 
ENDROOT
BRANCH   5  10
ATOM     10  C   UNL     1      -2.009  -6.616   4.589  0.00  0.00    +0.215 C 
ATOM     11  O   UNL     1      -2.631  -5.926   5.369  0.00  0.00    -0.276 OA
ATOM     12  N   UNL     1      -2.623  -7.127   3.504  0.00  0.00    -0.329 N 
ATOM     13  H   UNL     1      -2.126  -7.679   2.880  0.00  0.00    +0.145 HD
ATOM     14  H   UNL     1      -3.562  -6.942   3.346  0.00  0.00    +0.145 HD
ENDBRANCH   5  10
BRANCH   1  16
ATOM     15  C   UNL     1      -0.677  -4.398   0.109  0.00  0.00    +0.013 C 
ATOM     16  C   UNL     1      -0.427  -5.043   1.266  0.00  0.00    +0.068 C 
BRANCH  15  21
ATOM     17  C   UNL     1      -0.018   1.306  -0.204  0.00  0.00    +0.045 C 
ATOM     18  C   UNL     1      -0.191  -0.189  -0.122  0.00  0.00    -0.032 A 
ATOM     19  C   UNL     1       0.758  -0.958   0.529  0.00  0.00    +0.005 A 
ATOM     20  C   UNL     1       0.607  -2.326   0.608  0.00  0.00    +0.008 A 
ATOM     21  C   UNL     1      -0.509  -2.937   0.029  0.00  0.00    -0.023 A 
ATOM     22  C   UNL     1      -1.464  -2.155  -0.628  0.00  0.00    +0.028 A 
ATOM     23  C   UNL     1      -1.302  -0.786  -0.694  0.00  0.00    +0.044 A 
ATOM     24 CL   UNL     1      -2.490   0.189  -1.501  0.00  0.00    -0.083 Cl
ENDBRANCH  15  21
ENDBRANCH   1  16
TORSDOF 3
