REMARK  Name = ZINC36353970
REMARK  7 active torsions:
REMARK  status: ('A' for Active; 'I' for Inactive)
REMARK    1  A    between atoms: C_1  and  N_2
REMARK    2  A    between atoms: N_21  and  C_22
REMARK    3  A    between atoms: C_22  and  C_23
REMARK    4  A    between atoms: C_23  and  C_25
REMARK    5  A    between atoms: C_23  and  N_31
REMARK    6  A    between atoms: N_31  and  C_32
REMARK    7  A    between atoms: N_31  and  C_33
REMARK                            x       y       z     vdW  Elec       q    Type
REMARK                         _______ _______ _______ _____ _____    ______ ____
ROOT
ATOM      1  C   UNL     1      -0.140   1.369  -0.182  0.00  0.00    +0.138 C 
ATOM      2  N   UNL     1      -0.107  -0.094  -0.122  0.00  0.00    -0.271 N 
ATOM      3  C   UNL     1      -1.236  -0.891  -0.066  0.00  0.00    +0.043 A 
ATOM      4  C   UNL     1      -2.582  -0.521  -0.052  0.00  0.00    +0.024 A 
ATOM      5  C   UNL     1      -3.519  -1.541   0.010  0.00  0.00    +0.002 A 
ATOM      6  C   UNL     1      -3.150  -2.870   0.057  0.00  0.00    +0.001 A 
ATOM      7  C   UNL     1      -1.813  -3.252   0.044  0.00  0.00    +0.010 A 
ATOM      8  C   UNL     1      -0.875  -2.243  -0.018  0.00  0.00    +0.024 A 
ATOM      9  C   UNL     1       0.621  -2.281  -0.047  0.00  0.00    +0.208 C 
ATOM     10  C   UNL     1       1.028  -0.823  -0.120  0.00  0.00    +0.266 C 
ATOM     11  O   UNL     1       2.161  -0.393  -0.166  0.00  0.00    -0.271 OA
ATOM     12  N   UNL     1       1.101  -2.982  -1.239  0.00  0.00    -0.312 N 
ATOM     13  C   UNL     1       1.155  -4.371  -1.227  0.00  0.00    +0.041 A 
ATOM     14  C   UNL     1       1.042  -5.114  -2.391  0.00  0.00    +0.024 A 
ATOM     15  C   UNL     1       1.114  -6.492  -2.333  0.00  0.00    +0.002 A 
ATOM     16  C   UNL     1       1.298  -7.137  -1.120  0.00  0.00    +0.001 A 
ATOM     17  C   UNL     1       1.407  -6.413   0.049  0.00  0.00    +0.015 A 
ATOM     18  C   UNL     1       1.331  -5.022   0.006  0.00  0.00    +0.058 A 
ATOM     19  C   UNL     1       1.418  -4.209   1.232  0.00  0.00    +0.251 C 
ATOM     20  O   UNL     1       1.725  -4.724   2.289  0.00  0.00    -0.270 OA
ATOM     21  N   UNL     1       1.153  -2.888   1.170  0.00  0.00    -0.266 N 
ATOM     22  H   UNL     1       1.377  -2.485  -2.025  0.00  0.00    +0.149 HD
ENDROOT
BRANCH  21  23
ATOM     23  C   UNL     1       1.405  -2.047   2.343  0.00  0.00    +0.100 C 
BRANCH  23  24
ATOM     24  C   UNL     1       0.133  -1.960   3.189  0.00  0.00    -0.021 C 
BRANCH  24  25
ATOM     25  C   UNL     1      -0.174  -3.313   3.777  0.00  0.00    -0.059 A 
ATOM     26  C   UNL     1       0.499  -3.746   4.904  0.00  0.00    +0.002 A 
ATOM     27  C   UNL     1       0.218  -4.988   5.443  0.00  0.00    +0.000 A 
ATOM     28  C   UNL     1      -0.737  -5.796   4.855  0.00  0.00    +0.000 A 
ATOM     29  C   UNL     1      -1.410  -5.363   3.728  0.00  0.00    +0.000 A 
ATOM     30  C   UNL     1      -1.132  -4.120   3.192  0.00  0.00    +0.002 A 
ENDBRANCH  24  25
BRANCH  24  31
ATOM     31  N   UNL     1       0.333  -0.989   4.274  0.00  0.00    +0.382 N 
ATOM     32  C   UNL     1       0.564   0.344   3.702  0.00  0.00    -0.096 C 
ATOM     33  C   UNL     1      -0.863  -0.955   5.127  0.00  0.00    -0.096 C 
ATOM     34  H   UNL     1       1.132  -1.262   4.826  0.00  0.00    -0.082 HD
ENDBRANCH  24  31
ENDBRANCH  23  24
ENDBRANCH  21  23
TORSDOF 4
