REMARK  Name = ZINC62986490
REMARK  6 active torsions:
REMARK  status: ('A' for Active; 'I' for Inactive)
REMARK    1  A    between atoms: C_1  and  C_2
REMARK    2  A    between atoms: N_6  and  C_9
REMARK    3  A    between atoms: C_9  and  C_10
REMARK    4  A    between atoms: C_12  and  N_18
REMARK    5  A    between atoms: C_15  and  N_16
REMARK    6  A    between atoms: N_16  and  C_17
REMARK                            x       y       z     vdW  Elec       q    Type
REMARK                         _______ _______ _______ _____ _____    ______ ____
ROOT
ATOM      1  C   UNL     1       1.436  -3.075   2.995  0.00  0.00    -0.005 A 
ATOM      2  C   UNL     1       2.045  -4.291   2.754  0.00  0.00    +0.040 A 
ATOM      3  C   UNL     1       3.312  -4.542   3.248  0.00  0.00    +0.127 A 
ATOM      4  C   UNL     1       3.973  -3.577   3.985  0.00  0.00    +0.034 A 
ATOM      5  C   UNL     1       3.370  -2.359   4.231  0.00  0.00    +0.025 A 
ATOM      6  C   UNL     1       2.100  -2.102   3.731  0.00  0.00    +0.032 A 
ENDROOT
BRANCH   6   7
ATOM      7  N   UNL     1       1.489  -0.869   3.972  0.00  0.00    -0.347 N 
ATOM      8  C   UNL     1       2.232   0.196   4.650  0.00  0.00    +0.125 C 
ATOM      9  H   UNL     1       0.573  -0.719   3.691  0.00  0.00    +0.146 HD
ENDBRANCH   6   7
BRANCH   3  10
ATOM     10  N   UNL     1       3.961  -5.846   2.987  0.00  0.00    +0.056 N 
ATOM     11  O   UNL     1       3.384  -6.691   2.343  0.00  0.00    -0.126 OA
ATOM     12  O   UNL     1       5.069  -6.067   3.418  0.00  0.00    -0.126 OA
ENDBRANCH   3  10
BRANCH   1  13
ATOM     13  C   UNL     1       0.055  -2.803   2.457  0.00  0.00    +0.161 C 
BRANCH  13  19
ATOM     14  C   UNL     1      -0.670  -5.586  -1.581  0.00  0.00    +0.049 C 
ATOM     15  C   UNL     1      -0.832  -5.369  -0.098  0.00  0.00    +0.014 A 
ATOM     16  C   UNL     1      -1.469  -6.299   0.669  0.00  0.00    +0.010 A 
ATOM     17  C   UNL     1      -1.606  -6.074   2.046  0.00  0.00    +0.018 A 
ATOM     18  C   UNL     1      -1.108  -4.943   2.599  0.00  0.00    +0.089 A 
ATOM     19  N   UNL     1      -0.474  -4.019   1.834  0.00  0.00    -0.311 N 
ATOM     20  C   UNL     1      -0.322  -4.208   0.509  0.00  0.00    +0.254 A 
ATOM     21  O   UNL     1       0.255  -3.370  -0.165  0.00  0.00    -0.267 OA
ENDBRANCH  13  19
ENDBRANCH   1  13
TORSDOF 4
