REMARK  Name = ZINC27214849
REMARK  10 active torsions:
REMARK  status: ('A' for Active; 'I' for Inactive)
REMARK    1  A    between atoms: C_10  and  N_11
REMARK    2  A    between atoms: N_13  and  C_14
REMARK    3  A    between atoms: N_16  and  C_17
REMARK    4  A    between atoms: C_20  and  C_23
REMARK    5  A    between atoms: C_23  and  C_24
REMARK    6  A    between atoms: C_24  and  N_25
REMARK    7  A    between atoms: N_25  and  C_26
REMARK    8  A    between atoms: C_26  and  C_27
REMARK    9  A    between atoms: C_27  and  C_29
REMARK   10  A    between atoms: C_27  and  O_35
REMARK                            x       y       z     vdW  Elec       q    Type
REMARK                         _______ _______ _______ _____ _____    ______ ____
ROOT
ATOM      1  C   UNL     1       8.450  -0.866  -0.038  0.00  0.00    +0.042 A 
ATOM      2  C   UNL     1       8.298  -2.243   0.065  0.00  0.00    +0.026 A 
ATOM      3  C   UNL     1       9.408  -3.046   0.239  0.00  0.00    +0.005 A 
ATOM      4  C   UNL     1      10.668  -2.482   0.311  0.00  0.00    -0.049 A 
ATOM      5  C   UNL     1      10.822  -1.112   0.209  0.00  0.00    +0.005 A 
ATOM      6  C   UNL     1       9.718  -0.302   0.029  0.00  0.00    +0.026 A 
ENDROOT
BRANCH   1  10
ATOM      7  N   UNL     1       6.025  -1.501   1.052  0.00  0.00    -0.213 NA
ATOM      8  C   UNL     1       6.145  -0.364   0.405  0.00  0.00    +0.216 C 
ATOM      9  N   UNL     1       5.084   0.512   0.349  0.00  0.00    -0.263 N 
ATOM     10  N   UNL     1       7.329  -0.049  -0.215  0.00  0.00    -0.325 N 
ATOM     11  H   UNL     1       4.281   0.334   0.863  0.00  0.00    +0.181 HD
ATOM     12  H   UNL     1       7.388   0.741  -0.776  0.00  0.00    +0.169 HD
BRANCH   7  22
ATOM     13  C   UNL     1       4.333  -3.702   5.309  0.00  0.00    +0.001 A 
ATOM     14  C   UNL     1       5.598  -3.308   4.878  0.00  0.00    +0.001 A 
ATOM     15  C   UNL     1       5.771  -2.725   3.658  0.00  0.00    +0.010 A 
ATOM     16  C   UNL     1       4.664  -2.520   2.826  0.00  0.00    +0.008 A 
ATOM     17  C   UNL     1       3.377  -2.919   3.262  0.00  0.00    -0.016 A 
ATOM     18  C   UNL     1       3.236  -3.517   4.526  0.00  0.00    +0.008 A 
ATOM     19  C   UNL     1       2.268  -2.711   2.424  0.00  0.00    +0.008 A 
ATOM     20  C   UNL     1       2.421  -2.132   1.202  0.00  0.00    +0.003 A 
ATOM     21  C   UNL     1       3.663  -1.725   0.734  0.00  0.00    +0.028 A 
ATOM     22  C   UNL     1       4.802  -1.900   1.510  0.00  0.00    +0.075 A 
ENDBRANCH   7  22
BRANCH   9  23
ATOM     23  C   UNL     1       5.162   1.621  -0.425  0.00  0.00    +0.184 C 
ATOM     24  N   UNL     1       5.227   2.551  -1.074  0.00  0.00    -0.171 NA
ENDBRANCH   9  23
ENDBRANCH   1  10
BRANCH   4  25
ATOM     25  C   UNL     1      11.876  -3.363   0.502  0.00  0.00    +0.016 C 
BRANCH  25  26
ATOM     26  C   UNL     1      12.422  -3.783  -0.864  0.00  0.00    -0.078 C 
BRANCH  26  27
ATOM     27  N   UNL     1      13.599  -4.641  -0.679  0.00  0.00    +0.381 N 
ATOM     28  H   UNL     1      14.310  -4.132  -0.175  0.00  0.00    -0.086 HD
ATOM     29  H   UNL     1      13.338  -5.462  -0.154  0.00  0.00    -0.086 HD
BRANCH  27  30
ATOM     30  C   UNL     1      14.123  -5.045  -1.990  0.00  0.00    -0.046 C 
BRANCH  30  31
ATOM     31  C   UNL     1      15.350  -5.938  -1.797  0.00  0.00    +0.129 C 
BRANCH  31  32
ATOM     32  C   UNL     1      15.887  -6.352  -3.143  0.00  0.00    -0.003 A 
ATOM     33  C   UNL     1      15.505  -7.559  -3.710  0.00  0.00    +0.009 A 
ATOM     34  C   UNL     1      16.025  -7.898  -4.950  0.00  0.00    +0.020 A 
ATOM     35  C   UNL     1      16.900  -7.029  -5.574  0.00  0.00    +0.111 A 
ATOM     36  N   UNL     1      17.241  -5.890  -5.005  0.00  0.00    -0.263 NA
ATOM     37  C   UNL     1      16.762  -5.532  -3.829  0.00  0.00    +0.116 A 
ENDBRANCH  31  32
BRANCH  31  38
ATOM     38  O   UNL     1      16.356  -5.218  -1.083  0.00  0.00    -0.389 OA
ATOM     39  H   UNL     1      16.656  -4.414  -1.530  0.00  0.00    +0.210 HD
ENDBRANCH  31  38
ENDBRANCH  30  31
ENDBRANCH  27  30
ENDBRANCH  26  27
ENDBRANCH  25  26
ENDBRANCH   4  25
TORSDOF 10
