REMARK  Name = ZINC41301376
REMARK  8 active torsions:
REMARK  status: ('A' for Active; 'I' for Inactive)
REMARK    1  A    between atoms: C_1  and  C_2
REMARK    2  A    between atoms: C_2  and  C_3
REMARK    3  A    between atoms: C_3  and  C_5
REMARK    4  A    between atoms: C_3  and  N_6
REMARK    5  A    between atoms: C_10  and  N_25
REMARK    6  A    between atoms: C_11  and  N_13
REMARK    7  A    between atoms: N_13  and  C_14
REMARK    8  A    between atoms: C_21  and  C_24
REMARK                            x       y       z     vdW  Elec       q    Type
REMARK                         _______ _______ _______ _____ _____    ______ ____
ROOT
ATOM      1  N   UNL     1      -2.082  -0.162   1.273  0.00  0.00    -0.311 N 
ATOM      2  C   UNL     1      -3.459  -0.051   1.336  0.00  0.00    +0.219 A 
ATOM      3  N   UNL     1      -4.176  -0.289   0.248  0.00  0.00    -0.197 NA
ATOM      4  C   UNL     1      -5.503  -0.193   0.271  0.00  0.00    +0.154 A 
ATOM      5  C   UNL     1      -6.136   0.165   1.458  0.00  0.00    +0.205 A 
ATOM      6  C   UNL     1      -5.350   0.408   2.580  0.00  0.00    +0.163 A 
ATOM      7  N   UNL     1      -4.027   0.287   2.483  0.00  0.00    -0.197 NA
ATOM      8  N   UNL     1      -6.246  -0.444  -0.872  0.00  0.00    -0.341 N 
ATOM      9  H   UNL     1      -1.545   0.006   2.063  0.00  0.00    +0.149 HD
ATOM     10  H   UNL     1      -5.798  -0.692  -1.696  0.00  0.00    +0.144 HD
ATOM     11  H   UNL     1      -7.213  -0.371  -0.848  0.00  0.00    +0.144 HD
ENDROOT
BRANCH   5  12
ATOM     12  N   UNL     1      -7.610   0.284   1.526  0.00  0.00    +0.063 N 
ATOM     13  O   UNL     1      -8.281  -0.678   1.821  0.00  0.00    -0.126 OA
ATOM     14  O   UNL     1      -8.142   1.342   1.286  0.00  0.00    -0.126 OA
ENDBRANCH   5  12
BRANCH   1  15
ATOM     15  C   UNL     1      -1.433  -0.534   0.013  0.00  0.00    +0.070 C 
ATOM     16  C   UNL     1      -1.416  -2.058  -0.121  0.00  0.00    +0.028 C 
BRANCH  15  18
ATOM     17  C   UNL     1      -0.019   1.526   0.010  0.00  0.00    +0.005 C 
ATOM     18  C   UNL     1       0.002  -0.004   0.002  0.00  0.00    +0.018 C 
ENDBRANCH  15  18
ENDBRANCH   1  15
BRANCH   6  19
ATOM     19  N   UNL     1      -5.937   0.767   3.786  0.00  0.00    -0.266 N 
ATOM     20  H   UNL     1      -6.901   0.850   3.850  0.00  0.00    +0.157 HD
BRANCH  19  21
ATOM     21  C   UNL     1      -5.146   1.007   4.897  0.00  0.00    +0.226 A 
ATOM     22  C   UNL     1      -5.583   1.356   6.127  0.00  0.00    +0.037 A 
ATOM     23  C   UNL     1      -4.461   1.503   6.965  0.00  0.00    +0.089 A 
ATOM     24  N   UNL     1      -3.396   1.254   6.267  0.00  0.00    -0.081 NA
ATOM     25  O   UNL     1      -3.803   0.928   4.948  0.00  0.00    -0.339 OA
ATOM     26  C   UNL     1      -4.556   1.883   8.423  0.00  0.00    +0.059 C 
ATOM     27  C   UNL     1      -6.002   1.660   8.883  0.00  0.00    +0.010 C 
ATOM     28  C   UNL     1      -6.965   2.346   7.911  0.00  0.00    -0.009 C 
ATOM     29  C   UNL     1      -7.003   1.571   6.588  0.00  0.00    +0.045 C 
ATOM     30  C   UNL     1      -8.368   2.377   8.522  0.00  0.00    +0.008 C 
ENDBRANCH  19  21
ENDBRANCH   6  19
TORSDOF 5
