REMARK  Name = ZINC63562914
REMARK  7 active torsions:
REMARK  status: ('A' for Active; 'I' for Inactive)
REMARK    1  A    between atoms: C_1  and  C_2
REMARK    2  A    between atoms: N_5  and  S_8
REMARK    3  A    between atoms: S_8  and  N_11
REMARK    4  A    between atoms: C_15  and  C_18
REMARK    5  A    between atoms: N_20  and  C_21
REMARK    6  A    between atoms: C_21  and  C_22
REMARK    7  A    between atoms: C_22  and  C_23
REMARK                            x       y       z     vdW  Elec       q    Type
REMARK                         _______ _______ _______ _____ _____    ______ ____
ROOT
ATOM      1  N   UNL     1      -0.817  -5.169   1.546  0.00  0.00    -0.166 NA
ATOM      2  C   UNL     1      -1.754  -5.856   0.646  0.00  0.00    +0.110 C 
ATOM      3  C   UNL     1      -2.050  -7.248   1.213  0.00  0.00    +0.018 C 
ATOM      4  C   UNL     1      -0.733  -7.994   1.437  0.00  0.00    +0.015 C 
ATOM      5  C   UNL     1       0.121  -7.231   2.453  0.00  0.00    +0.091 C 
ATOM      6  C   UNL     1       0.444  -5.836   1.896  0.00  0.00    +0.123 C 
ENDROOT
BRANCH   5   7
ATOM      7  C   UNL     1       1.403  -7.983   2.698  0.00  0.00    +0.217 C 
ATOM      8  O   UNL     1       2.470  -7.458   2.458  0.00  0.00    -0.275 OA
ATOM      9  N   UNL     1       1.365  -9.239   3.184  0.00  0.00    -0.315 N 
ATOM     10  H   UNL     1       0.512  -9.660   3.376  0.00  0.00    +0.149 HD
BRANCH   9  11
ATOM     11  C   UNL     1       2.612  -9.971   3.422  0.00  0.00    +0.108 C 
BRANCH  11  12
ATOM     12  C   UNL     1       2.291 -11.362   3.971  0.00  0.00    +0.052 C 
BRANCH  12  13
ATOM     13  C   UNL     1       3.573 -12.115   4.216  0.00  0.00    -0.040 C 
ATOM     14  C   UNL     1       4.248 -12.212   5.384  0.00  0.00    -0.001 A 
ATOM     15  C   UNL     1       4.001 -11.666   6.724  0.00  0.00    +0.010 A 
ATOM     16  C   UNL     1       4.877 -11.942   7.717  0.00  0.00    +0.001 A 
ATOM     17  C   UNL     1       6.013 -12.734   7.498  0.00  0.00    +0.002 A 
ATOM     18  C   UNL     1       6.308 -13.270   6.295  0.00  0.00    +0.026 A 
ATOM     19  C   UNL     1       5.455 -13.045   5.180  0.00  0.00    +0.043 A 
ATOM     20  N   UNL     1       5.523 -13.447   3.934  0.00  0.00    -0.380 N 
ATOM     21  C   UNL     1       4.362 -12.919   3.208  0.00  0.00    +0.144 C 
ATOM     22  H   UNL     1       6.221 -14.005   3.556  0.00  0.00    +0.160 HD
ENDBRANCH  12  13
ENDBRANCH  11  12
ENDBRANCH   9  11
ENDBRANCH   5   7
BRANCH   1  23
ATOM     23  S   UNL     1      -1.173  -3.668   2.148  0.00  0.00    +0.100 S 
ATOM     24  O   UNL     1      -0.421  -3.521   3.344  0.00  0.00    -0.141 OA
ATOM     25  O   UNL     1      -2.589  -3.544   2.119  0.00  0.00    -0.141 OA
BRANCH  23  30
ATOM     26  C   UNL     1      -0.019   1.526   0.010  0.00  0.00    +0.007 C 
ATOM     27  C   UNL     1       0.002  -0.004   0.002  0.00  0.00    -0.012 C 
ATOM     28  C   UNL     1      -1.434  -0.533   0.011  0.00  0.00    +0.020 C 
ATOM     29  C   UNL     1      -1.409  -2.065  -0.032  0.00  0.00    +0.111 C 
ATOM     30  N   UNL     1      -0.578  -2.556   1.075  0.00  0.00    -0.166 NA
ATOM     31  C   UNL     1       0.791  -2.042   1.212  0.00  0.00    +0.111 C 
ATOM     32  C   UNL     1       0.742  -0.511   1.242  0.00  0.00    +0.020 C 
ENDBRANCH  23  30
ENDBRANCH   1  23
TORSDOF 6
