REMARK  Name = ZINC16853648
REMARK  12 active torsions:
REMARK  status: ('A' for Active; 'I' for Inactive)
REMARK    1  A    between atoms: C_1  and  C_2
REMARK    2  A    between atoms: C_2  and  C_3
REMARK    3  A    between atoms: C_3  and  C_4
REMARK    4  A    between atoms: C_4  and  C_5
REMARK    5  A    between atoms: C_5  and  O_6
REMARK    6  A    between atoms: O_6  and  C_7
REMARK    7  A    between atoms: C_7  and  C_9
REMARK    8  A    between atoms: C_9  and  C_11
REMARK    9  A    between atoms: C_9  and  C_12
REMARK   10  A    between atoms: C_12  and  C_13
REMARK   11  A    between atoms: C_14  and  O_28
REMARK   12  A    between atoms: C_23  and  C_27
REMARK                            x       y       z     vdW  Elec       q    Type
REMARK                         _______ _______ _______ _____ _____    ______ ____
ROOT
ATOM      1  C   UNL     1       0.660   3.630   1.388  0.00  0.00    +0.079 A 
ATOM      2  C   UNL     1       1.371   3.971   0.248  0.00  0.00    +0.223 A 
ATOM      3  N   UNL     1       2.617   4.435   0.384  0.00  0.00    -0.188 NA
ATOM      4  C   UNL     1       3.167   4.557   1.567  0.00  0.00    +0.184 A 
ATOM      5  N   UNL     1       2.537   4.238   2.735  0.00  0.00    -0.254 N 
ATOM      6  C   UNL     1       1.258   3.766   2.637  0.00  0.00    +0.266 A 
ATOM      7  O   UNL     1       0.640   3.463   3.646  0.00  0.00    -0.267 OA
ATOM      8  C   UNL     1       3.240   4.416   3.934  0.00  0.00    +0.066 A 
ATOM      9  C   UNL     1       2.763   4.146   5.228  0.00  0.00    +0.028 A 
ATOM     10  C   UNL     1       3.555   4.364   6.329  0.00  0.00    +0.005 A 
ATOM     11  C   UNL     1       4.844   4.856   6.202  0.00  0.00    -0.049 A 
ATOM     12  C   UNL     1       5.338   5.132   4.939  0.00  0.00    +0.020 A 
ATOM     13  C   UNL     1       4.543   4.912   3.837  0.00  0.00    +0.040 A 
ATOM     14  S   UNL     1       4.772   5.122   2.089  0.00  0.00    -0.049 S 
ATOM     15  C   UNL     1       5.696   5.089   7.422  0.00  0.00    +0.044 C 
ENDROOT
BRANCH   2  16
ATOM     16  O   UNL     1       0.812   3.843  -0.978  0.00  0.00    -0.492 OA
ATOM     17  H   UNL     1       1.392   4.108  -1.705  0.00  0.00    +0.294 HD
ENDBRANCH   2  16
BRANCH   1  18
ATOM     18  C   UNL     1      -0.750   3.109   1.275  0.00  0.00    +0.060 C 
BRANCH  18  19
ATOM     19  C   UNL     1      -0.729   1.579   1.267  0.00  0.00    +0.099 C 
ATOM     20  C   UNL     1      -0.013   1.086   0.008  0.00  0.00    +0.019 C 
BRANCH  19  21
ATOM     21  C   UNL     1      -2.143   1.058   1.278  0.00  0.00    +0.310 C 
ATOM     22  O   UNL     1      -3.071   1.830   1.290  0.00  0.00    -0.251 OA
BRANCH  21  23
ATOM     23  O   UNL     1      -2.370  -0.265   1.273  0.00  0.00    -0.464 OA
BRANCH  23  24
ATOM     24  C   UNL     1      -3.757  -0.696   1.284  0.00  0.00    +0.232 C 
BRANCH  24  25
ATOM     25  C   UNL     1      -3.816  -2.225   1.276  0.00  0.00    +0.041 C 
BRANCH  25  26
ATOM     26  C   UNL     1      -5.277  -2.678   1.287  0.00  0.00    +0.003 C 
BRANCH  26  28
ATOM     27  C   UNL     1      -6.798  -4.661   1.291  0.00  0.00    +0.004 C 
ATOM     28  C   UNL     1      -5.336  -4.207   1.280  0.00  0.00    -0.003 C 
ENDBRANCH  26  28
ENDBRANCH  25  26
ENDBRANCH  24  25
ENDBRANCH  23  24
ENDBRANCH  21  23
ENDBRANCH  19  21
ENDBRANCH  18  19
ENDBRANCH   1  18
TORSDOF 9
