REMARK  Name = ZINC58236010
REMARK  9 active torsions:
REMARK  status: ('A' for Active; 'I' for Inactive)
REMARK    1  A    between atoms: C_1  and  C_2
REMARK    2  A    between atoms: C_2  and  C_3
REMARK    3  A    between atoms: C_8  and  O_9
REMARK    4  A    between atoms: O_9  and  C_10
REMARK    5  A    between atoms: C_10  and  C_11
REMARK    6  A    between atoms: N_13  and  C_14
REMARK    7  A    between atoms: C_14  and  C_15
REMARK    8  A    between atoms: C_14  and  C_16
REMARK    9  A    between atoms: C_19  and  N_22
REMARK                            x       y       z     vdW  Elec       q    Type
REMARK                         _______ _______ _______ _____ _____    ______ ____
ROOT
ATOM      1  C   UNL     1       6.791   0.308   2.491  0.00  0.00    +0.100 C 
ATOM      2  C   UNL     1       7.008   1.811   2.297  0.00  0.00    +0.033 C 
ENDROOT
BRANCH   1   3
ATOM      3  C   UNL     1       8.124  -0.375   2.651  0.00  0.00    -0.027 A 
ATOM      4  C   UNL     1       8.893  -0.658   1.537  0.00  0.00    +0.007 A 
ATOM      5  C   UNL     1      10.116  -1.284   1.681  0.00  0.00    +0.023 A 
ATOM      6  C   UNL     1      10.573  -1.630   2.946  0.00  0.00    +0.035 A 
ATOM      7  C   UNL     1       9.798  -1.344   4.063  0.00  0.00    +0.023 A 
ATOM      8  C   UNL     1       8.579  -0.713   3.913  0.00  0.00    +0.007 A 
BRANCH   6   9
ATOM      9  N   UNL     1      11.811  -2.265   3.095  0.00  0.00    -0.270 N 
ATOM     10  C   UNL     1      12.822  -1.976   2.252  0.00  0.00    +0.301 C 
ATOM     11  O   UNL     1      12.691  -1.095   1.424  0.00  0.00    -0.253 OA
ATOM     12  N   UNL     1      13.979  -2.663   2.327  0.00  0.00    -0.313 N 
ATOM     13  H   UNL     1      11.941  -2.913   3.805  0.00  0.00    +0.156 HD
ATOM     14  H   UNL     1      14.084  -3.366   2.987  0.00  0.00    +0.146 HD
ATOM     15  H   UNL     1      14.707  -2.456   1.720  0.00  0.00    +0.146 HD
ENDBRANCH   6   9
ENDBRANCH   1   3
BRANCH   1  18
ATOM     16  C   UNL     1       4.754  -0.186   1.248  0.00  0.00    +0.251 C 
ATOM     17  O   UNL     1       4.117   0.316   2.149  0.00  0.00    -0.272 OA
ATOM     18  N   UNL     1       6.099  -0.239   1.321  0.00  0.00    -0.306 N 
ATOM     19  H   UNL     1       6.609  -0.641   0.600  0.00  0.00    +0.149 HD
BRANCH  16  20
ATOM     20  C   UNL     1       4.043  -0.750   0.045  0.00  0.00    +0.324 C 
BRANCH  20  21
ATOM     21  O   UNL     1       2.633  -0.575   0.200  0.00  0.00    -0.483 OA
BRANCH  21  27
ATOM     22  C   UNL     1       0.462  -0.896  -0.719  0.00  0.00    -0.006 A 
ATOM     23  C   UNL     1      -0.341  -1.356  -1.744  0.00  0.00    +0.007 A 
ATOM     24  C   UNL     1       0.227  -1.958  -2.852  0.00  0.00    +0.000 A 
ATOM     25  C   UNL     1       1.599  -2.100  -2.937  0.00  0.00    +0.004 A 
ATOM     26  C   UNL     1       2.407  -1.641  -1.915  0.00  0.00    +0.046 A 
ATOM     27  C   UNL     1       1.840  -1.032  -0.804  0.00  0.00    +0.124 A 
BRANCH  22  29
ATOM     28  C   UNL     1      -0.166   1.277   0.297  0.00  0.00    +0.009 C 
ATOM     29  C   UNL     1      -0.157  -0.241   0.488  0.00  0.00    +0.035 C 
ENDBRANCH  22  29
ENDBRANCH  21  27
ENDBRANCH  20  21
ENDBRANCH  16  20
ENDBRANCH   1  18
TORSDOF 7
