REMARK  Name = ZINC07985303
REMARK  11 active torsions:
REMARK  status: ('A' for Active; 'I' for Inactive)
REMARK    1  A    between atoms: C_1  and  C_2
REMARK    2  A    between atoms: C_5  and  N_9
REMARK    3  A    between atoms: C_6  and  C_8
REMARK    4  A    between atoms: C_10  and  C_12
REMARK    5  A    between atoms: C_12  and  C_13
REMARK    6  A    between atoms: C_13  and  C_15
REMARK    7  A    between atoms: C_13  and  N_55
REMARK    8  A    between atoms: C_16  and  C_18
REMARK    9  A    between atoms: C_16  and  C_19
REMARK   10  A    between atoms: C_16  and  N_55
REMARK   11  A    between atoms: C_22  and  N_25
REMARK                            x       y       z     vdW  Elec       q    Type
REMARK                         _______ _______ _______ _____ _____    ______ ____
ROOT
ATOM      1  N   UNL     1      -3.974  -4.601  -0.968  0.00  0.00    +0.385 N 
ATOM      2  H   UNL     1      -3.401  -4.490  -1.812  0.00  0.00    -0.085 HD
ATOM      3  H   UNL     1      -3.488  -5.215  -0.303  0.00  0.00    -0.085 HD
ENDROOT
BRANCH   1   4
ATOM      4  C   UNL     1      -5.268  -5.208  -1.333  0.00  0.00    -0.065 C 
ATOM      5  C   UNL     1      -5.705  -6.177  -0.233  0.00  0.00    -0.013 C 
BRANCH   4   6
ATOM      6  C   UNL     1      -5.112  -5.970  -2.651  0.00  0.00    +0.080 C 
BRANCH   6   8
ATOM      7  N   UNL     1      -4.621  -5.445  -5.018  0.00  0.00    -0.285 N 
ATOM      8  C   UNL     1      -4.802  -4.997  -3.760  0.00  0.00    +0.216 C 
ATOM      9  O   UNL     1      -4.714  -3.811  -3.519  0.00  0.00    -0.276 OA
ATOM     10  H   UNL     1      -4.747  -6.385  -5.221  0.00  0.00    +0.155 HD
BRANCH   7  15
ATOM     11  C   UNL     1      -3.126  -1.831  -9.127  0.00  0.00    +0.044 C 
ATOM     12  C   UNL     1      -3.523  -2.791  -8.036  0.00  0.00    -0.050 A 
ATOM     13  C   UNL     1      -4.213  -2.330  -6.929  0.00  0.00    +0.005 A 
ATOM     14  C   UNL     1      -4.578  -3.207  -5.927  0.00  0.00    +0.024 A 
ATOM     15  C   UNL     1      -4.253  -4.553  -6.032  0.00  0.00    +0.036 A 
ATOM     16  C   UNL     1      -3.556  -5.012  -7.142  0.00  0.00    -0.029 A 
ATOM     17  C   UNL     1      -3.198  -4.130  -8.143  0.00  0.00    +0.008 A 
ATOM     18  C   UNL     1      -3.196  -6.470  -7.257  0.00  0.00    +0.045 C 
ENDBRANCH   7  15
ENDBRANCH   6   8
ENDBRANCH   4   6
ENDBRANCH   1   4
BRANCH   1  19
ATOM     19  C   UNL     1      -4.186  -3.281  -0.345  0.00  0.00    -0.044 C 
ATOM     20  C   UNL     1      -4.157  -3.425   1.178  0.00  0.00    -0.009 C 
BRANCH  19  21
ATOM     21  C   UNL     1      -3.087  -2.346  -0.782  0.00  0.00    -0.062 A 
ATOM     22  C   UNL     1      -3.381  -1.028  -1.079  0.00  0.00    +0.004 A 
ATOM     23  C   UNL     1      -2.376  -0.169  -1.479  0.00  0.00    +0.026 A 
ATOM     24  C   UNL     1      -1.070  -0.629  -1.582  0.00  0.00    +0.047 A 
ATOM     25  C   UNL     1      -0.780  -1.954  -1.288  0.00  0.00    +0.026 A 
ATOM     26  C   UNL     1      -1.788  -2.808  -0.883  0.00  0.00    +0.004 A 
BRANCH  24  27
ATOM     27  N   UNL     1      -0.048   0.241  -1.988  0.00  0.00    -0.306 N 
ATOM     28  C   UNL     1       1.278  -0.072  -2.134  0.00  0.00    +0.112 A 
ATOM     29  C   UNL     1       1.902   1.050  -2.538  0.00  0.00    +0.130 A 
ATOM     30  N   UNL     1       0.986   2.025  -2.639  0.00  0.00    -0.244 NA
ATOM     31  C   UNL     1      -0.186   1.553  -2.312  0.00  0.00    +0.204 A 
ENDBRANCH  24  27
ENDBRANCH  19  21
ENDBRANCH   1  19
TORSDOF 7
