REMARK  Name = ZINC67295021
REMARK  6 active torsions:
REMARK  status: ('A' for Active; 'I' for Inactive)
REMARK    1  A    between atoms: C_1  and  O_2
REMARK    2  A    between atoms: O_2  and  C_3
REMARK    3  A    between atoms: C_5  and  N_11
REMARK    4  A    between atoms: C_7  and  O_9
REMARK    5  A    between atoms: O_9  and  C_10
REMARK    6  A    between atoms: C_13  and  C_23
REMARK                            x       y       z     vdW  Elec       q    Type
REMARK                         _______ _______ _______ _____ _____    ______ ____
ROOT
ATOM      1  N   UNL     1      -1.871  -4.499   0.388  0.00  0.00    -0.325 N 
ATOM      2  C   UNL     1      -3.044  -4.739   0.933  0.00  0.00    +0.212 A 
ATOM      3  C   UNL     1      -3.759  -6.004   0.674  0.00  0.00    +0.098 A 
ATOM      4  C   UNL     1      -4.642  -6.443   1.653  0.00  0.00    +0.030 A 
ATOM      5  C   UNL     1      -4.785  -5.613   2.851  0.00  0.00    +0.019 A 
ATOM      6  C   UNL     1      -5.438  -6.104   3.989  0.00  0.00    +0.026 A 
ATOM      7  C   UNL     1      -5.556  -5.304   5.104  0.00  0.00    +0.019 A 
ATOM      8  C   UNL     1      -5.032  -4.019   5.104  0.00  0.00    +0.019 A 
ATOM      9  C   UNL     1      -4.386  -3.521   3.990  0.00  0.00    +0.048 A 
ATOM     10  C   UNL     1      -4.258  -4.308   2.855  0.00  0.00    +0.137 A 
ATOM     11  O   UNL     1      -3.631  -3.832   1.755  0.00  0.00    -0.439 OA
ATOM     12 BR   UNL     1      -6.437  -5.961   6.643  0.00  0.00    -0.050 Br
ATOM     13  H   UNL     1      -1.417  -5.196  -0.111  0.00  0.00    +0.169 HD
ENDROOT
BRANCH   3  14
ATOM     14  C   UNL     1      -3.546  -6.768  -0.566  0.00  0.00    +0.254 C 
ATOM     15  O   UNL     1      -4.051  -7.866  -0.699  0.00  0.00    -0.270 OA
ATOM     16  N   UNL     1      -2.790  -6.250  -1.555  0.00  0.00    -0.266 N 
ATOM     17  C   UNL     1      -2.646  -6.940  -2.756  0.00  0.00    +0.125 A 
ATOM     18  C   UNL     1      -2.907  -8.305  -2.802  0.00  0.00    +0.044 A 
ATOM     19  C   UNL     1      -2.761  -8.978  -4.002  0.00  0.00    +0.005 A 
ATOM     20  C   UNL     1      -2.357  -8.259  -5.120  0.00  0.00    +0.020 A 
ATOM     21  C   UNL     1      -2.115  -6.905  -5.002  0.00  0.00    +0.113 A 
ATOM     22  N   UNL     1      -2.268  -6.289  -3.845  0.00  0.00    -0.240 NA
ATOM     23  H   UNL     1      -2.346  -5.396  -1.429  0.00  0.00    +0.157 HD
ENDBRANCH   3  14
BRANCH   1  26
ATOM     24  C   UNL     1       0.643  -1.913   0.989  0.00  0.00    +0.126 A 
ATOM     25  C   UNL     1       0.061  -3.162   0.852  0.00  0.00    +0.071 A 
ATOM     26  C   UNL     1      -1.293  -3.268   0.524  0.00  0.00    +0.049 A 
ATOM     27  C   UNL     1      -2.053  -2.111   0.336  0.00  0.00    +0.071 A 
ATOM     28  C   UNL     1      -1.462  -0.867   0.475  0.00  0.00    +0.126 A 
ATOM     29  C   UNL     1      -0.118  -0.767   0.806  0.00  0.00    +0.091 A 
BRANCH  24  31
ATOM     30  C   UNL     1       2.493  -0.490   1.438  0.00  0.00    +0.277 C 
ATOM     31  O   UNL     1       1.960  -1.809   1.307  0.00  0.00    -0.495 OA
ENDBRANCH  24  31
BRANCH  28  32
ATOM     32  O   UNL     1      -2.201   0.259   0.291  0.00  0.00    -0.495 OA
ATOM     33  C   UNL     1      -1.528   1.510   0.450  0.00  0.00    +0.277 C 
ENDBRANCH  28  32
ENDBRANCH   1  26
TORSDOF 4
