REMARK  Name = ZINC37929958
REMARK  6 active torsions:
REMARK  status: ('A' for Active; 'I' for Inactive)
REMARK    1  A    between atoms: C_1  and  C_2
REMARK    2  A    between atoms: N_7  and  S_8
REMARK    3  A    between atoms: S_8  and  C_11
REMARK    4  A    between atoms: C_13  and  N_20
REMARK    5  A    between atoms: C_16  and  N_17
REMARK    6  A    between atoms: N_20  and  N_21
REMARK                            x       y       z     vdW  Elec       q    Type
REMARK                         _______ _______ _______ _____ _____    ______ ____
ROOT
ATOM      1  C   UNL     1       0.106  -5.417   3.346  0.00  0.00    +0.144 A 
ATOM      2  C   UNL     1      -1.004  -6.125   3.763  0.00  0.00    +0.055 A 
ATOM      3  C   UNL     1      -1.001  -6.753   5.001  0.00  0.00    +0.043 A 
ATOM      4  C   UNL     1       0.120  -6.668   5.817  0.00  0.00    +0.026 A 
ATOM      5  C   UNL     1       1.227  -5.958   5.394  0.00  0.00    +0.036 A 
ATOM      6  C   UNL     1       1.222  -5.338   4.158  0.00  0.00    +0.153 A 
ENDROOT
BRANCH   1   7
ATOM      7  S   UNL     1       0.103  -4.619   1.775  0.00  0.00    +0.103 S 
ATOM      8  O   UNL     1      -1.194  -4.806   1.227  0.00  0.00    -0.146 OA
ATOM      9  O   UNL     1       1.282  -5.042   1.103  0.00  0.00    -0.146 OA
BRANCH   7  16
ATOM     10  C   UNL     1       0.576   1.371  -0.180  0.00  0.00    +0.064 C 
ATOM     11  C   UNL     1       0.434  -0.129  -0.148  0.00  0.00    +0.022 A 
ATOM     12  C   UNL     1       0.312  -0.809  -1.289  0.00  0.00    +0.069 A 
ATOM     13  S   UNL     1       0.180  -2.493  -0.710  0.00  0.00    -0.057 S 
ATOM     14  C   UNL     1       0.300  -2.159   1.041  0.00  0.00    +0.192 A 
ATOM     15  N   UNL     1       0.437  -0.788   1.046  0.00  0.00    -0.336 N 
ATOM     16  N   UNL     1       0.272  -2.995   2.050  0.00  0.00    -0.103 NA
ATOM     17  H   UNL     1       0.529  -0.302   1.880  0.00  0.00    +0.168 HD
ENDBRANCH   7  16
ENDBRANCH   1   7
BRANCH   6  18
ATOM     18  N   UNL     1       2.413  -4.583   3.706  0.00  0.00    +0.058 N 
ATOM     19  O   UNL     1       3.430  -4.613   4.358  0.00  0.00    -0.126 OA
ATOM     20  O   UNL     1       2.367  -3.937   2.686  0.00  0.00    -0.126 OA
ENDBRANCH   6  18
BRANCH   3  21
ATOM     21  N   UNL     1      -2.123  -7.469   5.425  0.00  0.00    -0.283 N 
ATOM     22  H   UNL     1      -2.905  -7.528   4.855  0.00  0.00    +0.166 HD
BRANCH  21  23
ATOM     23  N   UNL     1      -2.118  -8.087   6.644  0.00  0.00    -0.257 NA
ATOM     24  H   UNL     1      -2.991  -8.562   6.812  0.00  0.00    +0.140 HD
ATOM     25  H   UNL     1      -1.339  -8.723   6.723  0.00  0.00    +0.140 HD
ENDBRANCH  21  23
ENDBRANCH   3  21
TORSDOF 5
