REMARK  Name = ZINC44075497
REMARK  13 active torsions:
REMARK  status: ('A' for Active; 'I' for Inactive)
REMARK    1  A    between atoms: C_1  and  C_2
REMARK    2  A    between atoms: C_2  and  C_4
REMARK    3  A    between atoms: C_4  and  C_5
REMARK    4  A    between atoms: C_7  and  O_38
REMARK    5  A    between atoms: C_9  and  O_37
REMARK    6  A    between atoms: C_11  and  C_35
REMARK    7  A    between atoms: C_14  and  N_16
REMARK    8  A    between atoms: C_17  and  C_19
REMARK    9  A    between atoms: C_19  and  C_20
REMARK   10  A    between atoms: C_20  and  C_21
REMARK   11  A    between atoms: C_21  and  C_22
REMARK   12  A    between atoms: C_22  and  C_23
REMARK   13  A    between atoms: C_35  and  O_36
REMARK                            x       y       z     vdW  Elec       q    Type
REMARK                         _______ _______ _______ _____ _____    ______ ____
ROOT
ATOM      1  N   UNL     1       0.810  -2.101   1.550  0.00  0.00    -0.290 N 
ATOM      2  C   UNL     1       1.270  -1.792   2.779  0.00  0.00    +0.215 C 
ATOM      3  O   UNL     1       0.586  -2.014   3.756  0.00  0.00    -0.276 OA
ATOM      4  H   UNL     1       1.357  -1.923   0.769  0.00  0.00    +0.151 HD
ENDROOT
BRANCH   1  10
ATOM      5  C   UNL     1      -1.158  -2.201   0.100  0.00  0.00    +0.074 C 
ATOM      6  C   UNL     1      -2.516  -2.883  -0.088  0.00  0.00    +0.153 C 
ATOM      7  C   UNL     1      -2.315  -4.402  -0.093  0.00  0.00    +0.174 C 
ATOM      8  C   UNL     1      -1.629  -4.823   1.209  0.00  0.00    +0.177 C 
ATOM      9  O   UNL     1      -0.387  -4.129   1.337  0.00  0.00    -0.350 OA
ATOM     10  C   UNL     1      -0.514  -2.707   1.394  0.00  0.00    +0.212 C 
BRANCH   7  11
ATOM     11  O   UNL     1      -1.499  -4.772  -1.206  0.00  0.00    -0.387 OA
ATOM     12  H   UNL     1      -1.331  -5.722  -1.272  0.00  0.00    +0.210 HD
ENDBRANCH   7  11
BRANCH   6  13
ATOM     13  O   UNL     1      -3.387  -2.518   0.984  0.00  0.00    -0.389 OA
ATOM     14  H   UNL     1      -4.267  -2.916   0.929  0.00  0.00    +0.210 HD
ENDBRANCH   6  13
BRANCH   5  15
ATOM     15  C   UNL     1      -1.354  -0.686   0.185  0.00  0.00    +0.084 C 
BRANCH  15  17
ATOM     16  C   UNL     1      -2.235   1.280  -1.289  0.00  0.00    +0.086 C 
ATOM     17  C   UNL     1      -1.842  -0.167  -1.143  0.00  0.00    +0.131 C 
ATOM     18  O   UNL     1      -1.917  -0.912  -2.091  0.00  0.00    -0.298 OA
ENDBRANCH  15  17
ENDBRANCH   5  15
BRANCH   8  19
ATOM     19  C   UNL     1      -1.371  -6.331   1.185  0.00  0.00    +0.190 C 
BRANCH  19  20
ATOM     20  O   UNL     1      -0.838  -6.742   2.445  0.00  0.00    -0.392 OA
ATOM     21  H   UNL     1      -0.650  -7.689   2.502  0.00  0.00    +0.210 HD
ENDBRANCH  19  20
ENDBRANCH   8  19
ENDBRANCH   1  10
BRANCH   2  22
ATOM     22  C   UNL     1       2.632  -1.169   2.939  0.00  0.00    +0.096 C 
BRANCH  22  23
ATOM     23  C   UNL     1       2.908  -0.920   4.424  0.00  0.00    +0.009 C 
BRANCH  23  24
ATOM     24  C   UNL     1       4.292  -0.288   4.587  0.00  0.00    +0.002 C 
BRANCH  24  25
ATOM     25  C   UNL     1       4.567  -0.039   6.071  0.00  0.00    +0.016 C 
BRANCH  25  26
ATOM     26  C   UNL     1       5.951   0.593   6.234  0.00  0.00    +0.069 C 
ATOM     27  C   UNL     1       6.249   0.899   7.717  0.00  0.00    +0.108 C 
ATOM     28  C   UNL     1       7.697   0.614   8.126  0.00  0.00    +0.105 C 
ATOM     29  C   UNL     1       8.574   0.085   6.971  0.00  0.00    +0.093 C 
ATOM     30  S   UNL     1       7.284  -0.620   5.836  0.00  0.00    -0.154 S 
ATOM     31  N   UNL     1       8.214   1.925   8.550  0.00  0.00    -0.294 N 
ATOM     32  C   UNL     1       7.244   2.840   8.419  0.00  0.00    +0.300 C 
ATOM     33  O   UNL     1       7.396   4.013   8.698  0.00  0.00    -0.253 OA
ATOM     34  N   UNL     1       6.100   2.345   7.949  0.00  0.00    -0.294 N 
ATOM     35  H   UNL     1       9.112   2.099   8.872  0.00  0.00    +0.151 HD
ATOM     36  H   UNL     1       5.295   2.861   7.788  0.00  0.00    +0.151 HD
ENDBRANCH  25  26
ENDBRANCH  24  25
ENDBRANCH  23  24
ENDBRANCH  22  23
ENDBRANCH   2  22
TORSDOF 12
