REMARK  Name = ZINC36236335
REMARK  7 active torsions:
REMARK  status: ('A' for Active; 'I' for Inactive)
REMARK    1  A    between atoms: C_1  and  O_2
REMARK    2  A    between atoms: O_2  and  C_3
REMARK    3  A    between atoms: C_5  and  C_13
REMARK    4  A    between atoms: C_7  and  N_10
REMARK    5  A    between atoms: C_8  and  O_9
REMARK    6  A    between atoms: N_14  and  N_15
REMARK    7  A    between atoms: C_16  and  C_18
REMARK                            x       y       z     vdW  Elec       q    Type
REMARK                         _______ _______ _______ _____ _____    ______ ____
ROOT
ATOM      1  C   UNL     1       0.626  -0.619   1.042  0.00  0.00    +0.164 A 
ATOM      2  C   UNL     1       1.200   0.137   2.048  0.00  0.00    +0.059 A 
ATOM      3  C   UNL     1       1.841  -0.498   3.115  0.00  0.00    +0.000 A 
ATOM      4  C   UNL     1       1.898  -1.894   3.160  0.00  0.00    +0.046 A 
ATOM      5  C   UNL     1       1.323  -2.640   2.154  0.00  0.00    +0.172 A 
ATOM      6  C   UNL     1       0.682  -2.010   1.097  0.00  0.00    +0.189 A 
ENDROOT
BRANCH   5   7
ATOM      7  N   UNL     1       1.384  -4.119   2.204  0.00  0.00    +0.060 N 
ATOM      8  O   UNL     1       1.938  -4.670   3.126  0.00  0.00    -0.126 OA
ATOM      9  O   UNL     1       0.881  -4.775   1.322  0.00  0.00    -0.126 OA
ENDBRANCH   5   7
BRANCH   1  11
ATOM     10  C   UNL     1      -0.017   1.425   0.010  0.00  0.00    +0.277 C 
ATOM     11  O   UNL     1       0.002  -0.004   0.002  0.00  0.00    -0.491 OA
ENDBRANCH   1  11
BRANCH   6  12
ATOM     12  O   UNL     1       0.112  -2.751   0.111  0.00  0.00    -0.502 OA
ATOM     13  H   UNL     1       0.707  -2.952  -0.624  0.00  0.00    +0.292 HD
ENDBRANCH   6  12
BRANCH   3  14
ATOM     14  C   UNL     1       2.455   0.302   4.190  0.00  0.00    +0.138 C 
ATOM     15  N   UNL     1       3.050  -0.290   5.180  0.00  0.00    -0.187 NA
BRANCH  15  16
ATOM     16  N   UNL     1       3.634   0.471   6.202  0.00  0.00    -0.203 N 
ATOM     17  C   UNL     1       4.251  -0.143   7.231  0.00  0.00    +0.264 C 
ATOM     18  O   UNL     1       4.301  -1.358   7.272  0.00  0.00    -0.268 OA
ATOM     19  H   UNL     1       3.594   1.439   6.169  0.00  0.00    +0.178 HD
BRANCH  17  20
ATOM     20  C   UNL     1       4.867   0.658   8.308  0.00  0.00    +0.052 A 
ATOM     21  C   UNL     1       4.806   2.053   8.266  0.00  0.00    +0.014 A 
ATOM     22  C   UNL     1       5.382   2.796   9.275  0.00  0.00    +0.001 A 
ATOM     23  C   UNL     1       6.020   2.162  10.328  0.00  0.00    +0.001 A 
ATOM     24  C   UNL     1       6.085   0.782  10.376  0.00  0.00    +0.016 A 
ATOM     25  C   UNL     1       5.507   0.025   9.375  0.00  0.00    +0.030 A 
ATOM     26 BR   UNL     1       5.590  -1.863   9.446  0.00  0.00    -0.050 Br
ENDBRANCH  17  20
ENDBRANCH  15  16
ENDBRANCH   3  14
TORSDOF 6
