REMARK  Name = ZINC39468761
REMARK  3 active torsions:
REMARK  status: ('A' for Active; 'I' for Inactive)
REMARK    1  A    between atoms: C_4  and  C_7
REMARK    2  A    between atoms: C_7  and  C_8
REMARK    3  A    between atoms: C_25  and  O_26
REMARK                            x       y       z     vdW  Elec       q    Type
REMARK                         _______ _______ _______ _____ _____    ______ ____
ROOT
ATOM      1  C   UNL     1       4.164  -0.959   1.377  0.00  0.00    -0.006 C 
ATOM      2  C   UNL     1       3.892  -2.122   1.970  0.00  0.00    -0.016 C 
ATOM      3  C   UNL     1       4.369  -2.347   3.378  0.00  0.00    +0.016 C 
ATOM      4  C   UNL     1       4.485  -3.833   3.701  0.00  0.00    -0.003 C 
ATOM      5  C   UNL     1       5.009  -4.005   5.134  0.00  0.00    -0.020 C 
ATOM      6  C   UNL     1       5.128  -5.511   5.398  0.00  0.00    +0.159 C 
ATOM      7  O   UNL     1       5.534  -5.726   6.762  0.00  0.00    -0.297 OA
ATOM      8  P   UNL     1       6.824  -4.898   7.308  0.00  0.00    +0.421 P 
ATOM      9  O   UNL     1       8.132  -5.584   6.854  0.00  0.00    -0.239 OA
ATOM     10  N   UNL     1       6.698  -3.399   6.627  0.00  0.00    -0.267 NA
ATOM     11  N   UNL     1       6.304  -3.345   5.305  0.00  0.00    +0.399 N 
ATOM     12  C   UNL     1       6.226  -1.912   4.973  0.00  0.00    -0.046 C 
ATOM     13  C   UNL     1       5.761  -1.720   3.537  0.00  0.00    +0.008 C 
ATOM     14  C   UNL     1       5.687  -0.269   3.147  0.00  0.00    +0.021 C 
ATOM     15  C   UNL     1       4.917   0.078   2.111  0.00  0.00    +0.116 C 
ATOM     16  O   UNL     1       6.781  -4.795   8.849  0.00  0.00    -0.128 OA
ATOM     17  H   UNL     1       6.902  -2.598   7.134  0.00  0.00    +0.113 HD
ATOM     18  H   UNL     1       6.990  -3.793   4.716  0.00  0.00    -0.055 HD
ENDROOT
BRANCH  15  19
ATOM     19  O   UNL     1       4.825   1.381   1.738  0.00  0.00    -0.507 OA
ATOM     20  H   UNL     1       5.354   1.983   2.278  0.00  0.00    +0.292 HD
ENDBRANCH  15  19
BRANCH   1  21
ATOM     21  C   UNL     1       3.711  -0.707  -0.038  0.00  0.00    +0.073 C 
BRANCH  21  25
ATOM     22  C   UNL     1      -0.017   1.378   0.010  0.00  0.00    +0.000 A 
ATOM     23  C   UNL     1       1.171   2.086   0.002  0.00  0.00    +0.000 A 
ATOM     24  C   UNL     1       2.377   1.411  -0.013  0.00  0.00    +0.004 A 
ATOM     25  C   UNL     1       2.396   0.029  -0.020  0.00  0.00    -0.043 A 
ATOM     26  C   UNL     1       1.208  -0.679  -0.012  0.00  0.00    +0.004 A 
ATOM     27  C   UNL     1       0.002  -0.004   0.002  0.00  0.00    +0.000 A 
ENDBRANCH  21  25
ENDBRANCH   1  21
TORSDOF 3
