REMARK  Name = ZINC39856320
REMARK  8 active torsions:
REMARK  status: ('A' for Active; 'I' for Inactive)
REMARK    1  A    between atoms: C_1  and  C_2
REMARK    2  A    between atoms: C_6  and  C_7
REMARK    3  A    between atoms: N_9  and  C_10
REMARK    4  A    between atoms: C_10  and  C_11
REMARK    5  A    between atoms: C_11  and  C_12
REMARK    6  A    between atoms: C_19  and  C_27
REMARK    7  A    between atoms: C_19  and  C_28
REMARK    8  A    between atoms: N_22  and  N_23
REMARK                            x       y       z     vdW  Elec       q    Type
REMARK                         _______ _______ _______ _____ _____    ______ ____
ROOT
ATOM      1  C   UNL     1      -0.018   1.503   0.010  0.00  0.00    +0.048 C 
ATOM      2  C   UNL     1       0.002  -0.004   0.002  0.00  0.00    +0.009 A 
ATOM      3  C   UNL     1       0.008  -0.838  -1.123  0.00  0.00    +0.042 A 
ATOM      4  C   UNL     1       0.026  -2.137  -0.673  0.00  0.00    +0.116 A 
ATOM      5  O   UNL     1       0.034  -2.112   0.658  0.00  0.00    -0.454 OA
ATOM      6  C   UNL     1       0.024  -0.830   1.091  0.00  0.00    +0.193 A 
ATOM      7  C   UNL     1       0.033  -3.326  -1.600  0.00  0.00    +0.081 C 
ATOM      8  C   UNL     1      -0.492  -2.902  -2.974  0.00  0.00    -0.023 C 
ATOM      9  C   UNL     1       0.280  -1.685  -3.495  0.00  0.00    +0.064 C 
ATOM     10  C   UNL     1       0.001  -0.512  -2.566  0.00  0.00    +0.071 C 
ATOM     11  N   UNL     1      -0.227   0.686  -3.008  0.00  0.00    -0.183 NA
ATOM     12  C   UNL     1      -1.976  -2.548  -2.861  0.00  0.00    +0.011 C 
ATOM     13  C   UNL     1      -0.325  -4.063  -3.957  0.00  0.00    +0.011 C 
ENDROOT
BRANCH  11  14
ATOM     14  N   UNL     1      -0.222   0.938  -4.386  0.00  0.00    -0.191 N 
ATOM     15  C   UNL     1      -0.458   2.183  -4.845  0.00  0.00    +0.317 C 
ATOM     16  O   UNL     1      -0.454   2.401  -6.041  0.00  0.00    -0.251 OA
ATOM     17  N   UNL     1      -0.700   3.186  -3.977  0.00  0.00    -0.312 N 
ATOM     18  H   UNL     1      -0.048   0.216  -5.010  0.00  0.00    +0.179 HD
ATOM     19  H   UNL     1      -0.703   3.012  -3.023  0.00  0.00    +0.147 HD
ATOM     20  H   UNL     1      -0.870   4.082  -4.308  0.00  0.00    +0.147 HD
ENDBRANCH  11  14
BRANCH   6  21
ATOM     21  C   UNL     1       0.032  -0.400   2.494  0.00  0.00    +0.280 C 
ATOM     22  O   UNL     1       0.019   0.786   2.766  0.00  0.00    -0.267 OA
ATOM     23  N   UNL     1       0.054  -1.317   3.480  0.00  0.00    -0.309 N 
ATOM     24  H   UNL     1       0.065  -2.263   3.263  0.00  0.00    +0.149 HD
BRANCH  23  25
ATOM     25  C   UNL     1       0.062  -0.887   4.881  0.00  0.00    +0.109 C 
BRANCH  25  26
ATOM     26  C   UNL     1       0.088  -2.116   5.792  0.00  0.00    +0.054 C 
BRANCH  26  27
ATOM     27  C   UNL     1       0.097  -1.674   7.232  0.00  0.00    -0.046 A 
ATOM     28  C   UNL     1       1.297  -1.449   7.879  0.00  0.00    +0.004 A 
ATOM     29  C   UNL     1       1.305  -1.043   9.201  0.00  0.00    +0.000 A 
ATOM     30  C   UNL     1       0.112  -0.862   9.875  0.00  0.00    +0.000 A 
ATOM     31  C   UNL     1      -1.089  -1.085   9.227  0.00  0.00    +0.000 A 
ATOM     32  C   UNL     1      -1.097  -1.487   7.905  0.00  0.00    +0.004 A 
ENDBRANCH  26  27
ENDBRANCH  25  26
ENDBRANCH  23  25
ENDBRANCH   6  21
TORSDOF 5
