REMARK  Name = ZINC10271810
REMARK  14 active torsions:
REMARK  status: ('A' for Active; 'I' for Inactive)
REMARK    1  A    between atoms: C_1  and  C_2
REMARK    2  A    between atoms: N_9  and  O_10
REMARK    3  A    between atoms: O_10  and  C_11
REMARK    4  A    between atoms: C_13  and  N_26
REMARK    5  A    between atoms: C_15  and  O_25
REMARK    6  A    between atoms: C_17  and  O_24
REMARK    7  A    between atoms: C_19  and  C_22
REMARK    8  A    between atoms: C_22  and  O_23
REMARK    9  A    between atoms: C_27  and  C_29
REMARK   10  A    between atoms: N_32  and  C_33
REMARK   11  A    between atoms: C_33  and  C_34
REMARK   12  A    between atoms: C_34  and  C_35
REMARK   13  A    between atoms: C_35  and  C_36
REMARK   14  A    between atoms: C_35  and  C_37
REMARK                            x       y       z     vdW  Elec       q    Type
REMARK                         _______ _______ _______ _____ _____    ______ ____
ROOT
ATOM      1  O   UNL     1      -2.383   9.606   0.704  0.00  0.00    -0.359 OA
ENDROOT
BRANCH   1  10
ATOM      2  C   UNL     1       1.755   8.922  -2.189  0.00  0.00    +0.044 C 
ATOM      3  C   UNL     1       0.901   7.855  -1.555  0.00  0.00    -0.050 A 
ATOM      4  C   UNL     1       1.216   6.519  -1.737  0.00  0.00    +0.005 A 
ATOM      5  C   UNL     1       0.443   5.530  -1.162  0.00  0.00    +0.024 A 
ATOM      6  C   UNL     1      -0.665   5.868  -0.392  0.00  0.00    +0.046 A 
ATOM      7  C   UNL     1      -0.980   7.221  -0.212  0.00  0.00    +0.030 A 
ATOM      8  C   UNL     1      -0.195   8.210  -0.794  0.00  0.00    +0.015 A 
ATOM      9  C   UNL     1      -2.192   7.260   0.641  0.00  0.00    +0.174 C 
ATOM     10  N   UNL     1      -2.834   8.312   1.061  0.00  0.00    -0.076 NA
ATOM     11  C   UNL     1      -2.517   5.834   0.905  0.00  0.00    +0.273 C 
ATOM     12  O   UNL     1      -3.450   5.423   1.567  0.00  0.00    -0.268 OA
ATOM     13  N   UNL     1      -1.593   5.082   0.284  0.00  0.00    -0.265 N 
BRANCH  13  14
ATOM     14  C   UNL     1      -1.568   3.617   0.311  0.00  0.00    +0.114 C 
BRANCH  14  15
ATOM     15  C   UNL     1      -0.730   3.143   1.500  0.00  0.00    +0.022 C 
BRANCH  15  16
ATOM     16  C   UNL     1      -0.704   1.613   1.528  0.00  0.00    -0.016 C 
ATOM     17  C   UNL     1       0.023   1.093   0.286  0.00  0.00    +0.007 C 
ATOM     18  C   UNL     1       0.029   1.139   2.784  0.00  0.00    +0.007 C 
ENDBRANCH  15  16
ENDBRANCH  14  15
ENDBRANCH  13  14
ENDBRANCH   1  10
BRANCH   1  19
ATOM     19  C   UNL     1      -3.182  10.666   1.233  0.00  0.00    +0.360 C 
ATOM     20  C   UNL     1      -3.135  11.864   0.282  0.00  0.00    +0.175 C 
ATOM     21  C   UNL     1      -3.943  13.017   0.885  0.00  0.00    +0.172 C 
ATOM     22  C   UNL     1      -3.380  13.352   2.270  0.00  0.00    +0.176 C 
ATOM     23  C   UNL     1      -3.417  12.096   3.144  0.00  0.00    +0.179 C 
ATOM     24  O   UNL     1      -2.672  11.053   2.511  0.00  0.00    -0.330 OA
BRANCH  20  25
ATOM     25  N   UNL     1      -1.745  12.287   0.095  0.00  0.00    -0.304 N 
ATOM     26  C   UNL     1      -1.370  12.881  -1.056  0.00  0.00    +0.210 C 
ATOM     27  O   UNL     1      -2.184  13.066  -1.936  0.00  0.00    -0.276 OA
ATOM     28  C   UNL     1       0.060  13.316  -1.249  0.00  0.00    +0.109 C 
ATOM     29  H   UNL     1      -1.094  12.139   0.798  0.00  0.00    +0.149 HD
ENDBRANCH  20  25
BRANCH  22  30
ATOM     30  O   UNL     1      -2.030  13.804   2.141  0.00  0.00    -0.387 OA
ATOM     31  H   UNL     1      -1.609  14.030   2.982  0.00  0.00    +0.210 HD
ENDBRANCH  22  30
BRANCH  21  32
ATOM     32  O   UNL     1      -3.846  14.165   0.040  0.00  0.00    -0.387 OA
ATOM     33  H   UNL     1      -4.331  14.936   0.366  0.00  0.00    +0.210 HD
ENDBRANCH  21  32
BRANCH  23  34
ATOM     34  C   UNL     1      -2.801  12.406   4.510  0.00  0.00    +0.190 C 
BRANCH  34  35
ATOM     35  O   UNL     1      -2.940  11.269   5.365  0.00  0.00    -0.392 OA
ATOM     36  H   UNL     1      -2.570  11.395   6.249  0.00  0.00    +0.210 HD
ENDBRANCH  34  35
ENDBRANCH  23  34
ENDBRANCH   1  19
TORSDOF 10
