REMARK  Name = ZINC42765941
REMARK  3 active torsions:
REMARK  status: ('A' for Active; 'I' for Inactive)
REMARK    1  A    between atoms: C_2  and  N_10
REMARK    2  A    between atoms: C_5  and  N_8
REMARK    3  A    between atoms: C_11  and  C_13
REMARK                            x       y       z     vdW  Elec       q    Type
REMARK                         _______ _______ _______ _____ _____    ______ ____
ROOT
ATOM      1  N   UNL     1       1.157   3.488   0.010  0.00  0.00    -0.280 N 
ATOM      2  C   UNL     1       2.311   4.178   0.104  0.00  0.00    +0.268 C 
ATOM      3  O   UNL     1       3.374   3.588   0.091  0.00  0.00    -0.268 OA
ATOM      4  H   UNL     1       0.312   3.962  -0.047  0.00  0.00    +0.155 HD
ENDROOT
BRANCH   2   5
ATOM      5  C   UNL     1       2.284   5.656   0.224  0.00  0.00    +0.149 A 
ATOM      6  C   UNL     1       3.474   6.382   0.317  0.00  0.00    +0.090 A 
ATOM      7  C   UNL     1       3.397   7.764   0.427  0.00  0.00    +0.136 A 
ATOM      8  N   UNL     1       2.211   8.346   0.442  0.00  0.00    -0.221 NA
ATOM      9  C   UNL     1       1.099   7.630   0.352  0.00  0.00    +0.219 A 
ATOM     10  N   UNL     1       1.126   6.312   0.239  0.00  0.00    -0.208 NA
ATOM     11  N   UNL     1      -0.124   8.279   0.371  0.00  0.00    -0.300 N 
ATOM     12  C   UNL     1      -1.440   7.629   0.287  0.00  0.00    +0.108 C 
ATOM     13  C   UNL     1      -2.505   8.746   0.320  0.00  0.00    +0.020 C 
ATOM     14  C   UNL     1      -1.714   9.995  -0.150  0.00  0.00    +0.020 C 
ATOM     15  C   UNL     1      -0.322   9.735   0.485  0.00  0.00    +0.108 C 
ATOM     16 CL   UNL     1       5.011   5.575   0.295  0.00  0.00    -0.080 Cl
ENDBRANCH   2   5
BRANCH   1  18
ATOM     17  C   UNL     1       0.154   1.373   0.603  0.00  0.00    +0.045 A 
ATOM     18  C   UNL     1       1.177   2.088  -0.006  0.00  0.00    +0.037 A 
ATOM     19  C   UNL     1       2.219   1.416  -0.631  0.00  0.00    +0.045 A 
ATOM     20  C   UNL     1       2.239   0.035  -0.646  0.00  0.00    +0.065 A 
ATOM     21  C   UNL     1       1.217  -0.682  -0.037  0.00  0.00    +0.062 A 
ATOM     22  C   UNL     1       0.174  -0.009   0.587  0.00  0.00    +0.065 A 
ATOM     23 CL   UNL     1      -1.105  -0.903   1.349  0.00  0.00    -0.082 Cl
ATOM     24 CL   UNL     1       3.542  -0.806  -1.428  0.00  0.00    -0.082 Cl
BRANCH  21  25
ATOM     25  N   UNL     1       1.236  -2.082  -0.053  0.00  0.00    -0.356 N 
ATOM     26  H   UNL     1       1.964  -2.552  -0.490  0.00  0.00    +0.142 HD
ATOM     27  H   UNL     1       0.522  -2.582   0.372  0.00  0.00    +0.142 HD
ENDBRANCH  21  25
ENDBRANCH   1  18
TORSDOF 3
