REMARK  Name = ZINC59375377
REMARK  7 active torsions:
REMARK  status: ('A' for Active; 'I' for Inactive)
REMARK    1  A    between atoms: C_4  and  N_7
REMARK    2  A    between atoms: N_12  and  C_17
REMARK    3  A    between atoms: C_17  and  C_18
REMARK    4  A    between atoms: C_18  and  C_20
REMARK    5  A    between atoms: C_18  and  O_30
REMARK    6  A    between atoms: C_20  and  O_21
REMARK    7  A    between atoms: O_21  and  C_22
REMARK                            x       y       z     vdW  Elec       q    Type
REMARK                         _______ _______ _______ _____ _____    ______ ____
ROOT
ATOM      1  N   UNL     1       3.623  -0.651  -0.037  0.00  0.00    -0.239 N 
ATOM      2  C   UNL     1       3.739  -1.996  -0.051  0.00  0.00    +0.124 A 
ATOM      3  C   UNL     1       5.082  -2.278  -0.064  0.00  0.00    +0.045 A 
ATOM      4  C   UNL     1       5.928  -3.469  -0.082  0.00  0.00    +0.144 A 
ATOM      5  N   UNL     1       7.221  -3.342  -0.091  0.00  0.00    -0.176 NA
ATOM      6  N   UNL     1       7.870  -2.109  -0.085  0.00  0.00    -0.225 N 
ATOM      7  C   UNL     1       7.206  -0.935  -0.069  0.00  0.00    +0.295 A 
ATOM      8  O   UNL     1       7.811   0.121  -0.063  0.00  0.00    -0.264 OA
ATOM      9  C   UNL     1       5.738  -0.957  -0.057  0.00  0.00    +0.160 A 
ATOM     10  N   UNL     1       4.771  -0.072  -0.046  0.00  0.00    -0.161 NA
ENDROOT
BRANCH   1  14
ATOM     11  C   UNL     1      -0.017   1.379   0.010  0.00  0.00    +0.000 A 
ATOM     12  C   UNL     1       1.170   2.089   0.002  0.00  0.00    +0.002 A 
ATOM     13  C   UNL     1       2.377   1.419  -0.013  0.00  0.00    +0.028 A 
ATOM     14  C   UNL     1       2.400   0.031  -0.021  0.00  0.00    +0.065 A 
ATOM     15  C   UNL     1       1.206  -0.680  -0.013  0.00  0.00    +0.028 A 
ATOM     16  C   UNL     1       0.002  -0.004   0.002  0.00  0.00    +0.002 A 
ENDBRANCH   1  14
BRANCH   6  17
ATOM     17  C   UNL     1       9.335  -2.087  -0.096  0.00  0.00    +0.182 C 
BRANCH  17  18
ATOM     18  C   UNL     1       9.856  -2.093   1.343  0.00  0.00    +0.173 C 
BRANCH  18  19
ATOM     19  O   UNL     1       9.367  -0.940   2.031  0.00  0.00    -0.387 OA
ATOM     20  H   UNL     1       9.637  -0.100   1.633  0.00  0.00    +0.210 HD
ENDBRANCH  18  19
BRANCH  18  21
ATOM     21  C   UNL     1      11.386  -2.069   1.331  0.00  0.00    +0.262 C 
BRANCH  21  22
ATOM     22  O   UNL     1      11.874  -2.192   2.669  0.00  0.00    -0.486 OA
BRANCH  22  23
ATOM     23  C   UNL     1      13.223  -2.189   2.836  0.00  0.00    +0.157 A 
ATOM     24  C   UNL     1      13.931  -3.382   2.800  0.00  0.00    +0.084 A 
ATOM     25  C   UNL     1      15.303  -3.375   2.970  0.00  0.00    +0.024 A 
ATOM     26  C   UNL     1      15.970  -2.182   3.176  0.00  0.00    +0.003 A 
ATOM     27  C   UNL     1      15.267  -0.992   3.213  0.00  0.00    +0.024 A 
ATOM     28  C   UNL     1      13.896  -0.992   3.037  0.00  0.00    +0.084 A 
ATOM     29 CL   UNL     1      13.015   0.504   3.076  0.00  0.00    -0.080 Cl
ATOM     30 CL   UNL     1      13.095  -4.881   2.542  0.00  0.00    -0.080 Cl
ENDBRANCH  22  23
ENDBRANCH  21  22
ENDBRANCH  18  21
ENDBRANCH  17  18
ENDBRANCH   6  17
TORSDOF 7
