REMARK  Name = ZINC39590270
REMARK  5 active torsions:
REMARK  status: ('A' for Active; 'I' for Inactive)
REMARK    1  A    between atoms: C_1  and  C_2
REMARK    2  A    between atoms: C_5  and  N_9
REMARK    3  A    between atoms: C_10  and  C_12
REMARK    4  A    between atoms: C_15  and  N_19
REMARK    5  A    between atoms: C_20  and  C_22
REMARK                            x       y       z     vdW  Elec       q    Type
REMARK                         _______ _______ _______ _____ _____    ______ ____
ROOT
ATOM      1  C   UNL     1       0.303  -6.206   1.176  0.00  0.00    +0.087 C 
ATOM      2  C   UNL     1       0.419  -6.907   2.323  0.00  0.00    +0.021 C 
ATOM      3  N   UNL     1       0.544  -8.250   2.321  0.00  0.00    -0.320 N 
ATOM      4  C   UNL     1       1.187  -8.863   3.504  0.00  0.00    +0.219 C 
ATOM      5  S   UNL     1       0.716  -7.645   4.807  0.00  0.00    -0.114 S 
ATOM      6  C   UNL     1       0.420  -6.218   3.679  0.00  0.00    +0.123 C 
ATOM      7  H   UNL     1       0.228  -8.789   1.578  0.00  0.00    +0.148 HD
ENDROOT
BRANCH   1   9
ATOM      8  N   UNL     1       0.063  -4.099   0.070  0.00  0.00    -0.282 N 
ATOM      9  C   UNL     1       0.179  -4.798   1.216  0.00  0.00    +0.243 C 
ATOM     10  O   UNL     1       0.177  -4.218   2.287  0.00  0.00    -0.270 OA
ATOM     11  H   UNL     1      -0.011  -4.565  -0.777  0.00  0.00    +0.155 HD
BRANCH   8  16
ATOM     12  C   UNL     1       0.003   1.573   0.199  0.00  0.00    +0.047 C 
ATOM     13  C   UNL     1       0.019   0.067   0.165  0.00  0.00    -0.015 A 
ATOM     14  C   UNL     1      -0.721  -0.610  -0.787  0.00  0.00    +0.008 A 
ATOM     15  C   UNL     1      -0.708  -1.991  -0.821  0.00  0.00    +0.024 A 
ATOM     16  C   UNL     1       0.049  -2.701   0.102  0.00  0.00    +0.036 A 
ATOM     17  C   UNL     1       0.792  -2.020   1.058  0.00  0.00    +0.062 A 
ATOM     18  C   UNL     1       0.780  -0.637   1.084  0.00  0.00    +0.128 A 
ATOM     19  F   UNL     1       1.507   0.028   2.009  0.00  0.00    -0.205 F 
ENDBRANCH   8  16
ENDBRANCH   1   9
BRANCH   4  20
ATOM     20  N   UNL     1       2.641  -8.933   3.342  0.00  0.00    -0.284 N 
ATOM     21  C   UNL     1       3.373  -9.718   4.157  0.00  0.00    +0.251 C 
ATOM     22  O   UNL     1       2.820 -10.438   4.966  0.00  0.00    -0.270 OA
ATOM     23  H   UNL     1       3.077  -8.413   2.649  0.00  0.00    +0.152 HD
BRANCH  21  24
ATOM     24  C   UNL     1       4.841  -9.704   4.068  0.00  0.00    +0.101 A 
ATOM     25  C   UNL     1       5.614 -10.415   4.983  0.00  0.00    +0.020 A 
ATOM     26  C   UNL     1       7.003 -10.379   4.867  0.00  0.00    +0.018 A 
ATOM     27  C   UNL     1       7.585  -9.659   3.874  0.00  0.00    +0.086 A 
ATOM     28  N   UNL     1       6.840  -8.965   2.980  0.00  0.00    -0.328 N 
ATOM     29  C   UNL     1       5.495  -8.972   3.044  0.00  0.00    +0.261 A 
ATOM     30  O   UNL     1       4.842  -8.345   2.227  0.00  0.00    -0.267 OA
ATOM     31  H   UNL     1       7.283  -8.459   2.281  0.00  0.00    +0.168 HD
ENDBRANCH  21  24
ENDBRANCH   4  20
TORSDOF 4
