REMARK  Name = ZINC11913570
REMARK  13 active torsions:
REMARK  status: ('A' for Active; 'I' for Inactive)
REMARK    1  A    between atoms: C_1  and  N_61
REMARK    2  A    between atoms: C_2  and  C_3
REMARK    3  A    between atoms: C_2  and  N_61
REMARK    4  A    between atoms: C_6  and  O_11
REMARK    5  A    between atoms: C_7  and  O_9
REMARK    6  A    between atoms: O_9  and  C_10
REMARK    7  A    between atoms: C_12  and  C_13
REMARK    8  A    between atoms: C_12  and  N_61
REMARK    9  A    between atoms: C_16  and  S_25
REMARK   10  A    between atoms: N_17  and  C_18
REMARK   11  A    between atoms: C_18  and  C_19
REMARK   12  A    between atoms: S_25  and  C_26
REMARK   13  A    between atoms: C_26  and  C_27
REMARK                            x       y       z     vdW  Elec       q    Type
REMARK                         _______ _______ _______ _____ _____    ______ ____
ROOT
ATOM      1  C   UNL     1       6.330   0.202   4.223  0.00  0.00    +0.117 A 
ATOM      2  N   UNL     1       7.152   0.669   3.327  0.00  0.00    -0.135 NA
ATOM      3  N   UNL     1       8.013   1.446   3.881  0.00  0.00    -0.123 NA
ATOM      4  C   UNL     1       7.790   1.510   5.173  0.00  0.00    +0.192 A 
ATOM      5  N   UNL     1       6.709   0.718   5.431  0.00  0.00    -0.305 N 
ENDROOT
BRANCH   1   6
ATOM      6  C   UNL     1       5.178  -0.737   3.975  0.00  0.00    -0.001 C 
BRANCH   6   8
ATOM      7  C   UNL     1       4.090   0.779   2.432  0.00  0.00    -0.095 C 
ATOM      8  N   UNL     1       3.960   0.059   3.716  0.00  0.00    +0.385 N 
ATOM      9  H   UNL     1       3.843   0.744   4.472  0.00  0.00    -0.081 HD
BRANCH   8  10
ATOM     10  C   UNL     1       2.776  -0.825   3.682  0.00  0.00    -0.043 C 
BRANCH  10  11
ATOM     11  C   UNL     1       1.534   0.028   3.639  0.00  0.00    -0.060 A 
ATOM     12  C   UNL     1       0.938   0.438   4.817  0.00  0.00    +0.005 A 
ATOM     13  C   UNL     1      -0.201   1.221   4.783  0.00  0.00    +0.049 A 
ATOM     14  C   UNL     1      -0.745   1.600   3.566  0.00  0.00    +0.158 A 
ATOM     15  C   UNL     1      -0.148   1.182   2.380  0.00  0.00    +0.161 A 
ATOM     16  C   UNL     1       0.993   0.398   2.422  0.00  0.00    +0.051 A 
BRANCH  15  17
ATOM     17  O   UNL     1      -0.682   1.547   1.184  0.00  0.00    -0.491 OA
ATOM     18  C   UNL     1      -0.013   1.086   0.008  0.00  0.00    +0.277 C 
ENDBRANCH  15  17
BRANCH  14  19
ATOM     19  O   UNL     1      -1.862   2.374   3.531  0.00  0.00    -0.503 OA
ATOM     20  H   UNL     1      -2.689   1.872   3.523  0.00  0.00    +0.292 HD
ENDBRANCH  14  19
ENDBRANCH  10  11
ENDBRANCH   8  10
ENDBRANCH   6   8
ENDBRANCH   1   6
BRANCH   5  21
ATOM     21  C   UNL     1       6.083   0.472   6.733  0.00  0.00    +0.157 C 
BRANCH  21  22
ATOM     22  C   UNL     1       6.741  -0.741   7.394  0.00  0.00    +0.138 C 
ATOM     23  C   UNL     1       6.131  -0.986   8.797  0.00  0.00    +0.035 C 
ATOM     24  C   UNL     1       6.411  -2.502   8.980  0.00  0.00    +0.031 C 
ATOM     25  C   UNL     1       6.268  -3.038   7.539  0.00  0.00    +0.160 C 
ATOM     26  O   UNL     1       6.452  -1.933   6.646  0.00  0.00    -0.375 OA
ENDBRANCH  21  22
ENDBRANCH   5  21
BRANCH   4  27
ATOM     27  S   UNL     1       8.712   2.442   6.350  0.00  0.00    -0.080 S 
BRANCH  27  28
ATOM     28  C   UNL     1       9.943   3.197   5.259  0.00  0.00    +0.132 C 
BRANCH  28  29
ATOM     29  C   UNL     1      10.869   4.065   6.071  0.00  0.00    +0.051 A 
ATOM     30  C   UNL     1      10.563   5.399   6.263  0.00  0.00    +0.024 A 
ATOM     31  C   UNL     1      11.419   6.188   7.016  0.00  0.00    +0.003 A 
ATOM     32  C   UNL     1      12.561   5.604   7.543  0.00  0.00    +0.020 A 
ATOM     33  C   UNL     1      12.805   4.265   7.305  0.00  0.00    +0.111 A 
ATOM     34  N   UNL     1      11.965   3.544   6.587  0.00  0.00    -0.259 NA
ENDBRANCH  28  29
ENDBRANCH  27  28
ENDBRANCH   4  27
TORSDOF 11
