REMARK  Name = ZINC40473402
REMARK  5 active torsions:
REMARK  status: ('A' for Active; 'I' for Inactive)
REMARK    1  A    between atoms: CA_10  and  C_21
REMARK    2  A    between atoms: C_13  and  CA_15
REMARK    3  A    between atoms: CA_15  and  N_16
REMARK    4  A    between atoms: C_17  and  CA_19
REMARK    5  A    between atoms: CA_19  and  N_20
REMARK                            x       y       z     vdW  Elec       q    Type
REMARK                         _______ _______ _______ _____ _____    ______ ____
ROOT
ATOM      1  C   UNL     1      -0.019   1.522   0.010  0.00  0.00    +0.000 C 
ATOM      2  C   UNL     1       1.426   2.033  -0.001  0.00  0.00    +0.002 C 
ATOM      3  C   UNL     1       2.112   1.570   1.285  0.00  0.00    +0.023 C 
ATOM      4  C   UNL     1       2.103   0.063   1.398  0.00  0.00    +0.080 C 
ATOM      5  C   UNL     1       0.694  -0.542   1.256  0.00  0.00    +0.012 C 
ATOM      6  C   UNL     1       0.002  -0.004   0.002  0.00  0.00    +0.005 C 
ATOM      7  C   UNL     1       1.052  -2.031   0.962  0.00  0.00    +0.039 C 
ATOM      8  CA  UNL     1       2.320  -1.908   0.087  0.00  0.00    +0.190 C 
ATOM      9  N   ACE A   3       2.908  -0.594   0.364  0.00  0.00    -0.283 N 
ATOM     10  C   UNL     1       4.007  -0.085  -0.227  0.00  0.00    +0.234 C 
ATOM     11  O   UNL     1       4.411   1.014   0.088  0.00  0.00    -0.274 OA
ENDROOT
BRANCH   8  12
ATOM     12  C   UNL     1       3.291  -3.007   0.433  0.00  0.00    +0.376 C 
ATOM     13  O   UNL     1       3.050  -4.158   0.113  0.00  0.00    -0.244 OA
ATOM     14  OXT UNL     1       4.319  -2.745   1.034  0.00  0.00    -0.244 OA
ENDBRANCH   8  12
BRANCH  10  15
ATOM     15  CA  UNL     1       4.733  -0.882  -1.280  0.00  0.00    +0.200 C 
BRANCH  15  16
ATOM     16  N   UNL     1       5.885  -0.117  -1.764  0.00  0.00    -0.308 N 
ATOM     17  C   UNL     1       6.687  -0.635  -2.715  0.00  0.00    +0.196 C 
ATOM     18  O   UNL     1       6.455  -1.735  -3.170  0.00  0.00    -0.278 OA
ATOM     19  H   UNL     1       6.070   0.763  -1.399  0.00  0.00    +0.149 HD
BRANCH  17  20
ATOM     20  CA  UNL     1       7.872   0.152  -3.212  0.00  0.00    +0.011 C 
BRANCH  20  21
ATOM     21  N   UNL     1       8.580  -0.624  -4.239  0.00  0.00    +0.384 N 
ATOM     22  H1  UNL     1       9.373  -0.097  -4.572  0.00  0.00    -0.089 HD
ATOM     23  H2  UNL     1       8.898  -1.496  -3.841  0.00  0.00    -0.089 HD
ATOM     24  H3  UNL     1       7.955  -0.814  -5.008  0.00  0.00    -0.089 HD
ENDBRANCH  20  21
ENDBRANCH  17  20
ENDBRANCH  15  16
ENDBRANCH  10  15
TORSDOF 5
