REMARK  Name = ZINC44784749
REMARK  5 active torsions:
REMARK  status: ('A' for Active; 'I' for Inactive)
REMARK    1  A    between atoms: C_1  and  C_2
REMARK    2  A    between atoms: C_5  and  N_9
REMARK    3  A    between atoms: C_10  and  C_12
REMARK    4  A    between atoms: C_12  and  C_17
REMARK    5  A    between atoms: N_18  and  O_19
REMARK                            x       y       z     vdW  Elec       q    Type
REMARK                         _______ _______ _______ _____ _____    ______ ____
ROOT
ATOM      1  N   UNL     1      -0.021  -4.093  -0.126  0.00  0.00    -0.282 N 
ATOM      2  C   UNL     1      -0.120  -4.812  -1.262  0.00  0.00    +0.231 C 
ATOM      3  O   UNL     1      -0.187  -4.247  -2.333  0.00  0.00    -0.274 OA
ATOM      4  H   UNL     1       0.063  -4.545   0.728  0.00  0.00    +0.155 HD
ENDROOT
BRANCH   1   9
ATOM      5  C   UNL     1      -0.103   1.578  -0.342  0.00  0.00    +0.044 C 
ATOM      6  C   UNL     1      -0.082   0.072  -0.283  0.00  0.00    -0.048 A 
ATOM      7  C   UNL     1       0.330  -0.655  -1.385  0.00  0.00    +0.005 A 
ATOM      8  C   UNL     1       0.351  -2.036  -1.336  0.00  0.00    +0.026 A 
ATOM      9  C   UNL     1      -0.041  -2.694  -0.178  0.00  0.00    +0.069 A 
ATOM     10  C   UNL     1      -0.454  -1.961   0.928  0.00  0.00    +0.145 A 
ATOM     11  C   UNL     1      -0.468  -0.579   0.874  0.00  0.00    +0.043 A 
ATOM     12  F   UNL     1      -0.837  -2.597   2.057  0.00  0.00    -0.204 F 
ENDBRANCH   1   9
BRANCH   2  13
ATOM     13  C   UNL     1      -0.147  -6.317  -1.201  0.00  0.00    +0.105 C 
ATOM     14  C   UNL     1       1.095  -6.838  -0.457  0.00  0.00    +0.024 C 
ATOM     15  C   UNL     1       1.868  -7.723  -1.457  0.00  0.00    +0.001 C 
ATOM     16  C   UNL     1       1.416  -7.211  -2.847  0.00  0.00    +0.001 C 
ATOM     17  C   UNL     1      -0.086  -6.905  -2.626  0.00  0.00    +0.024 C 
BRANCH  13  18
ATOM     18  C   UNL     1      -1.400  -6.783  -0.504  0.00  0.00    +0.147 C 
ATOM     19  N   UNL     1      -2.305  -7.426  -1.163  0.00  0.00    -0.076 NA
ATOM     20  N   UNL     1      -1.579  -6.523   0.837  0.00  0.00    -0.343 N 
ATOM     21  H   UNL     1      -0.924  -5.994   1.320  0.00  0.00    +0.144 HD
ATOM     22  H   UNL     1      -2.359  -6.868   1.298  0.00  0.00    +0.144 HD
BRANCH  19  23
ATOM     23  O   UNL     1      -3.482  -7.863  -0.508  0.00  0.00    -0.408 OA
ATOM     24  H   UNL     1      -4.100  -8.335  -1.083  0.00  0.00    +0.328 HD
ENDBRANCH  19  23
ENDBRANCH  13  18
ENDBRANCH   2  13
TORSDOF 4
