REMARK  Name = ZINC13592171
REMARK  5 active torsions:
REMARK  status: ('A' for Active; 'I' for Inactive)
REMARK    1  A    between atoms: C_1  and  C_2
REMARK    2  A    between atoms: C_2  and  C_4
REMARK    3  A    between atoms: C_2  and  O_34
REMARK    4  A    between atoms: N_12  and  C_15
REMARK    5  A    between atoms: C_15  and  C_16
REMARK                            x       y       z     vdW  Elec       q    Type
REMARK                         _______ _______ _______ _____ _____    ______ ____
ROOT
ATOM      1  C   UNL     1       1.468   1.966  -0.001  0.00  0.00    +0.096 C 
ATOM      2  C   UNL     1      -0.019   1.550   0.011  0.00  0.00    +0.109 C 
ATOM      3  C   UNL     1       0.002  -0.004   0.002  0.00  0.00    +0.122 C 
ATOM      4  C   UNL     1      -0.582  -0.368   1.348  0.00  0.00    +0.228 C 
ATOM      5  O   UNL     1      -0.746  -1.497   1.758  0.00  0.00    -0.275 OA
ATOM      6  N   UNL     1      -0.889   0.750   2.017  0.00  0.00    -0.239 N 
ATOM      7  C   UNL     1      -0.616   1.883   1.360  0.00  0.00    +0.227 C 
ATOM      8  O   UNL     1      -0.815   3.002   1.780  0.00  0.00    -0.275 OA
ATOM      9  C   UNL     1       1.490  -0.370  -0.051  0.00  0.00    +0.136 C 
ATOM     10  N   UNL     1       2.177   0.805  -0.618  0.00  0.00    -0.293 NA
ATOM     11  C   UNL     1       1.727  -1.601  -0.879  0.00  0.00    +0.004 A 
ATOM     12  C   UNL     1       1.467  -1.924  -2.192  0.00  0.00    +0.023 A 
ATOM     13  C   UNL     1       1.812  -3.173  -2.680  0.00  0.00    +0.018 A 
ATOM     14  C   UNL     1       2.419  -4.095  -1.844  0.00  0.00    +0.017 A 
ATOM     15  C   UNL     1       2.681  -3.774  -0.528  0.00  0.00    +0.025 A 
ATOM     16  C   UNL     1       2.336  -2.520  -0.030  0.00  0.00    +0.039 A 
ATOM     17  N   UNL     1       2.494  -1.969   1.244  0.00  0.00    -0.283 N 
ATOM     18  C   UNL     1       2.022  -0.710   1.315  0.00  0.00    +0.243 C 
ATOM     19  O   UNL     1       2.024   0.011   2.291  0.00  0.00    -0.273 OA
ATOM     20 BR   UNL     1       1.457  -3.619  -4.483  0.00  0.00    -0.050 Br
ATOM     21  H   UNL     1       2.079   0.855  -1.713  0.00  0.00    +0.124 HD
ATOM     22  H   UNL     1       2.961  -2.561   2.045  0.00  0.00    +0.155 HD
ENDROOT
BRANCH   1  24
ATOM     23  C   UNL     1       3.144   3.605  -0.864  0.00  0.00    +0.039 C 
ATOM     24  C   UNL     1       1.665   3.212  -0.867  0.00  0.00    +0.129 C 
BRANCH  24  25
ATOM     25  O   UNL     1       0.885   4.287  -0.339  0.00  0.00    -0.390 OA
ATOM     26  H   UNL     1      -0.207   4.187  -0.262  0.00  0.00    +0.210 HD
ENDBRANCH  24  25
ENDBRANCH   1  24
BRANCH   6  27
ATOM     27  C   UNL     1      -1.476   0.734   3.359  0.00  0.00    +0.148 C 
BRANCH  27  28
ATOM     28  C   UNL     1      -0.359   0.746   4.404  0.00  0.00    +0.136 C 
ATOM     29  C   UNL     1      -0.967   0.730   5.820  0.00  0.00    +0.035 C 
ATOM     30  C   UNL     1      -0.377  -0.545   6.471  0.00  0.00    +0.031 C 
ATOM     31  C   UNL     1       0.878  -0.804   5.600  0.00  0.00    +0.160 C 
ATOM     32  O   UNL     1       0.447  -0.436   4.272  0.00  0.00    -0.375 OA
ENDBRANCH  27  28
ENDBRANCH   6  27
TORSDOF 4
