REMARK  Name = ZINC59224972
REMARK  5 active torsions:
REMARK  status: ('A' for Active; 'I' for Inactive)
REMARK    1  A    between atoms: N_10  and  S_11
REMARK    2  A    between atoms: S_11  and  C_14
REMARK    3  A    between atoms: C_17  and  N_20
REMARK    4  A    between atoms: N_20  and  S_21
REMARK    5  A    between atoms: S_21  and  C_24
REMARK                            x       y       z     vdW  Elec       q    Type
REMARK                         _______ _______ _______ _____ _____    ______ ____
ROOT
ATOM      1  C   UNL     1       5.592   0.908   1.108  0.00  0.00    +0.109 A 
ATOM      2  C   UNL     1       5.170   2.173   1.471  0.00  0.00    +0.031 A 
ATOM      3  C   UNL     1       5.615   2.740   2.649  0.00  0.00    +0.028 A 
ATOM      4  C   UNL     1       6.489   2.038   3.469  0.00  0.00    +0.074 A 
ATOM      5  C   UNL     1       6.911   0.767   3.102  0.00  0.00    +0.028 A 
ATOM      6  C   UNL     1       6.457   0.203   1.925  0.00  0.00    +0.031 A 
ENDROOT
BRANCH   1   7
ATOM      7  S   UNL     1       5.021   0.188  -0.396  0.00  0.00    +0.075 S 
ATOM      8  O   UNL     1       5.986  -0.785  -0.772  0.00  0.00    -0.150 OA
ATOM      9  O   UNL     1       4.652   1.265  -1.247  0.00  0.00    -0.150 OA
BRANCH   7  19
ATOM     10  C   UNL     1      -0.019   1.373  -0.009  0.00  0.00    +0.000 A 
ATOM     11  C   UNL     1       1.166   2.086  -0.017  0.00  0.00    +0.002 A 
ATOM     12  C   UNL     1       2.373   1.415  -0.028  0.00  0.00    +0.025 A 
ATOM     13  C   UNL     1       2.396   0.024  -0.030  0.00  0.00    +0.054 A 
ATOM     14  C   UNL     1       1.207  -0.689  -0.019  0.00  0.00    -0.025 A 
ATOM     15  C   UNL     1       0.001  -0.008  -0.011  0.00  0.00    +0.005 A 
ATOM     16  C   UNL     1       1.193  -2.195  -0.011  0.00  0.00    +0.038 C 
ATOM     17  C   UNL     1       2.525  -2.745  -0.521  0.00  0.00    +0.025 C 
ATOM     18  C   UNL     1       3.668  -2.075   0.252  0.00  0.00    +0.132 C 
ATOM     19  N   UNL     1       3.629  -0.637  -0.046  0.00  0.00    -0.203 N 
ENDBRANCH   7  19
ENDBRANCH   1   7
BRANCH   4  20
ATOM     20  N   UNL     1       6.941   2.608   4.661  0.00  0.00    -0.098 NA
BRANCH  20  21
ATOM     21  S   UNL     1       7.983   1.769   5.638  0.00  0.00    +0.093 S 
ATOM     22  O   UNL     1       7.264   0.646   6.128  0.00  0.00    -0.148 OA
ATOM     23  O   UNL     1       9.200   1.639   4.916  0.00  0.00    -0.148 OA
BRANCH  21  24
ATOM     24  C   UNL     1       8.330   2.792   7.030  0.00  0.00    +0.130 A 
ATOM     25  C   UNL     1       7.929   2.398   8.293  0.00  0.00    +0.050 A 
ATOM     26  C   UNL     1       8.201   3.201   9.386  0.00  0.00    +0.043 A 
ATOM     27  C   UNL     1       8.874   4.398   9.215  0.00  0.00    +0.021 A 
ATOM     28  C   UNL     1       9.274   4.791   7.953  0.00  0.00    +0.023 A 
ATOM     29  C   UNL     1       9.007   3.985   6.860  0.00  0.00    +0.068 A 
ATOM     30 CL   UNL     1       9.516   4.476   5.274  0.00  0.00    -0.082 Cl
ATOM     31 CL   UNL     1       7.698   2.707  10.973  0.00  0.00    -0.083 Cl
ENDBRANCH  21  24
ENDBRANCH  20  21
ENDBRANCH   4  20
TORSDOF 5
