REMARK  Name = ZINC33634437
REMARK  9 active torsions:
REMARK  status: ('A' for Active; 'I' for Inactive)
REMARK    1  A    between atoms: C_1  and  C_2
REMARK    2  A    between atoms: C_5  and  N_9
REMARK    3  A    between atoms: C_14  and  C_29
REMARK    4  A    between atoms: C_17  and  C_22
REMARK    5  A    between atoms: C_17  and  C_26
REMARK    6  A    between atoms: C_22  and  C_23
REMARK    7  A    between atoms: C_32  and  C_35
REMARK    8  A    between atoms: C_35  and  O_37
REMARK    9  A    between atoms: O_37  and  C_38
REMARK                            x       y       z     vdW  Elec       q    Type
REMARK                         _______ _______ _______ _____ _____    ______ ____
ROOT
ATOM      1  N   UNL     1       0.982   3.985  -0.425  0.00  0.00    -0.210 N 
ATOM      2  C   UNL     1       1.958   3.373   0.309  0.00  0.00    +0.229 C 
ATOM      3  O   UNL     1       2.750   3.903   1.059  0.00  0.00    -0.275 OA
ATOM      4  C   UNL     1       1.846   1.906  -0.003  0.00  0.00    +0.077 C 
ATOM      5  C   UNL     1       1.956   0.882   1.124  0.00  0.00    -0.027 C 
ATOM      6  N   UNL     1       0.858  -0.099   0.881  0.00  0.00    +0.396 N 
ATOM      7  C   UNL     1      -0.007   0.442  -0.224  0.00  0.00    +0.058 C 
ATOM      8  C   UNL     1       0.275   1.886  -0.159  0.00  0.00    +0.087 C 
ATOM      9  C   UNL     1       0.038   3.104  -0.893  0.00  0.00    +0.229 C 
ATOM     10  O   UNL     1      -0.808   3.306  -1.736  0.00  0.00    -0.275 OA
ATOM     11  H   UNL     1       1.290  -1.067   0.588  0.00  0.00    -0.083 HD
ATOM     12  H   UNL     1       0.267  -0.224   1.801  0.00  0.00    -0.083 HD
ENDROOT
BRANCH   1  17
ATOM     13  C   UNL     1       0.843   9.568  -1.440  0.00  0.00    +0.045 C 
ATOM     14  C   UNL     1       0.881   8.086  -1.171  0.00  0.00    -0.032 A 
ATOM     15  C   UNL     1      -0.110   7.267  -1.680  0.00  0.00    +0.006 A 
ATOM     16  C   UNL     1      -0.076   5.907  -1.439  0.00  0.00    +0.024 A 
ATOM     17  C   UNL     1       0.948   5.364  -0.676  0.00  0.00    +0.045 A 
ATOM     18  C   UNL     1       1.942   6.188  -0.166  0.00  0.00    +0.044 A 
ATOM     19  C   UNL     1       1.907   7.547  -0.415  0.00  0.00    +0.046 A 
ATOM     20 CL   UNL     1       3.149   8.579   0.222  0.00  0.00    -0.083 Cl
ENDBRANCH   1  17
BRANCH   5  21
ATOM     21  C   UNL     1       1.768   1.555   2.460  0.00  0.00    -0.061 A 
ATOM     22  C   UNL     1       0.492   1.769   2.950  0.00  0.00    +0.003 A 
ATOM     23  C   UNL     1       0.313   2.379   4.174  0.00  0.00    +0.015 A 
ATOM     24  C   UNL     1       1.423   2.791   4.914  0.00  0.00    +0.059 A 
ATOM     25  C   UNL     1       2.708   2.577   4.411  0.00  0.00    +0.015 A 
ATOM     26  C   UNL     1       2.873   1.961   3.188  0.00  0.00    +0.003 A 
BRANCH  24  27
ATOM     27  C   UNL     1       1.238   3.450   6.223  0.00  0.00    +0.339 C 
ATOM     28  O   UNL     1       2.206   3.808   6.864  0.00  0.00    -0.245 OA
BRANCH  27  29
ATOM     29  O   UNL     1      -0.003   3.655   6.705  0.00  0.00    -0.464 OA
ATOM     30  C   UNL     1      -0.108   4.309   7.997  0.00  0.00    +0.280 C 
ENDBRANCH  27  29
ENDBRANCH  24  27
ENDBRANCH   5  21
BRANCH   7  31
ATOM     31  C   UNL     1      -1.463   0.166   0.050  0.00  0.00    +0.347 C 
ATOM     32  O   UNL     1      -2.290   1.021  -0.163  0.00  0.00    -0.248 OA
ATOM     33  O   UNL     1      -1.841  -1.029   0.528  0.00  0.00    -0.248 OA
ENDBRANCH   7  31
BRANCH   7  34
ATOM     34  C   UNL     1       0.409  -0.134  -1.579  0.00  0.00    +0.125 C 
BRANCH  34  35
ATOM     35  C   UNL     1       0.108  -1.610  -1.611  0.00  0.00    +0.355 C 
ATOM     36  O   UNL     1      -0.388  -2.146  -0.649  0.00  0.00    -0.246 OA
ATOM     37  O   UNL     1       0.392  -2.329  -2.709  0.00  0.00    -0.246 OA
ENDBRANCH  34  35
ENDBRANCH   7  34
TORSDOF 7
