REMARK  Name = ZINC12537155
REMARK  3 active torsions:
REMARK  status: ('A' for Active; 'I' for Inactive)
REMARK    1  A    between atoms: N_9  and  C_10
REMARK    2  A    between atoms: C_10  and  C_11
REMARK    3  A    between atoms: C_24  and  C_26
REMARK                            x       y       z     vdW  Elec       q    Type
REMARK                         _______ _______ _______ _____ _____    ______ ____
ROOT
ATOM      1  C   UNL     1       2.970  -2.029  -1.030  0.00  0.00    +0.238 C 
ATOM      2  O   UNL     1       3.327  -1.333  -1.957  0.00  0.00    -0.274 OA
ATOM      3  N   UNL     1       3.565  -3.219  -0.812  0.00  0.00    -0.256 N 
ATOM      4  C   UNL     1       3.162  -4.033   0.256  0.00  0.00    +0.058 A 
ATOM      5  C   UNL     1       1.947  -4.696   0.219  0.00  0.00    +0.025 A 
ATOM      6  C   UNL     1       1.577  -5.513   1.272  0.00  0.00    +0.002 A 
ATOM      7  C   UNL     1       2.416  -5.672   2.359  0.00  0.00    +0.002 A 
ATOM      8  C   UNL     1       3.628  -5.008   2.407  0.00  0.00    +0.025 A 
ATOM      9  C   UNL     1       4.000  -4.179   1.362  0.00  0.00    +0.055 A 
ATOM     10  N   UNL     1       5.196  -3.452   1.413  0.00  0.00    -0.284 N 
ATOM     11  C   UNL     1       6.041  -3.448   0.359  0.00  0.00    +0.219 C 
ATOM     12  O   UNL     1       7.032  -2.749   0.384  0.00  0.00    -0.275 OA
ATOM     13  C   UNL     1       5.761  -4.306  -0.846  0.00  0.00    +0.128 C 
ATOM     14  C   UNL     1       4.639  -3.686  -1.689  0.00  0.00    +0.194 C 
ATOM     15  H   UNL     1       5.419  -2.948   2.211  0.00  0.00    +0.155 HD
ENDROOT
BRANCH  14  16
ATOM     16  C   UNL     1       4.086  -4.735  -2.656  0.00  0.00    +0.409 C 
ATOM     17  F   UNL     1       3.067  -4.166  -3.428  0.00  0.00    -0.169 F 
ATOM     18  F   UNL     1       5.112  -5.183  -3.496  0.00  0.00    -0.169 F 
ATOM     19  F   UNL     1       3.573  -5.815  -1.929  0.00  0.00    -0.169 F 
ENDBRANCH  14  16
BRANCH   1  20
ATOM     20  C   UNL     1       1.861  -1.564  -0.122  0.00  0.00    +0.201 C 
BRANCH  20  29
ATOM     21  C   UNL     1      -1.300   1.713   1.910  0.00  0.00    +0.000 A 
ATOM     22  C   UNL     1      -0.159   1.173   2.477  0.00  0.00    +0.002 A 
ATOM     23  C   UNL     1       0.746   0.485   1.696  0.00  0.00    +0.023 A 
ATOM     24  C   UNL     1       0.518   0.330   0.329  0.00  0.00    +0.033 A 
ATOM     25  C   UNL     1      -0.633   0.872  -0.229  0.00  0.00    -0.025 A 
ATOM     26  C   UNL     1      -1.534   1.561   0.555  0.00  0.00    +0.005 A 
ATOM     27  C   UNL     1      -0.630   0.550  -1.710  0.00  0.00    +0.056 C 
ATOM     28  C   UNL     1       0.426  -0.575  -1.814  0.00  0.00    +0.110 C 
ATOM     29  N   UNL     1       1.292  -0.314  -0.644  0.00  0.00    -0.321 N 
ENDBRANCH  20  29
ENDBRANCH   1  20
TORSDOF 3
