REMARK  Name = ZINC04488911
REMARK  5 active torsions:
REMARK  status: ('A' for Active; 'I' for Inactive)
REMARK    1  A    between atoms: C_1  and  C_2
REMARK    2  A    between atoms: C_2  and  O_3
REMARK    3  A    between atoms: O_3  and  C_4
REMARK    4  A    between atoms: C_6  and  C_11
REMARK    5  A    between atoms: C_9  and  O_10
REMARK                            x       y       z     vdW  Elec       q    Type
REMARK                         _______ _______ _______ _____ _____    ______ ____
ROOT
ATOM      1  C   UNL     1      -0.670   6.476   0.044  0.00  0.00    +0.063 C 
ATOM      2  C   UNL     1      -0.662   7.368  -1.202  0.00  0.00    +0.109 C 
ATOM      3  C   UNL     1      -1.724   8.428  -1.046  0.00  0.00    +0.218 C 
ATOM      4  O   UNL     1      -2.319   8.837  -2.020  0.00  0.00    -0.275 OA
ATOM      5  N   UNL     1      -2.010   8.919   0.173  0.00  0.00    -0.289 N 
ATOM      6  C   UNL     1      -1.292   8.529   1.276  0.00  0.00    +0.018 C 
ATOM      7  C   UNL     1      -0.630   7.353   1.274  0.00  0.00    +0.020 C 
ATOM      8  C   UNL     1       0.102   6.923   2.392  0.00  0.00    +0.161 C 
ATOM      9  O   UNL     1       0.672   5.850   2.358  0.00  0.00    -0.292 OA
ATOM     10  C   UNL     1       0.191   7.772   3.632  0.00  0.00    +0.080 C 
ATOM     11  C   UNL     1       0.056   9.246   3.235  0.00  0.00    +0.014 C 
ATOM     12  C   UNL     1      -1.265   9.431   2.484  0.00  0.00    +0.051 C 
ATOM     13  H   UNL     1      -2.733   9.558   0.274  0.00  0.00    +0.155 HD
ENDROOT
BRANCH   1  16
ATOM     14  C   UNL     1       1.482   3.371   0.006  0.00  0.00    +0.162 A 
ATOM     15  C   UNL     1       0.373   4.201   0.021  0.00  0.00    +0.053 A 
ATOM     16  C   UNL     1       0.537   5.574   0.027  0.00  0.00    -0.036 A 
ATOM     17  C   UNL     1       1.806   6.121   0.018  0.00  0.00    +0.008 A 
ATOM     18  C   UNL     1       2.917   5.298   0.003  0.00  0.00    +0.049 A 
ATOM     19  C   UNL     1       2.760   3.922   0.003  0.00  0.00    +0.158 A 
BRANCH  19  20
ATOM     20  O   UNL     1       3.851   3.111  -0.007  0.00  0.00    -0.503 OA
ATOM     21  H   UNL     1       4.163   2.881  -0.893  0.00  0.00    +0.292 HD
ENDBRANCH  19  20
BRANCH  14  22
ATOM     22  O   UNL     1       1.322   2.020   0.000  0.00  0.00    -0.489 OA
BRANCH  22  24
ATOM     23  C   UNL     1       0.002  -0.004   0.002  0.00  0.00    +0.048 C 
ATOM     24  C   UNL     1      -0.019   1.526   0.010  0.00  0.00    +0.226 C 
ENDBRANCH  22  24
ENDBRANCH  14  22
ENDBRANCH   1  16
TORSDOF 4
