REMARK  Name = ZINC37860092
REMARK  7 active torsions:
REMARK  status: ('A' for Active; 'I' for Inactive)
REMARK    1  A    between atoms: C_3  and  C_8
REMARK    2  A    between atoms: C_8  and  C_10
REMARK    3  A    between atoms: C_8  and  O_22
REMARK    4  A    between atoms: C_10  and  N_11
REMARK    5  A    between atoms: N_11  and  C_12
REMARK    6  A    between atoms: C_12  and  C_13
REMARK    7  A    between atoms: C_13  and  C_14
REMARK                            x       y       z     vdW  Elec       q    Type
REMARK                         _______ _______ _______ _____ _____    ______ ____
ROOT
ATOM      1  N   UNL     1       5.449   3.074   1.408  0.00  0.00    +0.381 N 
ATOM      2  H   UNL     1       6.137   2.698   0.773  0.00  0.00    -0.086 HD
ATOM      3  H   UNL     1       5.200   4.008   1.121  0.00  0.00    -0.086 HD
ENDROOT
BRANCH   1   4
ATOM      4  C   UNL     1       4.252   2.222   1.393  0.00  0.00    -0.046 C 
BRANCH   4   5
ATOM      5  C   UNL     1       3.672   2.183  -0.022  0.00  0.00    +0.128 C 
BRANCH   5   8
ATOM      6  C   UNL     1      -0.017   1.378   0.010  0.00  0.00    +0.001 A 
ATOM      7  C   UNL     1       1.171   2.086   0.002  0.00  0.00    +0.006 A 
ATOM      8  C   UNL     1       2.378   1.411  -0.013  0.00  0.00    -0.020 A 
ATOM      9  C   UNL     1       2.397   0.029  -0.022  0.00  0.00    +0.021 A 
ATOM     10  C   UNL     1       1.210  -0.679  -0.014  0.00  0.00    +0.018 A 
ATOM     11  C   UNL     1       0.002  -0.004   0.002  0.00  0.00    +0.015 A 
ATOM     12 BR   UNL     1       1.236  -2.570  -0.025  0.00  0.00    -0.050 Br
ENDBRANCH   5   8
BRANCH   5  13
ATOM     13  O   UNL     1       4.601   1.546  -0.901  0.00  0.00    -0.389 OA
ATOM     14  H   UNL     1       4.814   0.635  -0.655  0.00  0.00    +0.210 HD
ENDBRANCH   5  13
ENDBRANCH   4   5
ENDBRANCH   1   4
BRANCH   1  15
ATOM     15  C   UNL     1       6.006   3.111   2.767  0.00  0.00    -0.078 C 
BRANCH  15  16
ATOM     16  C   UNL     1       7.253   3.998   2.783  0.00  0.00    +0.017 C 
BRANCH  16  17
ATOM     17  C   UNL     1       7.824   4.035   4.177  0.00  0.00    -0.031 A 
ATOM     18  C   UNL     1       7.480   5.061   5.037  0.00  0.00    +0.006 A 
ATOM     19  C   UNL     1       8.004   5.097   6.316  0.00  0.00    +0.020 A 
ATOM     20  C   UNL     1       8.873   4.105   6.735  0.00  0.00    +0.042 A 
ATOM     21  C   UNL     1       9.218   3.078   5.875  0.00  0.00    +0.040 A 
ATOM     22  C   UNL     1       8.689   3.041   4.597  0.00  0.00    +0.045 A 
ATOM     23 CL   UNL     1       9.116   1.749   3.518  0.00  0.00    -0.083 Cl
ATOM     24 CL   UNL     1       9.532   4.150   8.341  0.00  0.00    -0.083 Cl
ENDBRANCH  16  17
ENDBRANCH  15  16
ENDBRANCH   1  15
TORSDOF 7
