REMARK  Name = ZINC66187621
REMARK  7 active torsions:
REMARK  status: ('A' for Active; 'I' for Inactive)
REMARK    1  A    between atoms: C_1  and  C_2
REMARK    2  A    between atoms: C_7  and  C_9
REMARK    3  A    between atoms: C_7  and  N_28
REMARK    4  A    between atoms: C_9  and  N_10
REMARK    5  A    between atoms: C_17  and  C_20
REMARK    6  A    between atoms: N_28  and  C_29
REMARK    7  A    between atoms: N_28  and  C_30
REMARK                            x       y       z     vdW  Elec       q    Type
REMARK                         _______ _______ _______ _____ _____    ______ ____
ROOT
ATOM      1  N   UNL     1      -0.586  -3.836   1.084  0.00  0.00    -0.301 N 
ATOM      2  C   UNL     1      -1.736  -4.519   0.919  0.00  0.00    +0.302 C 
ATOM      3  O   UNL     1      -2.793  -3.922   0.850  0.00  0.00    -0.253 OA
ATOM      4  N   UNL     1      -1.715  -5.864   0.830  0.00  0.00    -0.285 N 
ATOM      5  C   UNL     1      -0.466  -6.608   1.039  0.00  0.00    +0.109 C 
ATOM      6  C   UNL     1      -0.702  -7.676   2.111  0.00  0.00    +0.020 C 
ATOM      7  C   UNL     1      -1.892  -8.548   1.703  0.00  0.00    +0.016 C 
ATOM      8  C   UNL     1      -3.149  -7.681   1.600  0.00  0.00    +0.093 C 
ATOM      9  C   UNL     1      -2.942  -6.613   0.528  0.00  0.00    +0.122 C 
ATOM     10  H   UNL     1       0.248  -4.315   1.211  0.00  0.00    +0.150 HD
ENDROOT
BRANCH   8  11
ATOM     11  C   UNL     1      -4.327  -8.546   1.231  0.00  0.00    +0.220 C 
ATOM     12  O   UNL     1      -4.152  -9.585   0.631  0.00  0.00    -0.275 OA
ATOM     13  N   UNL     1      -5.575  -8.164   1.568  0.00  0.00    -0.297 N 
ATOM     14  C   UNL     1      -5.824  -6.855   2.192  0.00  0.00    +0.136 C 
ATOM     15  C   UNL     1      -6.944  -6.154   1.415  0.00  0.00    +0.179 C 
ATOM     16  O   UNL     1      -8.067  -7.033   1.313  0.00  0.00    -0.377 OA
ATOM     17  C   UNL     1      -7.805  -8.237   0.588  0.00  0.00    +0.179 C 
ATOM     18  C   UNL     1      -6.729  -9.042   1.318  0.00  0.00    +0.136 C 
ENDBRANCH   8  11
BRANCH   1  19
ATOM     19  C   UNL     1      -0.596  -2.371   1.072  0.00  0.00    +0.094 C 
BRANCH  19  25
ATOM     20  C   UNL     1       0.164   1.719  -0.120  0.00  0.00    +0.007 C 
ATOM     21  C   UNL     1       0.175   0.189  -0.126  0.00  0.00    -0.015 C 
ATOM     22  C   UNL     1       0.968  -0.311  -1.335  0.00  0.00    +0.003 C 
ATOM     23  C   UNL     1       0.979  -1.841  -1.341  0.00  0.00    -0.001 C 
ATOM     24  C   UNL     1       1.634  -2.351  -0.056  0.00  0.00    -0.010 C 
ATOM     25  C   UNL     1       0.841  -1.851   1.153  0.00  0.00    -0.050 C 
ATOM     26  C   UNL     1       0.830  -0.321   1.159  0.00  0.00    -0.007 C 
BRANCH  25  27
ATOM     27  N   UNL     1       1.470  -2.341   2.388  0.00  0.00    +0.381 N 
ATOM     28  C   UNL     1       2.809  -1.751   2.522  0.00  0.00    -0.096 C 
ATOM     29  C   UNL     1       0.647  -1.957   3.542  0.00  0.00    -0.096 C 
ATOM     30  H   UNL     1       1.547  -3.346   2.349  0.00  0.00    -0.082 HD
ENDBRANCH  25  27
ENDBRANCH  19  25
ENDBRANCH   1  19
TORSDOF 4
