REMARK  Name = ZINC20694013
REMARK  5 active torsions:
REMARK  status: ('A' for Active; 'I' for Inactive)
REMARK    1  A    between atoms: C_1  and  O_2
REMARK    2  A    between atoms: O_2  and  C_3
REMARK    3  A    between atoms: C_7  and  C_10
REMARK    4  A    between atoms: C_8  and  O_9
REMARK    5  A    between atoms: C_20  and  N_27
REMARK                            x       y       z     vdW  Elec       q    Type
REMARK                         _______ _______ _______ _____ _____    ______ ____
ROOT
ATOM      1  C   UNL     1       2.582   4.192   0.191  0.00  0.00    +0.109 C 
ATOM      2  C   UNL     1       3.119   4.205  -1.226  0.00  0.00    +0.029 C 
ATOM      3  C   UNL     1       3.591   2.877  -1.829  0.00  0.00    +0.033 C 
ATOM      4  C   UNL     1       4.673   3.352  -2.801  0.00  0.00    -0.030 C 
ATOM      5  C   UNL     1       5.180   4.508  -2.386  0.00  0.00    -0.023 C 
ATOM      6  C   UNL     1       4.522   4.879  -1.109  0.00  0.00    +0.051 C 
ATOM      7  C   UNL     1       4.284   6.286  -0.716  0.00  0.00    +0.014 A 
ATOM      8  C   UNL     1       5.106   7.308  -1.144  0.00  0.00    +0.132 A 
ATOM      9  C   UNL     1       4.869   8.611  -0.750  0.00  0.00    +0.036 A 
ATOM     10  C   UNL     1       3.800   8.890   0.083  0.00  0.00    +0.042 A 
ATOM     11  C   UNL     1       2.970   7.876   0.510  0.00  0.00    +0.145 A 
ATOM     12  C   UNL     1       3.192   6.554   0.113  0.00  0.00    +0.069 A 
ATOM     13  N   UNL     1       2.288   5.588   0.554  0.00  0.00    -0.334 N 
ATOM     14  F   UNL     1       1.930   8.163   1.324  0.00  0.00    -0.204 F 
ATOM     15  H   UNL     1       1.392   5.825   1.145  0.00  0.00    +0.147 HD
ENDROOT
BRANCH   1  20
ATOM     16  C   UNL     1      -0.316   2.162   1.534  0.00  0.00    +0.162 A 
ATOM     17  C   UNL     1      -0.993   1.850   0.366  0.00  0.00    +0.049 A 
ATOM     18  C   UNL     1      -0.518   2.304  -0.851  0.00  0.00    +0.004 A 
ATOM     19  C   UNL     1       0.639   3.059  -0.906  0.00  0.00    +0.009 A 
ATOM     20  C   UNL     1       1.322   3.369   0.255  0.00  0.00    +0.018 A 
ATOM     21  C   UNL     1       0.848   2.922   1.478  0.00  0.00    +0.163 A 
BRANCH  16  23
ATOM     22  C   UNL     1      -1.986   0.946   2.713  0.00  0.00    +0.277 C 
ATOM     23  O   UNL     1      -0.786   1.721   2.732  0.00  0.00    -0.491 OA
ENDBRANCH  16  23
BRANCH  21  24
ATOM     24  O   UNL     1       1.519   3.225   2.621  0.00  0.00    -0.503 OA
ATOM     25  H   UNL     1       2.439   3.826   2.575  0.00  0.00    +0.292 HD
ENDBRANCH  21  24
ENDBRANCH   1  20
BRANCH   8  26
ATOM     26  N   UNL     1       6.250   7.006  -2.033  0.00  0.00    +0.057 N 
ATOM     27  O   UNL     1       7.041   6.131  -1.732  0.00  0.00    -0.126 OA
ATOM     28  O   UNL     1       6.400   7.633  -3.066  0.00  0.00    -0.126 OA
ENDBRANCH   8  26
TORSDOF 4
