REMARK  Name = ZINC39367126
REMARK  8 active torsions:
REMARK  status: ('A' for Active; 'I' for Inactive)
REMARK    1  A    between atoms: C_1  and  C_2
REMARK    2  A    between atoms: C_2  and  C_3
REMARK    3  A    between atoms: C_2  and  C_4
REMARK    4  A    between atoms: C_7  and  N_10
REMARK    5  A    between atoms: C_11  and  C_13
REMARK    6  A    between atoms: C_13  and  S_14
REMARK    7  A    between atoms: S_14  and  C_15
REMARK    8  A    between atoms: N_25  and  C_26
REMARK                            x       y       z     vdW  Elec       q    Type
REMARK                         _______ _______ _______ _____ _____    ______ ____
ROOT
ATOM      1  C   UNL     1      -9.315  -4.431  -2.480  0.00  0.00    +0.261 C 
ATOM      2  N   UNL     1     -10.074  -3.179  -2.518  0.00  0.00    -0.230 NA
ATOM      3  C   UNL     1     -10.887  -2.874  -1.559  0.00  0.00    +0.186 C 
ATOM      4  C   UNL     1     -11.062  -3.794  -0.403  0.00  0.00    +0.103 C 
ATOM      5  C   UNL     1     -11.968  -3.176   0.400  0.00  0.00    +0.151 C 
ATOM      6  N   UNL     1     -12.320  -2.013  -0.179  0.00  0.00    -0.155 NA
ATOM      7  N   UNL     1     -11.717  -1.818  -1.298  0.00  0.00    -0.129 NA
ATOM      8  C   UNL     1     -10.312  -5.052  -0.346  0.00  0.00    +0.258 C 
ATOM      9  O   UNL     1     -10.448  -5.809   0.596  0.00  0.00    -0.269 OA
ATOM     10  N   UNL     1      -9.466  -5.357  -1.355  0.00  0.00    -0.234 N 
ENDROOT
BRANCH  10  11
ATOM     11  C   UNL     1      -8.738  -6.551  -1.324  0.00  0.00    +0.059 A 
ATOM     12  C   UNL     1      -7.486  -6.587  -0.724  0.00  0.00    +0.025 A 
ATOM     13  C   UNL     1      -6.769  -7.768  -0.695  0.00  0.00    +0.003 A 
ATOM     14  C   UNL     1      -7.296  -8.914  -1.262  0.00  0.00    +0.021 A 
ATOM     15  C   UNL     1      -8.543  -8.882  -1.860  0.00  0.00    +0.061 A 
ATOM     16  C   UNL     1      -9.269  -7.705  -1.887  0.00  0.00    +0.081 A 
ATOM     17 CL   UNL     1     -10.837  -7.667  -2.631  0.00  0.00    -0.080 Cl
ATOM     18 CL   UNL     1      -9.201 -10.323  -2.571  0.00  0.00    -0.082 Cl
ENDBRANCH  10  11
BRANCH   1  19
ATOM     19  S   UNL     1      -7.557  -3.997  -2.587  0.00  0.00    -0.105 S 
BRANCH  19  20
ATOM     20  C   UNL     1      -7.236  -3.087  -1.052  0.00  0.00    +0.168 C 
BRANCH  20  22
ATOM     21  N   UNL     1      -5.320  -1.968   0.042  0.00  0.00    -0.285 N 
ATOM     22  C   UNL     1      -5.790  -2.663  -1.013  0.00  0.00    +0.227 C 
ATOM     23  O   UNL     1      -5.050  -2.946  -1.931  0.00  0.00    -0.275 OA
ATOM     24  H   UNL     1      -5.891  -1.807   0.810  0.00  0.00    +0.155 HD
BRANCH  21  28
ATOM     25  C   UNL     1      -1.418  -0.509   0.005  0.00  0.00    -0.045 A 
ATOM     26  C   UNL     1      -2.137  -0.586  -1.174  0.00  0.00    +0.006 A 
ATOM     27  C   UNL     1      -3.431  -1.069  -1.165  0.00  0.00    +0.023 A 
ATOM     28  C   UNL     1      -4.010  -1.478   0.030  0.00  0.00    +0.033 A 
ATOM     29  C   UNL     1      -3.284  -1.400   1.212  0.00  0.00    +0.023 A 
ATOM     30  C   UNL     1      -1.989  -0.920   1.195  0.00  0.00    +0.006 A 
BRANCH  25  32
ATOM     31  C   UNL     1       0.857  -0.856  -0.919  0.00  0.00    +0.012 C 
ATOM     32  C   UNL     1      -0.007   0.019  -0.009  0.00  0.00    +0.013 C 
ATOM     33  C   UNL     1      -0.005   1.457  -0.532  0.00  0.00    +0.012 C 
ENDBRANCH  25  32
ENDBRANCH  21  28
ENDBRANCH  20  22
ENDBRANCH  19  20
ENDBRANCH   1  19
TORSDOF 6
