REMARK  Name = ZINC14478429
REMARK  5 active torsions:
REMARK  status: ('A' for Active; 'I' for Inactive)
REMARK    1  A    between atoms: C_1  and  N_2
REMARK    2  A    between atoms: N_2  and  C_3
REMARK    3  A    between atoms: C_9  and  C_11
REMARK    4  A    between atoms: C_24  and  C_27
REMARK    5  A    between atoms: C_32  and  N_33
REMARK                            x       y       z     vdW  Elec       q    Type
REMARK                         _______ _______ _______ _____ _____    ______ ____
ROOT
ATOM      1  C   UNL     1      -4.766   4.553   2.468  0.00  0.00    +0.038 A 
ATOM      2  C   UNL     1      -4.706   3.855   3.678  0.00  0.00    +0.015 A 
ATOM      3  C   UNL     1      -4.157   2.594   3.708  0.00  0.00    +0.024 A 
ATOM      4  C   UNL     1      -3.665   2.016   2.540  0.00  0.00    +0.031 A 
ATOM      5  C   UNL     1      -3.726   2.686   1.336  0.00  0.00    -0.019 A 
ATOM      6  C   UNL     1      -4.271   3.969   1.302  0.00  0.00    +0.019 A 
ATOM      7  C   UNL     1      -3.203   2.116   0.055  0.00  0.00    +0.049 C 
ATOM      8  C   UNL     1      -4.327   1.666  -0.847  0.00  0.00    -0.023 C 
ATOM      9  C   UNL     1      -3.989   0.571  -1.482  0.00  0.00    -0.030 C 
ATOM     10  C   UNL     1      -2.586   0.143  -1.094  0.00  0.00    +0.033 C 
ATOM     11  C   UNL     1      -2.359   0.843   0.278  0.00  0.00    +0.029 C 
ATOM     12  C   UNL     1      -3.014  -0.033   1.350  0.00  0.00    +0.107 C 
ATOM     13  N   UNL     1      -3.116   0.736   2.595  0.00  0.00    -0.336 N 
ATOM     14  H   UNL     1      -2.810   0.363   3.436  0.00  0.00    +0.147 HD
ENDROOT
BRANCH  12  15
ATOM     15  C   UNL     1      -4.389  -0.446   0.894  0.00  0.00    +0.003 A 
ATOM     16  C   UNL     1      -5.474   0.376   1.139  0.00  0.00    +0.008 A 
ATOM     17  C   UNL     1      -6.736  -0.002   0.720  0.00  0.00    +0.000 A 
ATOM     18  C   UNL     1      -6.913  -1.203   0.057  0.00  0.00    +0.002 A 
ATOM     19  C   UNL     1      -5.829  -2.024  -0.187  0.00  0.00    +0.033 A 
ATOM     20  C   UNL     1      -4.566  -1.643   0.227  0.00  0.00    +0.131 A 
BRANCH  20  21
ATOM     21  N   UNL     1      -3.404  -2.519  -0.041  0.00  0.00    +0.057 N 
ATOM     22  O   UNL     1      -3.544  -3.532  -0.703  0.00  0.00    -0.126 OA
ATOM     23  O   UNL     1      -2.307  -2.229   0.402  0.00  0.00    -0.126 OA
ENDBRANCH  20  21
ENDBRANCH  12  15
BRANCH   1  26
ATOM     24  C   UNL     1      -6.935   5.225   4.149  0.00  0.00    +0.138 C 
ATOM     25  N   UNL     1      -6.446   6.189   3.160  0.00  0.00    -0.271 N 
ATOM     26  C   UNL     1      -5.353   5.905   2.425  0.00  0.00    +0.251 C 
ATOM     27  O   UNL     1      -4.851   6.763   1.725  0.00  0.00    -0.270 OA
BRANCH  25  28
ATOM     28  C   UNL     1      -7.114   7.405   2.979  0.00  0.00    +0.036 A 
ATOM     29  C   UNL     1      -6.754   8.248   1.935  0.00  0.00    +0.023 A 
ATOM     30  C   UNL     1      -7.420   9.444   1.756  0.00  0.00    +0.002 A 
ATOM     31  C   UNL     1      -8.435   9.809   2.621  0.00  0.00    +0.000 A 
ATOM     32  C   UNL     1      -8.791   8.975   3.665  0.00  0.00    +0.002 A 
ATOM     33  C   UNL     1      -8.134   7.774   3.846  0.00  0.00    +0.023 A 
ENDBRANCH  25  28
ENDBRANCH   1  26
TORSDOF 4
