REMARK  Name = ZINC61496539
REMARK  4 active torsions:
REMARK  status: ('A' for Active; 'I' for Inactive)
REMARK    1  A    between atoms: C_1  and  C_2
REMARK    2  A    between atoms: C_2  and  C_3
REMARK    3  A    between atoms: C_3  and  C_5
REMARK    4  A    between atoms: C_7  and  C_10
REMARK                            x       y       z     vdW  Elec       q    Type
REMARK                         _______ _______ _______ _____ _____    ______ ____
ROOT
ATOM      1  C   UNL     1       0.847  -1.998  -1.206  0.00  0.00    +0.241 A 
ATOM      2  N   UNL     1       1.938  -2.660  -0.942  0.00  0.00    -0.188 NA
ATOM      3  C   UNL     1       1.695  -3.982  -0.980  0.00  0.00    +0.241 A 
ATOM      4  N   UNL     1       0.431  -4.167  -1.272  0.00  0.00    -0.053 NA
ATOM      5  O   UNL     1      -0.141  -2.876  -1.418  0.00  0.00    -0.336 OA
ENDROOT
BRANCH   3   6
ATOM      6  C   UNL     1       2.692  -5.053  -0.732  0.00  0.00    +0.222 A 
ATOM      7  N   UNL     1       2.449  -6.370  -0.770  0.00  0.00    -0.212 NA
ATOM      8  H   UNL     1       5.455  -6.340  -0.069  0.00  0.00    +0.190 HD
ATOM      9  C   UNL     1       3.545  -7.030  -0.505  0.00  0.00    +0.216 A 
ATOM     10  N   UNL     1       4.532  -6.140  -0.288  0.00  0.00    -0.265 N 
ATOM     11  N   UNL     1       3.962  -4.867  -0.445  0.00  0.00    -0.149 NA
ENDBRANCH   3   6
BRANCH   1  12
ATOM     12  C   UNL     1       0.718  -0.497  -1.257  0.00  0.00    +0.145 C 
ATOM     13 BR   UNL     1      -0.319   0.017  -2.845  0.00  0.00    -0.078 Br
BRANCH  12  15
ATOM     14  C   UNL     1      -0.019   1.526   0.010  0.00  0.00    +0.005 C 
ATOM     15  C   UNL     1       0.002  -0.004   0.002  0.00  0.00    +0.021 C 
ENDBRANCH  12  15
ENDBRANCH   1  12
TORSDOF 3
