REMARK  Name = ZINC20586144
REMARK  1 active torsions:
REMARK  status: ('A' for Active; 'I' for Inactive)
REMARK    1  A    between atoms: N_9  and  C_10
REMARK                            x       y       z     vdW  Elec       q    Type
REMARK                         _______ _______ _______ _____ _____    ______ ____
ROOT
ATOM      1  C   UNL     1       1.162   3.170   0.007  0.00  0.00    +0.002 A 
ATOM      2  C   UNL     1       1.172   1.783   0.000  0.00  0.00    +0.002 A 
ATOM      3  C   UNL     1      -0.013   1.076   0.008  0.00  0.00    +0.028 A 
ATOM      4  C   UNL     1      -1.222   1.754   0.017  0.00  0.00    +0.075 A 
ATOM      5  C   UNL     1      -1.238   3.159   0.029  0.00  0.00    +0.091 A 
ATOM      6  C   UNL     1      -0.030   3.860   0.021  0.00  0.00    +0.030 A 
ATOM      7  N   UNL     1      -2.541   3.544   0.043  0.00  0.00    -0.214 NA
ATOM      8  C   UNL     1      -3.314   2.487   0.031  0.00  0.00    +0.199 A 
ATOM      9  N   UNL     1      -2.549   1.353   0.022  0.00  0.00    -0.280 N 
ATOM     10  N   UNL     1      -4.693   2.513   0.038  0.00  0.00    -0.329 N 
ATOM     11  H   UNL     1      -5.261   1.571   0.028  0.00  0.00    +0.145 HD
ATOM     12  H   UNL     1      -5.225   3.476   0.054  0.00  0.00    +0.145 HD
ENDROOT
BRANCH   9  13
ATOM     13  C   UNL     1      -3.019   0.033   0.017  0.00  0.00    +0.063 A 
ATOM     14  C   UNL     1      -3.247  -0.629   1.216  0.00  0.00    +0.027 A 
ATOM     15  C   UNL     1      -3.710  -1.930   1.208  0.00  0.00    +0.002 A 
ATOM     16  C   UNL     1      -3.948  -2.574   0.008  0.00  0.00    +0.001 A 
ATOM     17  C   UNL     1      -3.724  -1.917  -1.188  0.00  0.00    +0.016 A 
ATOM     18  C   UNL     1      -3.264  -0.614  -1.187  0.00  0.00    +0.037 A 
ATOM     19  I   UNL     1      -2.931   0.382  -3.000  0.00  0.00    -0.042 I 
ENDBRANCH   9  13
TORSDOF 1
