REMARK  Name = ZINC20912367
REMARK  7 active torsions:
REMARK  status: ('A' for Active; 'I' for Inactive)
REMARK    1  A    between atoms: C_10  and  C_11
REMARK    2  A    between atoms: N_12  and  N_13
REMARK    3  A    between atoms: C_17  and  S_20
REMARK    4  A    between atoms: N_18  and  N_19
REMARK    5  A    between atoms: S_20  and  C_21
REMARK    6  A    between atoms: C_21  and  C_22
REMARK    7  A    between atoms: N_24  and  C_25
REMARK                            x       y       z     vdW  Elec       q    Type
REMARK                         _______ _______ _______ _____ _____    ______ ____
ROOT
ATOM      1  N   UNL     1       1.428   0.081  -0.160  0.00  0.00    -0.204 N 
ATOM      2  C   UNL     1       0.165  -0.492  -0.161  0.00  0.00    +0.254 A 
ATOM      3  N   UNL     1      -0.975   0.155  -0.176  0.00  0.00    -0.109 NA
ATOM      4  N   UNL     1      -2.010  -0.791  -0.173  0.00  0.00    -0.119 NA
ATOM      5  C   UNL     1      -1.467  -1.985  -0.147  0.00  0.00    +0.210 A 
ATOM      6  N   UNL     1      -0.110  -1.832  -0.139  0.00  0.00    -0.211 N 
ATOM      7  H   UNL     1       2.322  -0.559  -0.141  0.00  0.00    +0.177 HD
ENDROOT
BRANCH   6   8
ATOM      8  N   UNL     1       0.811  -2.840  -0.114  0.00  0.00    -0.294 N 
ATOM      9  H   UNL     1       0.479  -3.889  -0.098  0.00  0.00    +0.163 HD
ATOM     10  H   UNL     1       1.886  -2.603  -0.110  0.00  0.00    +0.163 HD
ENDBRANCH   6   8
BRANCH   1  12
ATOM     11  C   UNL     1       2.748   2.013  -0.184  0.00  0.00    +0.139 C 
ATOM     12  N   UNL     1       1.564   1.475  -0.184  0.00  0.00    -0.187 NA
BRANCH  11  22
ATOM     13  C   UNL     1      -0.463   6.040   0.076  0.00  0.00    +0.001 A 
ATOM     14  C   UNL     1      -0.639   4.659   0.104  0.00  0.00    +0.001 A 
ATOM     15  C   UNL     1       0.427   3.815   0.013  0.00  0.00    +0.009 A 
ATOM     16  C   UNL     1       1.718   4.342  -0.109  0.00  0.00    -0.009 A 
ATOM     17  C   UNL     1       1.901   5.747  -0.137  0.00  0.00    -0.017 A 
ATOM     18  C   UNL     1       0.778   6.587  -0.042  0.00  0.00    +0.008 A 
ATOM     19  C   UNL     1       3.198   6.272  -0.260  0.00  0.00    +0.008 A 
ATOM     20  C   UNL     1       4.276   5.446  -0.353  0.00  0.00    +0.001 A 
ATOM     21  C   UNL     1       4.146   4.065  -0.322  0.00  0.00    +0.010 A 
ATOM     22  C   UNL     1       2.891   3.476  -0.209  0.00  0.00    +0.002 A 
ENDBRANCH  11  22
ENDBRANCH   1  12
BRANCH   5  23
ATOM     23  S   UNL     1      -2.337  -3.517  -0.127  0.00  0.00    -0.075 S 
BRANCH  23  24
ATOM     24  C   UNL     1      -4.042  -2.911  -0.151  0.00  0.00    +0.173 C 
BRANCH  24  25
ATOM     25  C   UNL     1      -4.991  -4.081  -0.138  0.00  0.00    +0.228 C 
ATOM     26  O   UNL     1      -4.558  -5.214  -0.114  0.00  0.00    -0.275 OA
ATOM     27  N   UNL     1      -6.322  -3.870  -0.152  0.00  0.00    -0.282 N 
ATOM     28  H   UNL     1      -6.717  -2.844  -0.098  0.00  0.00    +0.155 HD
BRANCH  27  29
ATOM     29  C   UNL     1      -7.203  -4.955  -0.236  0.00  0.00    +0.072 A 
ATOM     30  C   UNL     1      -6.887  -6.157   0.383  0.00  0.00    +0.064 A 
ATOM     31  C   UNL     1      -7.761  -7.226   0.302  0.00  0.00    +0.125 A 
ATOM     32  C   UNL     1      -8.946  -7.101  -0.404  0.00  0.00    +0.041 A 
ATOM     33  C   UNL     1      -9.261  -5.907  -1.026  0.00  0.00    +0.043 A 
ATOM     34  C   UNL     1      -8.393  -4.833  -0.944  0.00  0.00    +0.145 A 
ATOM     35  F   UNL     1      -8.702  -3.667  -1.552  0.00  0.00    -0.204 F 
ATOM     36  F   UNL     1      -7.457  -8.394   0.909  0.00  0.00    -0.205 F 
ENDBRANCH  27  29
ENDBRANCH  24  25
ENDBRANCH  23  24
ENDBRANCH   5  23
TORSDOF 7
