REMARK  Name = ZINC37110650
REMARK  6 active torsions:
REMARK  status: ('A' for Active; 'I' for Inactive)
REMARK    1  A    between atoms: C_1  and  C_2
REMARK    2  A    between atoms: C_2  and  C_3
REMARK    3  A    between atoms: C_3  and  C_5
REMARK    4  A    between atoms: C_3  and  N_6
REMARK    5  A    between atoms: N_6  and  C_7
REMARK    6  A    between atoms: C_8  and  C_10
REMARK                            x       y       z     vdW  Elec       q    Type
REMARK                         _______ _______ _______ _____ _____    ______ ____
ROOT
ATOM      1  C   UNL     1      -0.297   1.075  -4.596  0.00  0.00    +0.157 C 
ATOM      2  C   UNL     1      -1.234   2.239  -4.250  0.00  0.00    +0.036 C 
ATOM      3  C   UNL     1      -2.079   2.575  -5.479  0.00  0.00    +0.039 C 
ATOM      4  C   UNL     1      -1.199   2.768  -6.686  0.00  0.00    -0.026 A 
ATOM      5  C   UNL     1      -1.690   3.482  -7.766  0.00  0.00    +0.005 A 
ATOM      6  C   UNL     1      -0.909   3.673  -8.889  0.00  0.00    +0.000 A 
ATOM      7  C   UNL     1       0.371   3.151  -8.942  0.00  0.00    +0.002 A 
ATOM      8  C   UNL     1       0.869   2.439  -7.870  0.00  0.00    +0.023 A 
ATOM      9  C   UNL     1       0.085   2.247  -6.737  0.00  0.00    +0.031 A 
ATOM     10  N   UNL     1       0.611   1.528  -5.658  0.00  0.00    -0.333 N 
ATOM     11  H   UNL     1       1.561   1.334  -5.612  0.00  0.00    +0.147 HD
ENDROOT
BRANCH   1  14
ATOM     12  N   UNL     1      -0.055  -0.114  -2.441  0.00  0.00    -0.300 N 
ATOM     13  C   UNL     1      -1.430  -0.593  -2.605  0.00  0.00    +0.132 C 
ATOM     14  C   UNL     1       0.498   0.680  -3.379  0.00  0.00    +0.236 C 
ATOM     15  O   UNL     1       1.636   1.077  -3.243  0.00  0.00    -0.274 OA
BRANCH  12  16
ATOM     16  C   UNL     1       0.718  -0.497  -1.257  0.00  0.00    +0.072 C 
ATOM     17  C   UNL     1       0.849  -2.021  -1.205  0.00  0.00    +0.028 C 
BRANCH  16  19
ATOM     18  C   UNL     1      -0.019   1.526   0.010  0.00  0.00    +0.005 C 
ATOM     19  C   UNL     1       0.002  -0.004   0.002  0.00  0.00    +0.019 C 
ENDBRANCH  16  19
ENDBRANCH  12  16
ENDBRANCH   1  14
TORSDOF 3
