REMARK  Name = ZINC32602564
REMARK  7 active torsions:
REMARK  status: ('A' for Active; 'I' for Inactive)
REMARK    1  A    between atoms: C_1  and  C_2
REMARK    2  A    between atoms: C_4  and  N_22
REMARK    3  A    between atoms: C_7  and  S_8
REMARK    4  A    between atoms: S_8  and  N_11
REMARK    5  A    between atoms: N_11  and  C_12
REMARK    6  A    between atoms: C_16  and  C_19
REMARK    7  A    between atoms: C_17  and  C_18
REMARK                            x       y       z     vdW  Elec       q    Type
REMARK                         _______ _______ _______ _____ _____    ______ ____
ROOT
ATOM      1  N   UNL     1      -6.479   1.848   0.619  0.00  0.00    -0.216 N 
ATOM      2  H   UNL     1      -6.533   2.678  -0.101  0.00  0.00    +0.174 HD
ENDROOT
BRANCH   1   3
ATOM      3  C   UNL     1      -5.567   0.809   0.419  0.00  0.00    +0.052 A 
ATOM      4  C   UNL     1      -5.877  -0.479   0.841  0.00  0.00    +0.025 A 
ATOM      5  C   UNL     1      -4.977  -1.510   0.645  0.00  0.00    +0.003 A 
ATOM      6  C   UNL     1      -3.766  -1.268   0.029  0.00  0.00    +0.013 A 
ATOM      7  C   UNL     1      -3.446   0.021  -0.399  0.00  0.00    +0.041 A 
ATOM      8  C   UNL     1      -4.351   1.063  -0.196  0.00  0.00    -0.016 A 
ATOM      9  C   UNL     1      -4.010   2.459  -0.650  0.00  0.00    +0.046 C 
BRANCH   7  10
ATOM     10  C   UNL     1      -2.149   0.282  -1.059  0.00  0.00    +0.242 C 
ATOM     11  O   UNL     1      -1.914   1.381  -1.524  0.00  0.00    -0.270 OA
ATOM     12  N   UNL     1      -1.227  -0.697  -1.145  0.00  0.00    -0.325 N 
ATOM     13  H   UNL     1      -0.262  -0.502  -1.636  0.00  0.00    +0.145 HD
ATOM     14  H   UNL     1      -1.439  -1.691  -0.724  0.00  0.00    +0.145 HD
ENDBRANCH   7  10
ENDBRANCH   1   3
BRANCH   1  15
ATOM     15  S   UNL     1      -7.479   1.829   1.938  0.00  0.00    +0.073 S 
ATOM     16  O   UNL     1      -8.169   3.071   1.942  0.00  0.00    -0.150 OA
ATOM     17  O   UNL     1      -8.158   0.581   1.916  0.00  0.00    -0.150 OA
BRANCH  15  24
ATOM     18  C   UNL     1      -5.708   4.133   2.776  0.00  0.00    +0.046 C 
ATOM     19  C   UNL     1      -5.676   2.922   3.671  0.00  0.00    -0.022 A 
ATOM     20  C   UNL     1      -4.874   2.916   4.798  0.00  0.00    +0.038 A 
ATOM     21  C   UNL     1      -4.840   1.802   5.616  0.00  0.00    +0.127 A 
ATOM     22  C   UNL     1      -5.613   0.697   5.312  0.00  0.00    +0.034 A 
ATOM     23  C   UNL     1      -6.419   0.705   4.189  0.00  0.00    +0.031 A 
ATOM     24  C   UNL     1      -6.452   1.819   3.370  0.00  0.00    +0.112 A 
BRANCH  21  25
ATOM     25  N   UNL     1      -3.977   1.794   6.818  0.00  0.00    +0.056 N 
ATOM     26  O   UNL     1      -3.947   0.812   7.539  0.00  0.00    -0.126 OA
ATOM     27  O   UNL     1      -3.296   2.767   7.087  0.00  0.00    -0.126 OA
ENDBRANCH  21  25
ENDBRANCH  15  24
ENDBRANCH   1  15
TORSDOF 5
