REMARK  Name = ZINC39667625
REMARK  6 active torsions:
REMARK  status: ('A' for Active; 'I' for Inactive)
REMARK    1  A    between atoms: C_1  and  C_2
REMARK    2  A    between atoms: C_6  and  C_9
REMARK    3  A    between atoms: C_7  and  C_8
REMARK    4  A    between atoms: C_9  and  N_10
REMARK    5  A    between atoms: C_11  and  C_13
REMARK    6  A    between atoms: C_24  and  C_26
REMARK                            x       y       z     vdW  Elec       q    Type
REMARK                         _______ _______ _______ _____ _____    ______ ____
ROOT
ATOM      1  C   UNL     1      -3.004  -3.576   4.781  0.00  0.00    +0.100 C 
ATOM      2  C   UNL     1      -3.935  -4.260   3.755  0.00  0.00    +0.121 C 
ATOM      3  N   UNL     1      -3.964  -5.683   4.167  0.00  0.00    -0.297 N 
ATOM      4  C   UNL     1      -4.000  -5.638   5.648  0.00  0.00    +0.115 C 
ATOM      5  C   UNL     1      -3.053  -4.481   6.023  0.00  0.00    -0.004 C 
ATOM      6  C   UNL     1      -3.607  -3.710   7.217  0.00  0.00    -0.010 C 
ATOM      7  C   UNL     1      -3.591  -4.613   8.454  0.00  0.00    -0.082 C 
ATOM      8  N   UNL     1      -2.216  -5.051   8.724  0.00  0.00    +0.379 N 
ATOM      9  C   UNL     1      -1.724  -5.871   7.610  0.00  0.00    -0.082 C 
ATOM     10  C   UNL     1      -1.661  -5.021   6.338  0.00  0.00    -0.010 C 
ATOM     11  C   UNL     1      -3.960  -6.773   3.373  0.00  0.00    +0.260 C 
ATOM     12  O   UNL     1      -3.830  -6.649   2.174  0.00  0.00    -0.271 OA
ATOM     13  H   UNL     1      -1.622  -4.243   8.834  0.00  0.00    -0.086 HD
ATOM     14  H   UNL     1      -2.199  -5.596   9.574  0.00  0.00    -0.086 HD
ENDROOT
BRANCH  11  15
ATOM     15  C   UNL     1      -4.116  -8.145   3.977  0.00  0.00    +0.296 C 
ATOM     16  C   UNL     1      -5.541  -8.312   4.521  0.00  0.00    +0.283 C 
ATOM     17  O   UNL     1      -5.659  -9.627   5.074  0.00  0.00    -0.484 OA
ATOM     18  C   UNL     1      -5.172 -10.652   4.321  0.00  0.00    +0.162 A 
ATOM     19  C   UNL     1      -5.565 -11.952   4.606  0.00  0.00    +0.049 A 
ATOM     20  C   UNL     1      -5.077 -13.003   3.853  0.00  0.00    +0.004 A 
ATOM     21  C   UNL     1      -4.197 -12.762   2.814  0.00  0.00    +0.004 A 
ATOM     22  C   UNL     1      -3.803 -11.470   2.524  0.00  0.00    +0.049 A 
ATOM     23  C   UNL     1      -4.290 -10.410   3.275  0.00  0.00    +0.163 A 
ATOM     24  O   UNL     1      -3.899  -9.142   2.972  0.00  0.00    -0.473 OA
ENDBRANCH  11  15
BRANCH   1  26
ATOM     25  N   UNL     1      -0.791  -2.485   4.615  0.00  0.00    -0.311 N 
ATOM     26  C   UNL     1      -1.599  -3.497   4.243  0.00  0.00    +0.218 C 
ATOM     27  O   UNL     1      -1.194  -4.345   3.477  0.00  0.00    -0.275 OA
ATOM     28  H   UNL     1      -1.114  -1.806   5.229  0.00  0.00    +0.149 HD
BRANCH  25  29
ATOM     29  C   UNL     1       0.576  -2.408   4.093  0.00  0.00    +0.139 C 
BRANCH  29  35
ATOM     30  C   UNL     1       2.992  -0.150   7.849  0.00  0.00    +0.044 C 
ATOM     31  C   UNL     1       2.418  -0.111   6.456  0.00  0.00    -0.047 A 
ATOM     32  C   UNL     1       2.522   1.040   5.697  0.00  0.00    +0.003 A 
ATOM     33  C   UNL     1       1.995   1.075   4.420  0.00  0.00    +0.001 A 
ATOM     34  C   UNL     1       1.366  -0.041   3.900  0.00  0.00    +0.005 A 
ATOM     35  C   UNL     1       1.263  -1.192   4.658  0.00  0.00    -0.027 A 
ATOM     36  C   UNL     1       1.793  -1.229   5.935  0.00  0.00    -0.043 A 
ATOM     37  C   UNL     1       1.686  -2.485   6.760  0.00  0.00    +0.044 C 
ENDBRANCH  29  35
ENDBRANCH  25  29
ENDBRANCH   1  26
TORSDOF 4
