REMARK  Name = ZINC12596931
REMARK  6 active torsions:
REMARK  status: ('A' for Active; 'I' for Inactive)
REMARK    1  A    between atoms: C_1  and  N_2
REMARK    2  A    between atoms: N_2  and  C_3
REMARK    3  A    between atoms: N_2  and  C_4
REMARK    4  A    between atoms: C_7  and  N_10
REMARK    5  A    between atoms: C_11  and  C_13
REMARK    6  A    between atoms: C_14  and  C_15
REMARK                            x       y       z     vdW  Elec       q    Type
REMARK                         _______ _______ _______ _____ _____    ______ ____
ROOT
ATOM      1  N   UNL     1       0.008   1.392   0.009  0.00  0.00    -0.282 N 
ATOM      2  C   UNL     1      -1.052   1.982  -0.580  0.00  0.00    +0.241 C 
ATOM      3  O   UNL     1      -0.957   3.119  -1.004  0.00  0.00    -0.270 OA
ATOM      4  H   UNL     1      -0.087   0.514   0.410  0.00  0.00    +0.155 HD
ENDROOT
BRANCH   1   8
ATOM      5  C   UNL     1       3.688   3.350   0.121  0.00  0.00    +0.029 A 
ATOM      6  C   UNL     1       2.510   4.079   0.225  0.00  0.00    +0.025 A 
ATOM      7  C   UNL     1       1.292   3.431   0.188  0.00  0.00    +0.025 A 
ATOM      8  C   UNL     1       1.244   2.050   0.047  0.00  0.00    +0.034 A 
ATOM      9  C   UNL     1       2.422   1.321  -0.051  0.00  0.00    +0.025 A 
ATOM     10  C   UNL     1       3.640   1.969  -0.020  0.00  0.00    +0.025 A 
BRANCH   5  12
ATOM     11  C   UNL     1       4.978   5.448   0.417  0.00  0.00    +0.129 C 
ATOM     12  N   UNL     1       4.922   4.007   0.158  0.00  0.00    -0.336 N 
ATOM     13  C   UNL     1       6.160   3.254  -0.061  0.00  0.00    +0.129 C 
ENDBRANCH   5  12
ENDBRANCH   1   8
BRANCH   2  14
ATOM     14  C   UNL     1      -2.315   1.255  -0.709  0.00  0.00    +0.068 C 
ATOM     15  C   UNL     1      -3.375   1.846  -1.298  0.00  0.00    +0.013 C 
BRANCH  15  16
ATOM     16  C   UNL     1      -4.646   1.115  -1.427  0.00  0.00    -0.023 A 
ATOM     17  C   UNL     1      -5.747   1.725  -2.038  0.00  0.00    +0.011 A 
ATOM     18  C   UNL     1      -6.934   1.035  -2.156  0.00  0.00    +0.040 A 
ATOM     19  C   UNL     1      -7.040  -0.260  -1.672  0.00  0.00    +0.142 A 
ATOM     20  C   UNL     1      -5.951  -0.871  -1.065  0.00  0.00    +0.077 A 
ATOM     21  C   UNL     1      -4.755  -0.194  -0.946  0.00  0.00    +0.030 A 
ATOM     22 CL   UNL     1      -6.093  -2.492  -0.462  0.00  0.00    -0.081 Cl
ATOM     23  F   UNL     1      -8.207  -0.930  -1.792  0.00  0.00    -0.204 F 
ENDBRANCH  15  16
ENDBRANCH   2  14
TORSDOF 4
