REMARK  Name = ZINC46347533
REMARK  8 active torsions:
REMARK  status: ('A' for Active; 'I' for Inactive)
REMARK    1  A    between atoms: C_1  and  N_2
REMARK    2  A    between atoms: N_2  and  C_3
REMARK    3  A    between atoms: N_2  and  C_4
REMARK    4  A    between atoms: C_4  and  C_6
REMARK    5  A    between atoms: C_4  and  C_23
REMARK    6  A    between atoms: C_6  and  N_7
REMARK    7  A    between atoms: N_10  and  N_11
REMARK    8  A    between atoms: N_11  and  C_12
REMARK                            x       y       z     vdW  Elec       q    Type
REMARK                         _______ _______ _______ _____ _____    ______ ____
ROOT
ATOM      1  N   UNL     1       0.453  -2.621   0.116  0.00  0.00    -0.299 N 
ATOM      2  C   UNL     1       0.905  -3.873  -0.094  0.00  0.00    +0.316 C 
ATOM      3  O   UNL     1       0.419  -4.555  -0.976  0.00  0.00    -0.251 OA
ATOM      4  N   UNL     1       1.896  -4.369   0.673  0.00  0.00    -0.220 N 
ATOM      5  H   UNL     1       0.840  -2.077   0.819  0.00  0.00    +0.150 HD
ATOM      6  H   UNL     1       2.222  -5.270   0.521  0.00  0.00    +0.174 HD
ENDROOT
BRANCH   4   7
ATOM      7  N   UNL     1       2.456  -3.583   1.688  0.00  0.00    -0.258 N 
ATOM      8  H   UNL     1       2.086  -2.708   1.885  0.00  0.00    +0.170 HD
BRANCH   7   9
ATOM      9  C   UNL     1       3.552  -4.060   2.421  0.00  0.00    +0.121 A 
ATOM     10  C   UNL     1       4.522  -4.834   1.796  0.00  0.00    +0.186 A 
ATOM     11  C   UNL     1       5.604  -5.305   2.522  0.00  0.00    +0.198 A 
ATOM     12  C   UNL     1       5.719  -5.005   3.870  0.00  0.00    +0.199 A 
ATOM     13  C   UNL     1       4.752  -4.233   4.495  0.00  0.00    +0.198 A 
ATOM     14  C   UNL     1       3.671  -3.756   3.771  0.00  0.00    +0.186 A 
ATOM     15  F   UNL     1       2.732  -2.999   4.379  0.00  0.00    -0.200 F 
ATOM     16  F   UNL     1       4.866  -3.941   5.809  0.00  0.00    -0.199 F 
ATOM     17  F   UNL     1       6.775  -5.465   4.576  0.00  0.00    -0.199 F 
ATOM     18  F   UNL     1       6.547  -6.058   1.915  0.00  0.00    -0.199 F 
ATOM     19  F   UNL     1       4.410  -5.128   0.482  0.00  0.00    -0.200 F 
ENDBRANCH   7   9
ENDBRANCH   4   7
BRANCH   1  20
ATOM     20  C   UNL     1      -0.625  -2.082  -0.718  0.00  0.00    +0.095 C 
BRANCH  20  21
ATOM     21  C   UNL     1      -1.037  -0.706  -0.191  0.00  0.00    -0.020 C 
BRANCH  21  22
ATOM     22  C   UNL     1      -1.665  -0.857   1.171  0.00  0.00    -0.052 A 
ATOM     23  C   UNL     1      -0.933  -0.593   2.313  0.00  0.00    +0.009 A 
ATOM     24  C   UNL     1      -1.528  -0.738   3.523  0.00  0.00    +0.045 A 
ATOM     25  S   UNL     1      -3.171  -1.264   3.066  0.00  0.00    -0.105 S 
ATOM     26  C   UNL     1      -2.957  -1.249   1.294  0.00  0.00    +0.047 A 
ENDBRANCH  21  22
BRANCH  21  28
ATOM     27  C   UNL     1      -2.392   1.228  -0.615  0.00  0.00    -0.096 C 
ATOM     28  N   UNL     1      -2.007  -0.100  -1.113  0.00  0.00    +0.382 N 
ATOM     29  C   UNL     1      -1.401   0.033  -2.444  0.00  0.00    -0.096 C 
ATOM     30  H   UNL     1      -2.826  -0.686  -1.173  0.00  0.00    -0.082 HD
ENDBRANCH  21  28
ENDBRANCH  20  21
ENDBRANCH   1  20
TORSDOF 6
