REMARK  Name = ZINC12867795
REMARK  10 active torsions:
REMARK  status: ('A' for Active; 'I' for Inactive)
REMARK    1  A    between atoms: C_1  and  C_2
REMARK    2  A    between atoms: C_2  and  C_3
REMARK    3  A    between atoms: C_3  and  C_4
REMARK    4  A    between atoms: C_7  and  C_10
REMARK    5  A    between atoms: C_10  and  C_35
REMARK    6  A    between atoms: N_13  and  C_17
REMARK    7  A    between atoms: C_17  and  C_18
REMARK    8  A    between atoms: N_20  and  C_21
REMARK    9  A    between atoms: N_20  and  C_27
REMARK   10  A    between atoms: C_21  and  C_22
REMARK                            x       y       z     vdW  Elec       q    Type
REMARK                         _______ _______ _______ _____ _____    ______ ____
ROOT
ATOM      1  C   UNL     1      -1.162   7.333  -1.442  0.00  0.00    +0.135 C 
ATOM      2  C   UNL     1      -0.292   6.092  -1.435  0.00  0.00    +0.251 C 
ATOM      3  O   UNL     1       0.743   5.919  -2.042  0.00  0.00    -0.272 OA
ATOM      4  N   UNL     1      -0.909   5.220  -0.613  0.00  0.00    -0.215 N 
ATOM      5  C   UNL     1      -2.033   5.735  -0.101  0.00  0.00    +0.310 C 
ATOM      6  O   UNL     1      -2.759   5.139   0.670  0.00  0.00    -0.252 OA
ATOM      7  N   UNL     1      -2.268   6.987  -0.534  0.00  0.00    -0.281 N 
ATOM      8  C   UNL     1      -1.690   7.621  -2.849  0.00  0.00    +0.047 C 
ATOM      9  H   UNL     1      -3.020   7.551  -0.295  0.00  0.00    +0.152 HD
ENDROOT
BRANCH   1  13
ATOM     10  C   UNL     1       1.017  10.689   0.054  0.00  0.00    -0.047 A 
ATOM     11  C   UNL     1      -0.337  10.576   0.306  0.00  0.00    +0.004 A 
ATOM     12  C   UNL     1      -1.042   9.491  -0.179  0.00  0.00    +0.006 A 
ATOM     13  C   UNL     1      -0.393   8.517  -0.914  0.00  0.00    -0.015 A 
ATOM     14  C   UNL     1       0.963   8.627  -1.161  0.00  0.00    +0.006 A 
ATOM     15  C   UNL     1       1.667   9.716  -0.682  0.00  0.00    +0.004 A 
BRANCH  10  16
ATOM     16  C   UNL     1       1.786  11.873   0.582  0.00  0.00    +0.035 C 
BRANCH  16  18
ATOM     17  C   UNL     1       3.112  12.750   2.509  0.00  0.00    +0.004 C 
ATOM     18  C   UNL     1       2.332  11.548   1.974  0.00  0.00    +0.001 C 
ENDBRANCH  16  18
ENDBRANCH  10  16
ENDBRANCH   1  13
BRANCH   4  19
ATOM     19  C   UNL     1      -0.409   3.876  -0.314  0.00  0.00    +0.213 C 
BRANCH  19  20
ATOM     20  C   UNL     1      -0.976   2.896  -1.308  0.00  0.00    +0.234 C 
ATOM     21  O   UNL     1      -1.653   3.293  -2.233  0.00  0.00    -0.274 OA
ATOM     22  N   UNL     1      -0.731   1.577  -1.171  0.00  0.00    -0.288 N 
BRANCH  22  23
ATOM     23  C   UNL     1      -0.007   1.086   0.004  0.00  0.00    +0.099 C 
ATOM     24  C   UNL     1       1.187   0.227  -0.444  0.00  0.00    +0.047 C 
ATOM     25  C   UNL     1       1.761  -0.551   0.765  0.00  0.00    +0.168 C 
ATOM     26  S   UNL     1       0.292  -0.744   1.855  0.00  0.00    -0.029 S 
ATOM     27  O   UNL     1       0.529  -0.056   3.075  0.00  0.00    -0.174 OA
ATOM     28  O   UNL     1      -0.085  -2.114   1.885  0.00  0.00    -0.174 OA
ATOM     29  C   UNL     1      -0.947   0.197   0.867  0.00  0.00    +0.188 C 
ENDBRANCH  22  23
BRANCH  22  30
ATOM     30  C   UNL     1      -1.189   0.636  -2.195  0.00  0.00    +0.182 C 
BRANCH  30  31
ATOM     31  C   UNL     1      -2.576   0.157  -1.853  0.00  0.00    +0.122 A 
ATOM     32  C   UNL     1      -3.727   0.734  -2.245  0.00  0.00    +0.046 A 
ATOM     33  C   UNL     1      -4.778  -0.039  -1.702  0.00  0.00    +0.041 A 
ATOM     34  C   UNL     1      -4.208  -1.043  -1.011  0.00  0.00    +0.195 A 
ATOM     35  O   UNL     1      -2.874  -0.922  -1.111  0.00  0.00    -0.466 OA
ENDBRANCH  30  31
ENDBRANCH  22  30
ENDBRANCH  19  20
ENDBRANCH   4  19
TORSDOF 8
