REMARK  Name = ZINC54420692
REMARK  8 active torsions:
REMARK  status: ('A' for Active; 'I' for Inactive)
REMARK    1  A    between atoms: C_1  and  C_2
REMARK    2  A    between atoms: C_2  and  C_4
REMARK    3  A    between atoms: C_2  and  N_14
REMARK    4  A    between atoms: C_7  and  C_10
REMARK    5  A    between atoms: C_10  and  C_11
REMARK    6  A    between atoms: C_11  and  C_12
REMARK    7  A    between atoms: C_11  and  C_13
REMARK    8  A    between atoms: C_15  and  C_17
REMARK                            x       y       z     vdW  Elec       q    Type
REMARK                         _______ _______ _______ _____ _____    ______ ____
ROOT
ATOM      1  C   UNL     1      -0.019   1.526   0.010  0.00  0.00    +0.033 C 
ATOM      2  C   UNL     1       0.002  -0.004   0.002  0.00  0.00    +0.100 C 
ENDROOT
BRANCH   2   3
ATOM      3  C   UNL     1       0.731  -0.503   1.223  0.00  0.00    -0.027 A 
ATOM      4  C   UNL     1       2.113  -0.514   1.247  0.00  0.00    +0.006 A 
ATOM      5  C   UNL     1       2.782  -0.972   2.366  0.00  0.00    +0.004 A 
ATOM      6  C   UNL     1       2.068  -1.419   3.463  0.00  0.00    -0.047 A 
ATOM      7  C   UNL     1       0.686  -1.407   3.439  0.00  0.00    +0.004 A 
ATOM      8  C   UNL     1       0.017  -0.945   2.321  0.00  0.00    +0.006 A 
BRANCH   6   9
ATOM      9  C   UNL     1       2.797  -1.919   4.683  0.00  0.00    +0.038 C 
BRANCH   9  10
ATOM     10  C   UNL     1       3.046  -0.753   5.642  0.00  0.00    -0.013 C 
ATOM     11  C   UNL     1       1.707  -0.223   6.159  0.00  0.00    +0.007 C 
ATOM     12  C   UNL     1       3.893  -1.234   6.822  0.00  0.00    +0.007 C 
ENDBRANCH   9  10
ENDBRANCH   6   9
ENDBRANCH   2   3
BRANCH   2  13
ATOM     13  N   UNL     1       0.688  -0.476  -1.203  0.00  0.00    -0.303 N 
ATOM     14  C   UNL     1       0.006  -0.608  -2.358  0.00  0.00    +0.270 C 
ATOM     15  O   UNL     1      -1.177  -0.335  -2.400  0.00  0.00    -0.268 OA
ATOM     16  H   UNL     1       1.632  -0.695  -1.170  0.00  0.00    +0.150 HD
BRANCH  14  17
ATOM     17  C   UNL     1       0.700  -1.086  -3.577  0.00  0.00    +0.210 A 
ATOM     18  C   UNL     1       0.088  -1.270  -4.898  0.00  0.00    +0.192 A 
ATOM     19  N   UNL     1       1.006  -1.702  -5.719  0.00  0.00    -0.033 NA
ATOM     20  O   UNL     1       2.219  -1.816  -4.995  0.00  0.00    -0.240 OA
ATOM     21  N   UNL     1       1.963  -1.410  -3.662  0.00  0.00    -0.042 NA
ATOM     22  N   UNL     1      -1.241  -1.027  -5.220  0.00  0.00    -0.339 N 
ATOM     23  H   UNL     1      -1.853  -0.705  -4.540  0.00  0.00    +0.144 HD
ATOM     24  H   UNL     1      -1.556  -1.179  -6.124  0.00  0.00    +0.144 HD
ENDBRANCH  14  17
ENDBRANCH   2  13
TORSDOF 5
