REMARK  Name = ZINC43303274
REMARK  6 active torsions:
REMARK  status: ('A' for Active; 'I' for Inactive)
REMARK    1  A    between atoms: C_1  and  N_2
REMARK    2  A    between atoms: N_2  and  C_3
REMARK    3  A    between atoms: N_2  and  C_4
REMARK    4  A    between atoms: C_7  and  C_10
REMARK    5  A    between atoms: C_10  and  C_12
REMARK    6  A    between atoms: C_10  and  O_20
REMARK                            x       y       z     vdW  Elec       q    Type
REMARK                         _______ _______ _______ _____ _____    ______ ____
ROOT
ATOM      1  C   UNL     1      -0.006  -2.813  -4.924  0.00  0.00    +0.149 C 
ENDROOT
BRANCH   1   2
ATOM      2  C   UNL     1      -1.430  -2.862  -5.482  0.00  0.00    +0.045 C 
ATOM      3  C   UNL     1      -2.347  -3.611  -4.500  0.00  0.00    +0.030 C 
ATOM      4  C   UNL     1      -3.694  -3.945  -5.185  0.00  0.00    +0.166 C 
ATOM      5  S   UNL     1      -3.223  -4.072  -6.959  0.00  0.00    -0.031 S 
ATOM      6  O   UNL     1      -3.336  -5.428  -7.370  0.00  0.00    -0.174 OA
ATOM      7  O   UNL     1      -3.902  -3.061  -7.691  0.00  0.00    -0.174 OA
ATOM      8  C   UNL     1      -1.439  -3.630  -6.834  0.00  0.00    +0.172 C 
ENDBRANCH   1   2
BRANCH   1  12
ATOM      9  C   UNL     1       0.000  -0.696  -1.211  0.00  0.00    +0.029 A 
ATOM     10  C   UNL     1       0.013  -2.085  -1.221  0.00  0.00    +0.023 A 
ATOM     11  C   UNL     1       0.010  -2.766  -2.422  0.00  0.00    +0.008 A 
ATOM     12  C   UNL     1      -0.005  -2.066  -3.615  0.00  0.00    -0.019 A 
ATOM     13  C   UNL     1      -0.018  -0.684  -3.609  0.00  0.00    +0.008 A 
ATOM     14  C   UNL     1      -0.021   0.004  -2.411  0.00  0.00    +0.023 A 
BRANCH   9  16
ATOM     15  C   UNL     1      -0.018   1.461   0.010  0.00  0.00    +0.129 C 
ATOM     16  N   UNL     1       0.002  -0.004   0.002  0.00  0.00    -0.336 N 
ATOM     17  C   UNL     1       0.024  -0.743   1.267  0.00  0.00    +0.129 C 
ENDBRANCH   9  16
ENDBRANCH   1  12
BRANCH   1  18
ATOM     18  O   UNL     1       0.847  -2.144  -5.855  0.00  0.00    -0.387 OA
ATOM     19  H   UNL     1       0.584  -1.233  -6.046  0.00  0.00    +0.210 HD
ENDBRANCH   1  18
TORSDOF 4
