REMARK  Name = ZINC08285437
REMARK  7 active torsions:
REMARK  status: ('A' for Active; 'I' for Inactive)
REMARK    1  A    between atoms: C_1  and  C_2
REMARK    2  A    between atoms: C_2  and  C_4
REMARK    3  A    between atoms: C_2  and  N_11
REMARK    4  A    between atoms: C_12  and  C_14
REMARK    5  A    between atoms: C_14  and  N_15
REMARK    6  A    between atoms: C_18  and  C_22
REMARK    7  A    between atoms: C_18  and  C_23
REMARK                            x       y       z     vdW  Elec       q    Type
REMARK                         _______ _______ _______ _____ _____    ______ ____
ROOT
ATOM      1  N   UNL     1       3.873   0.958   1.781  0.00  0.00    -0.215 N 
ATOM      2  C   UNL     1       3.515   1.784   0.779  0.00  0.00    +0.251 C 
ATOM      3  O   UNL     1       3.943   2.897   0.558  0.00  0.00    -0.272 OA
ATOM      4  C   UNL     1       2.466   1.033  -0.017  0.00  0.00    +0.135 C 
ATOM      5  N   UNL     1       2.343  -0.250   0.697  0.00  0.00    -0.281 N 
ATOM      6  C   UNL     1       3.204  -0.200   1.730  0.00  0.00    +0.310 C 
ATOM      7  O   UNL     1       3.355  -1.104   2.528  0.00  0.00    -0.252 OA
ATOM      8  C   UNL     1       2.935   0.806  -1.455  0.00  0.00    +0.047 C 
ATOM      9  H   UNL     1       1.757  -0.988   0.467  0.00  0.00    +0.152 HD
ENDROOT
BRANCH   4  10
ATOM     10  C   UNL     1       1.155   1.776   0.001  0.00  0.00    -0.015 A 
ATOM     11  C   UNL     1       1.155   3.170   0.008  0.00  0.00    +0.007 A 
ATOM     12  C   UNL     1      -0.011   3.871   0.023  0.00  0.00    +0.009 A 
ATOM     13  C   UNL     1      -1.236   3.183   0.031  0.00  0.00    -0.018 A 
ATOM     14  C   UNL     1      -2.460   3.873   0.047  0.00  0.00    +0.008 A 
ATOM     15  C   UNL     1      -3.627   3.172   0.055  0.00  0.00    +0.001 A 
ATOM     16  C   UNL     1      -3.628   1.779   0.048  0.00  0.00    +0.001 A 
ATOM     17  C   UNL     1      -2.462   1.077   0.032  0.00  0.00    +0.008 A 
ATOM     18  C   UNL     1      -1.237   1.766   0.018  0.00  0.00    -0.018 A 
ATOM     19  C   UNL     1      -0.013   1.076   0.008  0.00  0.00    +0.014 A 
ENDBRANCH   4  10
BRANCH   1  20
ATOM     20  C   UNL     1       4.874   1.285   2.800  0.00  0.00    +0.213 C 
BRANCH  20  22
ATOM     21  N   UNL     1       7.316   1.044   3.107  0.00  0.00    -0.307 N 
ATOM     22  C   UNL     1       6.235   0.844   2.328  0.00  0.00    +0.231 C 
ATOM     23  O   UNL     1       6.358   0.308   1.246  0.00  0.00    -0.274 OA
ATOM     24  H   UNL     1       7.218   1.472   3.971  0.00  0.00    +0.149 HD
BRANCH  21  26
ATOM     25  C   UNL     1       8.846  -0.861   2.994  0.00  0.00    +0.033 C 
ATOM     26  C   UNL     1       8.640   0.615   2.647  0.00  0.00    +0.100 C 
BRANCH  26  27
ATOM     27  C   UNL     1       9.700   1.443   3.327  0.00  0.00    -0.027 A 
ATOM     28  C   UNL     1       9.565   1.778   4.661  0.00  0.00    +0.008 A 
ATOM     29  C   UNL     1      10.539   2.534   5.286  0.00  0.00    +0.038 A 
ATOM     30  C   UNL     1      11.645   2.963   4.572  0.00  0.00    +0.123 A 
ATOM     31  C   UNL     1      11.777   2.631   3.235  0.00  0.00    +0.038 A 
ATOM     32  C   UNL     1      10.804   1.872   2.613  0.00  0.00    +0.008 A 
ATOM     33  F   UNL     1      12.596   3.706   5.181  0.00  0.00    -0.205 F 
ENDBRANCH  26  27
ENDBRANCH  21  26
ENDBRANCH  20  22
ENDBRANCH   1  20
TORSDOF 5
