REMARK  Name = ZINC07726183
REMARK  8 active torsions:
REMARK  status: ('A' for Active; 'I' for Inactive)
REMARK    1  A    between atoms: C_3  and  C_6
REMARK    2  A    between atoms: C_6  and  N_49
REMARK    3  A    between atoms: C_7  and  C_8
REMARK    4  A    between atoms: C_7  and  N_49
REMARK    5  A    between atoms: C_13  and  C_14
REMARK    6  A    between atoms: C_13  and  N_49
REMARK    7  A    between atoms: N_16  and  C_17
REMARK    8  A    between atoms: C_18  and  C_25
REMARK                            x       y       z     vdW  Elec       q    Type
REMARK                         _______ _______ _______ _____ _____    ______ ____
ROOT
ATOM      1  C   UNL     1       1.148   2.071   0.014  0.00  0.00    +0.201 C 
ATOM      2  O   UNL     1       2.205   1.478   0.063  0.00  0.00    -0.278 OA
ATOM      3  N   UNL     1      -0.010   1.383  -0.018  0.00  0.00    -0.281 N 
ATOM      4  H   UNL     1      -0.855   1.857  -0.061  0.00  0.00    +0.155 HD
ENDROOT
BRANCH   3   5
ATOM      5  C   UNL     1       0.006  -0.003   0.003  0.00  0.00    +0.084 A 
ATOM      6  C   UNL     1      -1.067  -0.877  -0.018  0.00  0.00    +0.068 A 
ATOM      7  C   UNL     1      -0.775  -2.310   0.009  0.00  0.00    -0.023 A 
ATOM      8  C   UNL     1       0.531  -2.625   0.063  0.00  0.00    -0.004 A 
ATOM      9  S   UNL     1       1.374  -1.062   0.071  0.00  0.00    -0.077 S 
ATOM     10  C   UNL     1       0.751  -4.114   0.091  0.00  0.00    +0.043 C 
ATOM     11  C   UNL     1      -0.589  -4.714  -0.389  0.00  0.00    +0.010 C 
ATOM     12  C   UNL     1      -1.587  -3.606   0.001  0.00  0.00    +0.037 C 
BRANCH   6  13
ATOM     13  C   UNL     1      -2.447  -0.384  -0.070  0.00  0.00    +0.244 C 
ATOM     14  O   UNL     1      -2.986  -0.195  -1.145  0.00  0.00    -0.270 OA
ATOM     15  N   UNL     1      -3.119  -0.139   1.073  0.00  0.00    -0.325 N 
ATOM     16  H   UNL     1      -2.689  -0.288   1.929  0.00  0.00    +0.145 HD
ATOM     17  H   UNL     1      -4.032   0.188   1.038  0.00  0.00    +0.145 HD
ENDBRANCH   6  13
ENDBRANCH   3   5
BRANCH   1  18
ATOM     18  C   UNL     1       1.130   3.578  -0.009  0.00  0.00    +0.020 C 
BRANCH  18  19
ATOM     19  N   UNL     1       2.516   4.070   0.142  0.00  0.00    +0.395 N 
ATOM     20  H   UNL     1       2.994   3.506   0.854  0.00  0.00    -0.080 HD
BRANCH  19  21
ATOM     21  C   UNL     1       3.240   3.942  -1.139  0.00  0.00    -0.002 C 
BRANCH  21  24
ATOM     22  C   UNL     1       6.858   4.050  -0.445  0.00  0.00    +0.041 A 
ATOM     23  C   UNL     1       5.639   3.343  -0.558  0.00  0.00    +0.042 A 
ATOM     24  C   UNL     1       4.699   4.240  -0.905  0.00  0.00    +0.089 A 
ATOM     25  O   UNL     1       5.282   5.445  -1.013  0.00  0.00    -0.470 OA
ATOM     26  C   UNL     1       6.590   5.337  -0.729  0.00  0.00    +0.195 A 
ENDBRANCH  21  24
ENDBRANCH  19  21
BRANCH  19  27
ATOM     27  C   UNL     1       2.505   5.483   0.578  0.00  0.00    -0.002 C 
BRANCH  27  28
ATOM     28  C   UNL     1       2.194   5.532   2.051  0.00  0.00    +0.089 A 
ATOM     29  C   UNL     1       3.084   5.380   3.049  0.00  0.00    +0.042 A 
ATOM     30  C   UNL     1       2.365   5.498   4.260  0.00  0.00    +0.041 A 
ATOM     31  C   UNL     1       1.079   5.714   3.931  0.00  0.00    +0.195 A 
ATOM     32  O   UNL     1       0.982   5.739   2.592  0.00  0.00    -0.470 OA
ENDBRANCH  27  28
ENDBRANCH  19  27
ENDBRANCH  18  19
ENDBRANCH   1  18
TORSDOF 8
