REMARK  Name = ZINC57656173
REMARK  5 active torsions:
REMARK  status: ('A' for Active; 'I' for Inactive)
REMARK    1  A    between atoms: C_3  and  N_9
REMARK    2  A    between atoms: N_9  and  C_10
REMARK    3  A    between atoms: C_10  and  C_12
REMARK    4  A    between atoms: C_10  and  C_16
REMARK    5  A    between atoms: C_12  and  N_13
REMARK                            x       y       z     vdW  Elec       q    Type
REMARK                         _______ _______ _______ _____ _____    ______ ____
ROOT
ATOM      1  C   UNL     1       3.476   3.587  -0.115  0.00  0.00    +0.127 C 
ENDROOT
BRANCH   1   2
ATOM      2  C   UNL     1       4.813   4.029   0.422  0.00  0.00    -0.023 A 
ATOM      3  C   UNL     1       5.960   3.294   0.164  0.00  0.00    +0.025 A 
ATOM      4  C   UNL     1       7.168   3.730   0.672  0.00  0.00    +0.111 A 
ATOM      5  N   UNL     1       7.238   4.831   1.396  0.00  0.00    -0.263 NA
ATOM      6  C   UNL     1       6.168   5.555   1.661  0.00  0.00    +0.111 A 
ATOM      7  C   UNL     1       4.926   5.184   1.181  0.00  0.00    +0.025 A 
ENDBRANCH   1   2
BRANCH   1   8
ATOM      8  N   UNL     1       3.361   2.131   0.001  0.00  0.00    -0.334 N 
ATOM      9  H   UNL     1       4.160   1.585   0.066  0.00  0.00    +0.147 HD
BRANCH   8  12
ATOM     10  C   UNL     1      -0.291   1.716   0.050  0.00  0.00    +0.003 A 
ATOM     11  C   UNL     1       0.954   2.313   0.034  0.00  0.00    +0.024 A 
ATOM     12  C   UNL     1       2.100   1.529   0.017  0.00  0.00    +0.048 A 
ATOM     13  C   UNL     1       1.989   0.143   0.015  0.00  0.00    +0.080 A 
ATOM     14  C   UNL     1       0.740  -0.449   0.031  0.00  0.00    +0.061 A 
ATOM     15  C   UNL     1      -0.399   0.338   0.048  0.00  0.00    +0.021 A 
ATOM     16 CL   UNL     1       0.599  -2.179   0.028  0.00  0.00    -0.082 Cl
ATOM     17 CL   UNL     1       3.418  -0.843  -0.007  0.00  0.00    -0.080 Cl
ENDBRANCH   8  12
ENDBRANCH   1   8
BRANCH   1  18
ATOM     18  C   UNL     1       3.357   3.993  -1.585  0.00  0.00    +0.238 C 
BRANCH  18  19
ATOM     19  N   UNL     1       3.338   5.454  -1.688  0.00  0.00    +0.025 N 
ATOM     20  O   UNL     1       4.031   6.011  -2.507  0.00  0.00    -0.132 OA
ATOM     21  O   UNL     1       2.630   6.103  -0.954  0.00  0.00    -0.132 OA
ENDBRANCH  18  19
ENDBRANCH   1  18
TORSDOF 5
