REMARK  Name = ZINC57913566
REMARK  8 active torsions:
REMARK  status: ('A' for Active; 'I' for Inactive)
REMARK    1  A    between atoms: C_1  and  C_2
REMARK    2  A    between atoms: C_7  and  N_12
REMARK    3  A    between atoms: C_9  and  C_11
REMARK    4  A    between atoms: N_12  and  C_13
REMARK    5  A    between atoms: C_13  and  N_15
REMARK    6  A    between atoms: N_15  and  N_16
REMARK    7  A    between atoms: C_17  and  C_19
REMARK    8  A    between atoms: C_21  and  C_24
REMARK                            x       y       z     vdW  Elec       q    Type
REMARK                         _______ _______ _______ _____ _____    ______ ____
ROOT
ATOM      1  N   UNL     1       2.811  -3.388   4.628  0.00  0.00    -0.230 N 
ATOM      2  C   UNL     1       3.463  -3.835   5.720  0.00  0.00    +0.282 C 
ATOM      3  O   UNL     1       3.225  -4.942   6.159  0.00  0.00    -0.267 OA
ATOM      4  H   UNL     1       3.002  -2.504   4.277  0.00  0.00    +0.173 HD
ENDROOT
BRANCH   2   5
ATOM      5  C   UNL     1       4.472  -2.974   6.385  0.00  0.00    +0.170 A 
ATOM      6  C   UNL     1       5.229  -3.314   7.526  0.00  0.00    +0.086 A 
ATOM      7  C   UNL     1       6.037  -2.261   7.821  0.00  0.00    +0.168 A 
ATOM      8  O   UNL     1       5.806  -1.295   6.913  0.00  0.00    -0.354 OA
ATOM      9  N   UNL     1       4.820  -1.765   6.012  0.00  0.00    -0.073 NA
BRANCH   7  10
ATOM     10  C   UNL     1       6.997  -2.188   8.943  0.00  0.00    +0.020 A 
ATOM     11  C   UNL     1       7.142  -3.270   9.813  0.00  0.00    +0.011 A 
ATOM     12  C   UNL     1       8.040  -3.196  10.857  0.00  0.00    +0.001 A 
ATOM     13  C   UNL     1       8.797  -2.053  11.043  0.00  0.00    +0.000 A 
ATOM     14  C   UNL     1       8.659  -0.978  10.184  0.00  0.00    +0.001 A 
ATOM     15  C   UNL     1       7.768  -1.041   9.133  0.00  0.00    +0.011 A 
ENDBRANCH   7  10
ENDBRANCH   2   5
BRANCH   1  16
ATOM     16  N   UNL     1       1.859  -4.201   3.999  0.00  0.00    -0.246 N 
ATOM     17  H   UNL     1       1.668  -5.085   4.350  0.00  0.00    +0.172 HD
BRANCH  16  18
ATOM     18  C   UNL     1       1.207  -3.754   2.907  0.00  0.00    +0.147 C 
ATOM     19  S   UNL     1       0.043  -4.748   2.140  0.00  0.00    -0.017 S 
BRANCH  18  20
ATOM     20  N   UNL     1       1.471  -2.526   2.420  0.00  0.00    -0.322 N 
ATOM     21  H   UNL     1       2.131  -1.963   2.855  0.00  0.00    +0.148 HD
BRANCH  20  27
ATOM     22  C   UNL     1      -0.019   1.526   0.010  0.00  0.00    +0.008 C 
ATOM     23  C   UNL     1       0.002  -0.004   0.002  0.00  0.00    -0.009 C 
ATOM     24  C   UNL     1       0.718  -0.497  -1.257  0.00  0.00    +0.003 C 
ATOM     25  C   UNL     1       0.739  -2.027  -1.265  0.00  0.00    +0.002 C 
ATOM     26  C   UNL     1       1.479  -2.534  -0.026  0.00  0.00    +0.022 C 
ATOM     27  C   UNL     1       0.763  -2.041   1.233  0.00  0.00    +0.075 C 
ATOM     28  C   UNL     1       0.742  -0.511   1.242  0.00  0.00    +0.009 C 
ATOM     29  C   UNL     1       0.026  -0.018   2.500  0.00  0.00    +0.009 C 
ENDBRANCH  20  27
ENDBRANCH  18  20
ENDBRANCH  16  18
ENDBRANCH   1  16
TORSDOF 6
