REMARK  Name = ZINC63835367
REMARK  10 active torsions:
REMARK  status: ('A' for Active; 'I' for Inactive)
REMARK    1  A    between atoms: C_1  and  N_2
REMARK    2  A    between atoms: C_3  and  C_5
REMARK    3  A    between atoms: N_8  and  C_16
REMARK    4  A    between atoms: C_16  and  C_17
REMARK    5  A    between atoms: N_19  and  C_20
REMARK    6  A    between atoms: C_20  and  C_21
REMARK    7  A    between atoms: C_21  and  C_23
REMARK    8  A    between atoms: C_21  and  C_31
REMARK    9  A    between atoms: C_26  and  O_29
REMARK   10  A    between atoms: O_29  and  C_30
REMARK                            x       y       z     vdW  Elec       q    Type
REMARK                         _______ _______ _______ _____ _____    ______ ____
ROOT
ATOM      1  C   UNL     1       2.686  -5.220  -1.953  0.00  0.00    +0.230 C 
ATOM      2  O   UNL     1       3.683  -4.768  -1.430  0.00  0.00    -0.274 OA
ATOM      3  N   UNL     1       2.789  -5.951  -3.081  0.00  0.00    -0.313 N 
ATOM      4  H   UNL     1       1.992  -6.313  -3.499  0.00  0.00    +0.149 HD
ENDROOT
BRANCH   1   5
ATOM      5  C   UNL     1       1.332  -4.963  -1.343  0.00  0.00    +0.201 C 
BRANCH   5   8
ATOM      6  C   UNL     1       0.625  -2.182   0.995  0.00  0.00    +0.276 C 
ATOM      7  C   UNL     1       1.456  -2.679  -0.196  0.00  0.00    +0.160 C 
ATOM      8  N   UNL     1       1.488  -4.150  -0.134  0.00  0.00    -0.314 N 
ATOM      9  C   UNL     1       1.672  -4.747   1.123  0.00  0.00    +0.073 A 
ATOM     10  C   UNL     1       1.995  -6.091   1.214  0.00  0.00    +0.027 A 
ATOM     11  C   UNL     1       2.172  -6.675   2.455  0.00  0.00    +0.002 A 
ATOM     12  C   UNL     1       2.027  -5.918   3.603  0.00  0.00    +0.004 A 
ATOM     13  C   UNL     1       1.706  -4.576   3.518  0.00  0.00    +0.047 A 
ATOM     14  C   UNL     1       1.528  -3.982   2.278  0.00  0.00    +0.143 A 
ATOM     15  O   UNL     1       1.218  -2.660   2.205  0.00  0.00    -0.476 OA
BRANCH   6  18
ATOM     16  C   UNL     1      -0.018   1.461   0.010  0.00  0.00    +0.128 C 
ATOM     17  N   UNL     1       0.002  -0.004   0.002  0.00  0.00    -0.315 N 
ATOM     18  C   UNL     1       0.604  -0.675   1.004  0.00  0.00    +0.255 C 
ATOM     19  O   UNL     1       1.130  -0.067   1.911  0.00  0.00    -0.272 OA
ATOM     20  H   UNL     1      -0.418  -0.491  -0.724  0.00  0.00    +0.148 HD
ENDBRANCH   6  18
ENDBRANCH   5   8
ENDBRANCH   1   5
BRANCH   3  21
ATOM     21  C   UNL     1       4.105  -6.201  -3.674  0.00  0.00    +0.116 C 
BRANCH  21  22
ATOM     22  C   UNL     1       3.943  -7.050  -4.936  0.00  0.00    +0.064 C 
BRANCH  22  23
ATOM     23  C   UNL     1       3.410  -8.409  -4.562  0.00  0.00    -0.033 C 
ATOM     24  C   UNL     1       2.256  -8.975  -4.985  0.00  0.00    -0.000 A 
ATOM     25  C   UNL     1       1.193  -8.512  -5.884  0.00  0.00    +0.010 A 
ATOM     26  C   UNL     1       0.135  -9.321  -6.120  0.00  0.00    +0.001 A 
ATOM     27  C   UNL     1       0.029 -10.587  -5.529  0.00  0.00    +0.002 A 
ATOM     28  C   UNL     1       0.966 -11.082  -4.692  0.00  0.00    +0.026 A 
ATOM     29  C   UNL     1       2.122 -10.317  -4.374  0.00  0.00    +0.043 A 
ATOM     30  N   UNL     1       3.152 -10.570  -3.604  0.00  0.00    -0.380 N 
ATOM     31  C   UNL     1       4.061  -9.419  -3.644  0.00  0.00    +0.145 C 
ATOM     32  H   UNL     1       3.292 -11.385  -3.095  0.00  0.00    +0.160 HD
ENDBRANCH  22  23
BRANCH  22  33
ATOM     33  C   UNL     1       5.280  -7.203  -5.614  0.00  0.00    -0.038 A 
ATOM     34  C   UNL     1       6.328  -7.806  -4.944  0.00  0.00    +0.008 A 
ATOM     35  C   UNL     1       7.555  -7.947  -5.562  0.00  0.00    +0.046 A 
ATOM     36  C   UNL     1       7.735  -7.485  -6.858  0.00  0.00    +0.120 A 
ATOM     37  C   UNL     1       6.681  -6.881  -7.529  0.00  0.00    +0.046 A 
ATOM     38  C   UNL     1       5.455  -6.747  -6.907  0.00  0.00    +0.008 A 
BRANCH  36  39
ATOM     39  O   UNL     1       8.941  -7.622  -7.469  0.00  0.00    -0.495 OA
ATOM     40  C   UNL     1       9.053  -7.123  -8.803  0.00  0.00    +0.277 C 
ENDBRANCH  36  39
ENDBRANCH  22  33
ENDBRANCH  21  22
ENDBRANCH   3  21
TORSDOF 8
