REMARK  Name = ZINC05398888
REMARK  5 active torsions:
REMARK  status: ('A' for Active; 'I' for Inactive)
REMARK    1  A    between atoms: C_1  and  C_2
REMARK    2  A    between atoms: C_2  and  C_4
REMARK    3  A    between atoms: C_7  and  N_10
REMARK    4  A    between atoms: C_24  and  N_29
REMARK    5  A    between atoms: C_30  and  C_32
REMARK                            x       y       z     vdW  Elec       q    Type
REMARK                         _______ _______ _______ _____ _____    ______ ____
ROOT
ATOM      1  N   UNL     1       1.904   1.045   3.674  0.00  0.00    -0.269 N 
ATOM      2  C   UNL     1       2.291   2.336   3.642  0.00  0.00    +0.306 C 
ATOM      3  O   UNL     1       2.002   3.080   4.559  0.00  0.00    -0.252 OA
ATOM      4  N   UNL     1       2.999   2.801   2.594  0.00  0.00    -0.284 N 
ATOM      5  C   UNL     1       3.450   1.895   1.531  0.00  0.00    +0.114 C 
ATOM      6  C   UNL     1       3.070   2.450   0.166  0.00  0.00    +0.027 C 
ATOM      7  C   UNL     1       3.502   3.910   0.027  0.00  0.00    +0.018 C 
ATOM      8  C   UNL     1       2.817   4.724   1.127  0.00  0.00    +0.054 C 
ATOM      9  C   UNL     1       3.337   4.230   2.489  0.00  0.00    +0.119 C 
ATOM     10  C   UNL     1       1.326   4.481   1.089  0.00  0.00    +0.027 A 
ATOM     11  C   UNL     1       0.523   5.456   1.591  0.00  0.00    +0.024 A 
ATOM     12  C   UNL     1      -0.859   5.263   1.686  0.00  0.00    +0.030 A 
ATOM     13  C   UNL     1      -1.391   4.072   1.270  0.00  0.00    +0.099 A 
ATOM     14  C   UNL     1      -0.531   3.088   0.746  0.00  0.00    +0.273 A 
ATOM     15  O   UNL     1      -0.985   2.006   0.409  0.00  0.00    -0.266 OA
ATOM     16  N   UNL     1       0.796   3.331   0.607  0.00  0.00    -0.310 N 
ATOM     17  C   UNL     1       1.582   2.325  -0.106  0.00  0.00    +0.130 C 
ATOM     18  H   UNL     1       2.228   0.425   3.002  0.00  0.00    +0.156 HD
ENDROOT
BRANCH   1  22
ATOM     19  C   UNL     1      -0.681  -0.275   6.648  0.00  0.00    +0.017 A 
ATOM     20  C   UNL     1       0.300  -1.135   6.136  0.00  0.00    +0.013 A 
ATOM     21  C   UNL     1       1.147  -0.697   5.159  0.00  0.00    +0.024 A 
ATOM     22  C   UNL     1       1.037   0.603   4.671  0.00  0.00    +0.035 A 
ATOM     23  C   UNL     1       0.068   1.462   5.180  0.00  0.00    +0.024 A 
ATOM     24  C   UNL     1      -0.787   1.031   6.153  0.00  0.00    +0.013 A 
BRANCH  19  26
ATOM     25  C   UNL     1      -2.648   0.185   8.247  0.00  0.00    +0.091 C 
ATOM     26  C   UNL     1      -1.594  -0.742   7.698  0.00  0.00    +0.160 C 
ATOM     27  O   UNL     1      -1.500  -1.874   8.125  0.00  0.00    -0.292 OA
ENDBRANCH  19  26
ENDBRANCH   1  22
BRANCH  13  28
ATOM     28  N   UNL     1      -2.767   3.834   1.370  0.00  0.00    -0.277 N 
ATOM     29  C   UNL     1      -3.481   3.539   0.265  0.00  0.00    +0.255 C 
ATOM     30  O   UNL     1      -2.917   3.394  -0.803  0.00  0.00    -0.269 OA
ATOM     31  H   UNL     1      -3.207   3.882   2.233  0.00  0.00    +0.155 HD
BRANCH  29  32
ATOM     32  C   UNL     1      -4.937   3.394   0.351  0.00  0.00    +0.074 A 
ATOM     33  C   UNL     1      -5.846   3.097  -0.652  0.00  0.00    +0.021 A 
ATOM     34  C   UNL     1      -7.169   3.019  -0.294  0.00  0.00    +0.008 A 
ATOM     35  C   UNL     1      -7.519   3.232   1.002  0.00  0.00    +0.046 A 
ATOM     36  S   UNL     1      -6.000   3.546   1.776  0.00  0.00    -0.092 S 
ENDBRANCH  29  32
ENDBRANCH  13  28
TORSDOF 4
