REMARK  Name = ZINC51042681
REMARK  6 active torsions:
REMARK  status: ('A' for Active; 'I' for Inactive)
REMARK    1  A    between atoms: C_1  and  C_2
REMARK    2  A    between atoms: C_2  and  C_20
REMARK    3  A    between atoms: C_8  and  O_11
REMARK    4  A    between atoms: O_11  and  C_12
REMARK    5  A    between atoms: CA_16  and  C_18
REMARK    6  A    between atoms: C_18  and  O_19
REMARK                            x       y       z     vdW  Elec       q    Type
REMARK                         _______ _______ _______ _____ _____    ______ ____
ROOT
ATOM      1  C   UNL     1       0.314   1.678  -0.184  0.00  0.00    +0.056 C 
ATOM      2  C   UNL     1       0.239   0.150  -0.181  0.00  0.00    +0.109 C 
ATOM      3  C   UNL     1       1.105  -0.443  -1.317  0.00  0.00    +0.086 C 
ATOM      4  C   UNL     1       2.424  -0.691  -0.611  0.00  0.00    +0.002 A 
ATOM      5  C   UNL     1       3.694  -0.944  -1.084  0.00  0.00    +0.007 A 
ATOM      6  C   UNL     1       4.740  -1.129  -0.199  0.00  0.00    +0.004 A 
ATOM      7  C   UNL     1       4.509  -1.059   1.163  0.00  0.00    +0.050 A 
ATOM      8  C   UNL     1       3.235  -0.807   1.642  0.00  0.00    +0.172 A 
ATOM      9  C   UNL     1       2.174  -0.624   0.752  0.00  0.00    +0.167 A 
ATOM     10  O   UNL     1       0.856  -0.388   1.002  0.00  0.00    -0.482 OA
ATOM     11  C   UNL     1      -1.212  -0.320  -0.298  0.00  0.00    +0.056 C 
ENDROOT
BRANCH   8  12
ATOM     12  O   UNL     1       3.016  -0.739   2.983  0.00  0.00    -0.434 OA
BRANCH  12  13
ATOM     13  C   UNL     1       2.599  -1.863   3.618  0.00  0.00    +0.221 A 
ATOM     14  C   UNL     1       2.337  -1.826   4.982  0.00  0.00    +0.067 A 
ATOM     15  C   UNL     1       1.912  -2.979   5.617  0.00  0.00    +0.007 A 
ATOM     16  C   UNL     1       1.762  -4.135   4.862  0.00  0.00    +0.026 A 
ATOM     17  CA  UNL     1       2.040  -4.099   3.510  0.00  0.00    +0.070 A 
ATOM     18  N   UNL     1       2.439  -2.982   2.931  0.00  0.00    -0.215 NA
BRANCH  17  19
ATOM     19  C   UNL     1       1.880  -5.349   2.685  0.00  0.00    +0.211 C 
BRANCH  19  20
ATOM     20  O   UNL     1       1.437  -6.419   3.522  0.00  0.00    -0.389 OA
ATOM     21  H   UNL     1       1.312  -7.258   3.056  0.00  0.00    +0.210 HD
ENDBRANCH  19  20
ENDBRANCH  17  19
ENDBRANCH  12  13
ENDBRANCH   8  12
TORSDOF 4
