REMARK  Name = ZINC40734560
REMARK  6 active torsions:
REMARK  status: ('A' for Active; 'I' for Inactive)
REMARK    1  A    between atoms: C_1  and  C_2
REMARK    2  A    between atoms: C_10  and  N_24
REMARK    3  A    between atoms: C_11  and  N_15
REMARK    4  A    between atoms: N_18  and  C_21
REMARK    5  A    between atoms: C_21  and  C_22
REMARK    6  A    between atoms: C_22  and  O_23
REMARK                            x       y       z     vdW  Elec       q    Type
REMARK                         _______ _______ _______ _____ _____    ______ ____
ROOT
ATOM      1  C   UNL     1       0.018   1.480  -0.135  0.00  0.00    +0.045 C 
ATOM      2  C   UNL     1       0.032  -0.023  -0.025  0.00  0.00    -0.032 A 
ATOM      3  C   UNL     1       0.039  -0.635   1.221  0.00  0.00    +0.008 A 
ATOM      4  C   UNL     1       0.052  -2.017   1.277  0.00  0.00    +0.044 A 
ATOM      5  C   UNL     1       0.056  -2.743   0.090  0.00  0.00    +0.124 A 
ATOM      6  N   UNL     1       0.049  -2.121  -1.080  0.00  0.00    -0.240 NA
ATOM      7  C   UNL     1       0.032  -0.804  -1.163  0.00  0.00    +0.116 A 
ATOM      8  N   UNL     1       0.069  -4.133   0.131  0.00  0.00    -0.283 N 
ATOM      9  C   UNL     1      -0.037  -4.865  -1.047  0.00  0.00    +0.150 A 
ATOM     10  C   UNL     1      -0.132  -6.258  -1.010  0.00  0.00    +0.106 A 
ATOM     11  C   UNL     1      -0.236  -6.943  -2.222  0.00  0.00    +0.147 A 
ATOM     12  N   UNL     1      -0.240  -6.249  -3.357  0.00  0.00    -0.219 NA
ATOM     13  C   UNL     1      -0.148  -4.935  -3.348  0.00  0.00    +0.225 A 
ATOM     14  N   UNL     1      -0.054  -4.249  -2.226  0.00  0.00    -0.219 NA
ATOM     15  H   UNL     1       0.151  -4.592   0.982  0.00  0.00    +0.155 HD
ENDROOT
BRANCH  11  16
ATOM     16  N   UNL     1      -0.332  -8.330  -2.242  0.00  0.00    -0.311 N 
ATOM     17  C   UNL     1      -1.634  -8.998  -2.094  0.00  0.00    +0.122 C 
ATOM     18  C   UNL     1      -1.798 -10.004  -3.238  0.00  0.00    +0.103 C 
ATOM     19  N   UNL     1      -0.638 -10.904  -3.265  0.00  0.00    -0.297 NA
ATOM     20  C   UNL     1       0.602 -10.167  -3.544  0.00  0.00    +0.103 C 
ATOM     21  C   UNL     1       0.864  -9.167  -2.419  0.00  0.00    +0.122 C 
BRANCH  19  22
ATOM     22  C   UNL     1      -0.836 -11.989  -4.235  0.00  0.00    +0.112 C 
BRANCH  22  23
ATOM     23  C   UNL     1       0.266 -13.036  -4.061  0.00  0.00    +0.171 C 
BRANCH  23  24
ATOM     24  O   UNL     1       0.141 -13.650  -2.776  0.00  0.00    -0.394 OA
ATOM     25  H   UNL     1       0.809 -14.326  -2.597  0.00  0.00    +0.209 HD
ENDBRANCH  23  24
ENDBRANCH  22  23
ENDBRANCH  19  22
ENDBRANCH  11  16
BRANCH  10  26
ATOM     26  N   UNL     1      -0.123  -6.949   0.211  0.00  0.00    -0.353 N 
ATOM     27  H   UNL     1      -0.125  -6.457   1.047  0.00  0.00    +0.143 HD
ATOM     28  H   UNL     1      -0.115  -7.919   0.220  0.00  0.00    +0.143 HD
ENDBRANCH  10  26
TORSDOF 5
