REMARK  Name = ZINC63448368
REMARK  10 active torsions:
REMARK  status: ('A' for Active; 'I' for Inactive)
REMARK    1  A    between atoms: C_1  and  C_2
REMARK    2  A    between atoms: N_7  and  C_9
REMARK    3  A    between atoms: C_9  and  C_11
REMARK    4  A    between atoms: C_9  and  C_12
REMARK    5  A    between atoms: N_14  and  C_15
REMARK    6  A    between atoms: C_19  and  O_29
REMARK    7  A    between atoms: C_23  and  C_25
REMARK    8  A    between atoms: C_25  and  O_27
REMARK    9  A    between atoms: O_27  and  C_28
REMARK   10  A    between atoms: O_29  and  C_30
REMARK                            x       y       z     vdW  Elec       q    Type
REMARK                         _______ _______ _______ _____ _____    ______ ____
ROOT
ATOM      1  C   UNL     1       2.103  -6.500   3.716  0.00  0.00    +0.053 C 
ATOM      2  C   UNL     1       2.288  -7.640   4.475  0.00  0.00    +0.018 A 
ATOM      3  C   UNL     1       3.002  -7.881   5.675  0.00  0.00    +0.015 A 
ATOM      4  C   UNL     1       3.014  -9.124   6.212  0.00  0.00    +0.046 A 
ATOM      5  C   UNL     1       2.333 -10.192   5.607  0.00  0.00    +0.122 A 
ATOM      6  C   UNL     1       1.628 -10.030   4.453  0.00  0.00    +0.071 A 
ATOM      7  C   UNL     1       1.571  -8.757   3.836  0.00  0.00    +0.048 A 
ATOM      8  N   UNL     1       0.968  -8.347   2.736  0.00  0.00    -0.367 N 
ATOM      9  C   UNL     1       1.229  -6.916   2.554  0.00  0.00    +0.234 C 
ATOM     10  H   UNL     1       0.435  -8.902   2.146  0.00  0.00    +0.161 HD
ENDROOT
BRANCH   1  13
ATOM     11  C   UNL     1       2.248  -4.218   3.181  0.00  0.00    +0.203 C 
ATOM     12  O   UNL     1       1.421  -4.373   2.308  0.00  0.00    -0.277 OA
ATOM     13  N   UNL     1       2.601  -5.256   3.965  0.00  0.00    -0.288 N 
ATOM     14  H   UNL     1       3.210  -5.117   4.708  0.00  0.00    +0.155 HD
BRANCH  11  15
ATOM     15  C   UNL     1       2.880  -2.866   3.389  0.00  0.00    +0.016 C 
ATOM     16  C   UNL     1       2.494  -2.330   4.769  0.00  0.00    -0.004 C 
BRANCH  15  22
ATOM     17  C   UNL     1      -1.031  -0.491   1.648  0.00  0.00    +0.005 C 
ATOM     18  C   UNL     1       0.458  -0.770   1.433  0.00  0.00    -0.031 C 
ATOM     19  C   UNL     1       1.233   0.550   1.447  0.00  0.00    -0.001 C 
ATOM     20  C   UNL     1       2.729   0.254   1.310  0.00  0.00    -0.018 C 
ATOM     21  C   UNL     1       3.163  -0.685   2.437  0.00  0.00    -0.078 C 
ATOM     22  N   UNL     1       2.405  -1.939   2.354  0.00  0.00    +0.387 N 
ATOM     23  C   UNL     1       0.976  -1.672   2.556  0.00  0.00    -0.075 C 
ATOM     24  H   UNL     1       2.543  -2.354   1.444  0.00  0.00    -0.081 HD
ENDBRANCH  15  22
ENDBRANCH  11  15
ENDBRANCH   1  13
BRANCH   9  25
ATOM     25  C   UNL     1       1.952  -6.685   1.252  0.00  0.00    +0.335 C 
ATOM     26  O   UNL     1       2.777  -7.481   0.869  0.00  0.00    -0.248 OA
BRANCH  25  27
ATOM     27  O   UNL     1       1.679  -5.596   0.517  0.00  0.00    -0.466 OA
ATOM     28  C   UNL     1       2.402  -5.441  -0.706  0.00  0.00    +0.280 C 
ENDBRANCH  25  27
ENDBRANCH   9  25
BRANCH   5  29
ATOM     29  O   UNL     1       2.379 -11.417   6.186  0.00  0.00    -0.495 OA
ATOM     30  C   UNL     1       3.132 -11.536   7.395  0.00  0.00    +0.277 C 
ENDBRANCH   5  29
TORSDOF 6
