REMARK  Name = ZINC08920784
REMARK  6 active torsions:
REMARK  status: ('A' for Active; 'I' for Inactive)
REMARK    1  A    between atoms: C_1  and  C_2
REMARK    2  A    between atoms: C_2  and  O_3
REMARK    3  A    between atoms: O_3  and  C_4
REMARK    4  A    between atoms: C_14  and  O_27
REMARK    5  A    between atoms: C_16  and  C_19
REMARK    6  A    between atoms: C_21  and  O_26
REMARK                            x       y       z     vdW  Elec       q    Type
REMARK                         _______ _______ _______ _____ _____    ______ ____
ROOT
ATOM      1  C   UNL     1      -2.464   6.188  -1.972  0.00  0.00    +0.403 C 
ATOM      2  O   UNL     1      -3.505   5.698  -2.362  0.00  0.00    -0.226 OA
ATOM      3  N   UNL     1      -1.777   5.604  -0.970  0.00  0.00    -0.262 N 
ATOM      4  C   UNL     1      -2.262   4.372  -0.329  0.00  0.00    +0.116 C 
ATOM      5  C   UNL     1      -1.276   3.233  -0.595  0.00  0.00    +0.056 C 
ATOM      6  C   UNL     1       0.139   3.713  -0.296  0.00  0.00    -0.020 A 
ATOM      7  C   UNL     1       0.436   5.033  -0.257  0.00  0.00    +0.013 A 
ATOM      8  S   UNL     1       2.171   5.103   0.103  0.00  0.00    -0.076 S 
ATOM      9  C   UNL     1       2.489   3.425   0.202  0.00  0.00    +0.080 A 
ATOM     10  C   UNL     1       1.252   2.815  -0.040  0.00  0.00    +0.068 A 
ATOM     11  C   UNL     1       1.209   1.330  -0.010  0.00  0.00    +0.220 C 
ATOM     12  N   UNL     1       2.347   0.691   0.001  0.00  0.00    -0.223 NA
ATOM     13  C   UNL     1       3.656   1.326  -0.091  0.00  0.00    +0.225 C 
ATOM     14  N   UNL     1       3.630   2.700   0.445  0.00  0.00    -0.313 N 
ATOM     15  C   UNL     1      -0.509   6.175  -0.474  0.00  0.00    +0.153 C 
ATOM     16  H   UNL     1       4.377   3.070   0.942  0.00  0.00    +0.149 HD
ENDROOT
BRANCH  13  17
ATOM     17  C   UNL     1       4.085   1.370  -1.535  0.00  0.00    +0.012 A 
ATOM     18  C   UNL     1       3.134   1.395  -2.538  0.00  0.00    +0.053 A 
ATOM     19  C   UNL     1       3.529   1.441  -3.866  0.00  0.00    +0.117 A 
ATOM     20  C   UNL     1       4.879   1.450  -4.186  0.00  0.00    +0.046 A 
ATOM     21  C   UNL     1       5.827   1.419  -3.182  0.00  0.00    +0.019 A 
ATOM     22  C   UNL     1       5.430   1.379  -1.857  0.00  0.00    +0.025 A 
ATOM     23 BR   UNL     1       6.729   1.337  -0.483  0.00  0.00    -0.050 Br
BRANCH  19  24
ATOM     24  O   UNL     1       2.596   1.472  -4.853  0.00  0.00    -0.507 OA
ATOM     25  H   UNL     1       2.325   0.597  -5.166  0.00  0.00    +0.292 HD
ENDBRANCH  19  24
ENDBRANCH  13  17
BRANCH  11  26
ATOM     26  O   UNL     1       0.031   0.663   0.011  0.00  0.00    -0.492 OA
ATOM     27  H   UNL     1       0.124  -0.299   0.029  0.00  0.00    +0.294 HD
ENDBRANCH  11  26
BRANCH   1  28
ATOM     28  O   UNL     1      -1.996   7.316  -2.540  0.00  0.00    -0.451 OA
BRANCH  28  30
ATOM     29  C   UNL     1      -2.102   9.157  -4.130  0.00  0.00    +0.048 C 
ATOM     30  C   UNL     1      -2.787   7.890  -3.613  0.00  0.00    +0.230 C 
ENDBRANCH  28  30
ENDBRANCH   1  28
TORSDOF 5
