REMARK  Name = ZINC11898665
REMARK  10 active torsions:
REMARK  status: ('A' for Active; 'I' for Inactive)
REMARK    1  A    between atoms: C_1  and  C_2
REMARK    2  A    between atoms: C_2  and  O_3
REMARK    3  A    between atoms: O_3  and  C_4
REMARK    4  A    between atoms: C_9  and  N_10
REMARK    5  A    between atoms: C_11  and  C_13
REMARK    6  A    between atoms: N_15  and  C_16
REMARK    7  A    between atoms: C_16  and  C_17
REMARK    8  A    between atoms: C_17  and  C_19
REMARK    9  A    between atoms: C_17  and  N_57
REMARK   10  A    between atoms: N_23  and  C_24
REMARK                            x       y       z     vdW  Elec       q    Type
REMARK                         _______ _______ _______ _____ _____    ______ ____
ROOT
ATOM      1  C   UNL     1      -2.186   7.000   1.403  0.00  0.00    +0.299 C 
ATOM      2  O   UNL     1      -1.721   7.685   2.291  0.00  0.00    -0.265 OA
ATOM      3  N   UNL     1      -2.153   5.657   1.502  0.00  0.00    -0.309 N 
ATOM      4  H   UNL     1      -2.524   5.109   0.792  0.00  0.00    +0.149 HD
ENDROOT
BRANCH   1   6
ATOM      5  N   UNL     1      -2.826   8.990   0.103  0.00  0.00    -0.275 N 
ATOM      6  C   UNL     1      -2.793   7.646   0.202  0.00  0.00    +0.303 C 
ATOM      7  O   UNL     1      -3.258   6.961  -0.686  0.00  0.00    -0.265 OA
ATOM      8  H   UNL     1      -2.384   9.536   0.771  0.00  0.00    +0.155 HD
BRANCH   5  14
ATOM      9  C   UNL     1      -3.057  10.821  -1.461  0.00  0.00    +0.142 A 
ATOM     10  C   UNL     1      -3.727  11.417  -2.518  0.00  0.00    +0.047 A 
ATOM     11  C   UNL     1      -4.831  10.797  -3.074  0.00  0.00    +0.004 A 
ATOM     12  C   UNL     1      -5.270   9.583  -2.579  0.00  0.00    +0.002 A 
ATOM     13  C   UNL     1      -4.605   8.979  -1.530  0.00  0.00    +0.027 A 
ATOM     14  C   UNL     1      -3.499   9.597  -0.962  0.00  0.00    +0.076 A 
BRANCH   9  15
ATOM     15  O   UNL     1      -1.971  11.428  -0.913  0.00  0.00    -0.490 OA
BRANCH  15  17
ATOM     16  C   UNL     1      -0.345  13.207  -0.735  0.00  0.00    +0.048 C 
ATOM     17  C   UNL     1      -1.576  12.681  -1.476  0.00  0.00    +0.226 C 
ENDBRANCH  15  17
ENDBRANCH   9  15
ENDBRANCH   5  14
ENDBRANCH   1   6
BRANCH   3  18
ATOM     18  C   UNL     1      -1.556   5.023   2.681  0.00  0.00    +0.095 C 
BRANCH  18  19
ATOM     19  C   UNL     1      -1.756   3.508   2.601  0.00  0.00    -0.003 C 
BRANCH  19  25
ATOM     20  C   UNL     1       0.131   3.468   1.083  0.00  0.00    -0.049 C 
ATOM     21  C   UNL     1       0.599   2.982  -0.291  0.00  0.00    +0.141 C 
ATOM     22  O   UNL     1       0.479   1.558  -0.354  0.00  0.00    -0.383 OA
ATOM     23  C   UNL     1      -0.851   1.082  -0.135  0.00  0.00    +0.141 C 
ATOM     24  C   UNL     1      -1.334   1.548   1.241  0.00  0.00    -0.049 C 
ATOM     25  N   UNL     1      -1.263   3.024   1.293  0.00  0.00    +0.389 N 
ATOM     26  H   UNL     1      -1.854   3.413   0.549  0.00  0.00    -0.081 HD
ENDBRANCH  19  25
BRANCH  19  27
ATOM     27  C   UNL     1      -1.006   2.843   3.726  0.00  0.00    +0.006 A 
ATOM     28  C   UNL     1       0.305   3.000   4.004  0.00  0.00    +0.021 A 
ATOM     29  C   UNL     1       0.596   2.203   5.129  0.00  0.00    +0.019 A 
ATOM     30  C   UNL     1      -0.548   1.590   5.496  0.00  0.00    +0.085 A 
ATOM     31  N   UNL     1      -1.536   1.983   4.642  0.00  0.00    -0.355 N 
ATOM     32  C   UNL     1      -2.934   1.551   4.697  0.00  0.00    +0.148 C 
ENDBRANCH  19  27
ENDBRANCH  18  19
ENDBRANCH   3  18
TORSDOF 8
