REMARK  Name = ZINC27308178
REMARK  12 active torsions:
REMARK  status: ('A' for Active; 'I' for Inactive)
REMARK    1  A    between atoms: C_1  and  C_2
REMARK    2  A    between atoms: C_2  and  C_3
REMARK    3  A    between atoms: C_2  and  C_4
REMARK    4  A    between atoms: C_4  and  N_5
REMARK    5  A    between atoms: C_6  and  C_8
REMARK    6  A    between atoms: C_8  and  N_9
REMARK    7  A    between atoms: N_9  and  C_10
REMARK    8  A    between atoms: N_9  and  C_17
REMARK    9  A    between atoms: C_10  and  C_11
REMARK   10  A    between atoms: C_18  and  N_33
REMARK   11  A    between atoms: N_19  and  C_26
REMARK   12  A    between atoms: C_26  and  C_27
REMARK                            x       y       z     vdW  Elec       q    Type
REMARK                         _______ _______ _______ _____ _____    ______ ____
ROOT
ATOM      1  C   UNL     1      -4.386  -4.954   0.986  0.00  0.00    +0.134 A 
ATOM      2  C   UNL     1      -3.745  -5.849   1.800  0.00  0.00    +0.127 A 
ATOM      3  N   UNL     1      -4.303  -6.174   3.015  0.00  0.00    -0.276 N 
ATOM      4  C   UNL     1      -5.466  -5.618   3.401  0.00  0.00    +0.331 A 
ATOM      5  O   UNL     1      -5.943  -5.917   4.479  0.00  0.00    -0.246 OA
ATOM      6  N   UNL     1      -6.109  -4.737   2.614  0.00  0.00    -0.273 N 
ATOM      7  H   UNL     1      -6.946  -4.348   2.912  0.00  0.00    +0.173 HD
ATOM      8  C   UNL     1      -5.597  -4.385   1.418  0.00  0.00    +0.277 A 
ATOM      9  O   UNL     1      -6.184  -3.581   0.712  0.00  0.00    -0.266 OA
ENDROOT
BRANCH   2  10
ATOM     10  N   UNL     1      -2.556  -6.418   1.406  0.00  0.00    -0.343 N 
ATOM     11  H   UNL     1      -2.140  -6.146   0.573  0.00  0.00    +0.144 HD
ATOM     12  H   UNL     1      -2.134  -7.092   1.962  0.00  0.00    +0.144 HD
ENDBRANCH   2  10
BRANCH   1  13
ATOM     13  N   UNL     1      -3.835  -4.603  -0.268  0.00  0.00    -0.310 N 
BRANCH  13  14
ATOM     14  C   UNL     1      -2.550  -3.902  -0.334  0.00  0.00    +0.201 C 
BRANCH  14  16
ATOM     15  N   UNL     1      -1.747  -1.566  -0.458  0.00  0.00    -0.314 N 
ATOM     16  C   UNL     1      -2.791  -2.416  -0.393  0.00  0.00    +0.230 C 
ATOM     17  O   UNL     1      -3.925  -1.984  -0.381  0.00  0.00    -0.274 OA
ATOM     18  H   UNL     1      -0.841  -1.911  -0.467  0.00  0.00    +0.149 HD
BRANCH  15  19
ATOM     19  C   UNL     1      -1.982  -0.121  -0.515  0.00  0.00    +0.107 C 
BRANCH  19  21
ATOM     20  C   UNL     1      -0.886   2.110  -0.768  0.00  0.00    +0.009 C 
ATOM     21  C   UNL     1      -0.640   0.611  -0.583  0.00  0.00    -0.000 C 
ATOM     22  C   UNL     1       0.135   0.378   0.715  0.00  0.00    +0.009 C 
ENDBRANCH  19  21
ENDBRANCH  15  19
ENDBRANCH  14  16
ENDBRANCH  13  14
BRANCH  13  23
ATOM     23  C   UNL     1      -4.549  -4.940  -1.502  0.00  0.00    +0.141 C 
BRANCH  23  24
ATOM     24  C   UNL     1      -4.105  -6.297  -1.985  0.00  0.00    -0.030 A 
ATOM     25  C   UNL     1      -3.037  -6.405  -2.856  0.00  0.00    +0.005 A 
ATOM     26  C   UNL     1      -2.630  -7.650  -3.299  0.00  0.00    +0.000 A 
ATOM     27  C   UNL     1      -3.290  -8.786  -2.870  0.00  0.00    +0.000 A 
ATOM     28  C   UNL     1      -4.357  -8.678  -1.998  0.00  0.00    +0.000 A 
ATOM     29  C   UNL     1      -4.762  -7.434  -1.552  0.00  0.00    +0.005 A 
ENDBRANCH  23  24
ENDBRANCH  13  23
ENDBRANCH   1  13
BRANCH   3  30
ATOM     30  C   UNL     1      -3.626  -7.131   3.894  0.00  0.00    +0.163 C 
BRANCH  30  31
ATOM     31  C   UNL     1      -2.681  -6.393   4.807  0.00  0.00    -0.028 A 
ATOM     32  C   UNL     1      -1.374  -6.172   4.416  0.00  0.00    +0.005 A 
ATOM     33  C   UNL     1      -0.507  -5.495   5.254  0.00  0.00    +0.000 A 
ATOM     34  C   UNL     1      -0.947  -5.039   6.482  0.00  0.00    +0.000 A 
ATOM     35  C   UNL     1      -2.255  -5.259   6.873  0.00  0.00    +0.000 A 
ATOM     36  C   UNL     1      -3.123  -5.932   6.034  0.00  0.00    +0.005 A 
ENDBRANCH  30  31
ENDBRANCH   3  30
TORSDOF 10
