REMARK  Name = ZINC00651667
REMARK  3 active torsions:
REMARK  status: ('A' for Active; 'I' for Inactive)
REMARK    1  A    between atoms: C_8  and  C_24
REMARK    2  A    between atoms: C_14  and  C_19
REMARK    3  A    between atoms: C_28  and  O_30
REMARK                            x       y       z     vdW  Elec       q    Type
REMARK                         _______ _______ _______ _____ _____    ______ ____
ROOT
ATOM      1  C   UNL     1      -3.888  -6.971  -3.770  0.00  0.00    +0.002 A 
ATOM      2  C   UNL     1      -2.861  -6.312  -4.420  0.00  0.00    +0.002 A 
ATOM      3  C   UNL     1      -2.452  -5.061  -3.992  0.00  0.00    +0.025 A 
ATOM      4  C   UNL     1      -3.082  -4.476  -2.907  0.00  0.00    +0.052 A 
ATOM      5  C   UNL     1      -4.087  -5.152  -2.230  0.00  0.00    +0.049 A 
ATOM      6  C   UNL     1      -4.505  -6.396  -2.672  0.00  0.00    +0.025 A 
ATOM      7  N   UNL     1      -4.646  -4.553  -1.103  0.00  0.00    -0.331 N 
ATOM      8  C   UNL     1      -3.856  -4.313   0.086  0.00  0.00    +0.136 C 
ATOM      9  C   UNL     1      -2.728  -3.326  -0.102  0.00  0.00    +0.036 C 
ATOM     10  C   UNL     1      -2.282  -2.854  -1.278  0.00  0.00    +0.017 C 
ATOM     11  N   UNL     1      -2.794  -3.181  -2.491  0.00  0.00    -0.316 N 
ATOM     12  C   UNL     1      -1.116  -1.879  -1.323  0.00  0.00    +0.060 C 
ATOM     13  C   UNL     1      -1.133  -0.990  -0.081  0.00  0.00    +0.039 C 
ATOM     14  C   UNL     1      -1.016  -1.901   1.147  0.00  0.00    +0.088 C 
ATOM     15  C   UNL     1      -2.132  -2.901   1.109  0.00  0.00    +0.163 C 
ATOM     16  O   UNL     1      -2.541  -3.363   2.156  0.00  0.00    -0.292 OA
ATOM     17  H   UNL     1      -5.580  -4.293  -1.115  0.00  0.00    +0.147 HD
ATOM     18  H   UNL     1      -2.972  -2.459  -3.114  0.00  0.00    +0.152 HD
ENDROOT
BRANCH   8  19
ATOM     19  C   UNL     1      -3.272  -5.624   0.545  0.00  0.00    -0.019 A 
ATOM     20  C   UNL     1      -2.414  -6.325  -0.281  0.00  0.00    +0.006 A 
ATOM     21  C   UNL     1      -1.876  -7.528   0.137  0.00  0.00    +0.004 A 
ATOM     22  C   UNL     1      -2.196  -8.033   1.383  0.00  0.00    +0.045 A 
ATOM     23  C   UNL     1      -3.056  -7.331   2.214  0.00  0.00    +0.117 A 
ATOM     24  C   UNL     1      -3.590  -6.121   1.794  0.00  0.00    +0.051 A 
BRANCH  23  25
ATOM     25  O   UNL     1      -3.372  -7.825   3.440  0.00  0.00    -0.507 OA
ATOM     26  H   UNL     1      -2.775  -7.539   4.145  0.00  0.00    +0.292 HD
ENDBRANCH  23  25
ENDBRANCH   8  19
BRANCH  13  27
ATOM     27  C   UNL     1       0.031  -0.034  -0.121  0.00  0.00    -0.006 A 
ATOM     28  C   UNL     1       0.023   1.321  -0.126  0.00  0.00    +0.011 A 
ATOM     29  C   UNL     1       1.227   1.999  -0.166  0.00  0.00    +0.008 A 
ATOM     30  C   UNL     1       2.380   1.288  -0.198  0.00  0.00    +0.045 A 
ATOM     31  S   UNL     1       1.779  -0.393  -0.173  0.00  0.00    -0.101 S 
ENDBRANCH  13  27
TORSDOF 3
