REMARK  Name = ZINC35793066
REMARK  5 active torsions:
REMARK  status: ('A' for Active; 'I' for Inactive)
REMARK    1  A    between atoms: C_1  and  C_2
REMARK    2  A    between atoms: C_2  and  C_4
REMARK    3  A    between atoms: C_2  and  N_7
REMARK    4  A    between atoms: N_7  and  C_8
REMARK    5  A    between atoms: C_16  and  O_18
REMARK                            x       y       z     vdW  Elec       q    Type
REMARK                         _______ _______ _______ _____ _____    ______ ____
ROOT
ATOM      1  C   UNL     1      -0.235  -0.547  -2.346  0.00  0.00    +0.126 C 
ATOM      2  C   UNL     1      -0.922  -1.932  -2.417  0.00  0.00    +0.252 C 
ATOM      3  O   UNL     1      -0.060  -2.669  -3.301  0.00  0.00    -0.490 OA
ATOM      4  C   UNL     1       0.562  -1.804  -4.148  0.00  0.00    +0.129 A 
ATOM      5  C   UNL     1       0.519  -0.502  -3.660  0.00  0.00    +0.015 A 
ATOM      6  C   UNL     1       1.101   0.534  -4.357  0.00  0.00    +0.012 A 
ATOM      7  C   UNL     1       1.732   0.290  -5.563  0.00  0.00    +0.046 A 
ATOM      8  C   UNL     1       1.776  -1.002  -6.067  0.00  0.00    +0.120 A 
ATOM      9  C   UNL     1       1.194  -2.046  -5.364  0.00  0.00    +0.091 A 
ENDROOT
BRANCH   1  10
ATOM     10  N   UNL     1       0.690  -0.478  -1.207  0.00  0.00    -0.296 NA
ATOM     11  H   UNL     1       1.485   0.104  -1.422  0.00  0.00    +0.123 HD
BRANCH  10  13
ATOM     12  C   UNL     1      -0.019   1.526   0.010  0.00  0.00    +0.034 C 
ATOM     13  C   UNL     1       0.002  -0.004   0.002  0.00  0.00    +0.138 C 
BRANCH  13  14
ATOM     14  C   UNL     1       0.731  -0.503   1.223  0.00  0.00    +0.227 C 
ATOM     15  O   UNL     1       1.725  -1.187   1.099  0.00  0.00    -0.274 OA
ATOM     16  N   UNL     1       0.278  -0.191   2.453  0.00  0.00    -0.328 N 
ATOM     17  H   UNL     1      -0.517   0.356   2.553  0.00  0.00    +0.145 HD
ATOM     18  H   UNL     1       0.747  -0.512   3.239  0.00  0.00    +0.145 HD
ENDBRANCH  13  14
ENDBRANCH  10  13
ENDBRANCH   1  10
BRANCH   8  19
ATOM     19  O   UNL     1       2.393  -1.245  -7.253  0.00  0.00    -0.507 OA
ATOM     20  H   UNL     1       3.333  -1.455  -7.172  0.00  0.00    +0.292 HD
ENDBRANCH   8  19
TORSDOF 4
