REMARK  Name = ZINC37606039
REMARK  4 active torsions:
REMARK  status: ('A' for Active; 'I' for Inactive)
REMARK    1  A    between atoms: C_6  and  C_7
REMARK    2  A    between atoms: C_7  and  C_8
REMARK    3  A    between atoms: C_10  and  C_13
REMARK    4  A    between atoms: C_17  and  N_19
REMARK                            x       y       z     vdW  Elec       q    Type
REMARK                         _______ _______ _______ _____ _____    ______ ____
ROOT
ATOM      1  C   UNL     1      -1.738  -1.024  -1.408  0.00  0.00    +0.176 A 
ATOM      2  N   UNL     1      -2.519  -0.215  -2.127  0.00  0.00    -0.191 NA
ATOM      3  C   UNL     1      -2.715  -0.726  -3.322  0.00  0.00    +0.259 A 
ATOM      4  O   UNL     1      -2.051  -1.894  -3.389  0.00  0.00    -0.333 OA
ATOM      5  N   UNL     1      -1.418  -2.061  -2.129  0.00  0.00    -0.061 NA
ENDROOT
BRANCH   3   6
ATOM      6  C   UNL     1      -3.524  -0.125  -4.402  0.00  0.00    +0.041 A 
ATOM      7  C   UNL     1      -4.160   1.102  -4.200  0.00  0.00    +0.016 A 
ATOM      8  C   UNL     1      -4.915   1.662  -5.210  0.00  0.00    +0.041 A 
ATOM      9  C   UNL     1      -5.045   1.012  -6.425  0.00  0.00    +0.144 A 
ATOM     10  C   UNL     1      -4.415  -0.211  -6.636  0.00  0.00    +0.061 A 
ATOM     11  C   UNL     1      -3.650  -0.778  -5.629  0.00  0.00    +0.039 A 
ATOM     12  F   UNL     1      -5.786   1.567  -7.410  0.00  0.00    -0.204 F 
BRANCH  10  13
ATOM     13  N   UNL     1      -4.548  -0.865  -7.865  0.00  0.00    -0.356 N 
ATOM     14  H   UNL     1      -5.080  -0.466  -8.571  0.00  0.00    +0.142 HD
ATOM     15  H   UNL     1      -4.109  -1.717  -8.011  0.00  0.00    +0.142 HD
ENDBRANCH  10  13
ENDBRANCH   3   6
BRANCH   1  16
ATOM     16  C   UNL     1      -1.293  -0.775   0.010  0.00  0.00    +0.114 C 
BRANCH  16  22
ATOM     17  C   UNL     1      -0.017   1.378   0.010  0.00  0.00    +0.007 A 
ATOM     18  C   UNL     1       1.170   2.086   0.002  0.00  0.00    +0.038 A 
ATOM     19  C   UNL     1       2.379   1.410  -0.013  0.00  0.00    +0.123 A 
ATOM     20  C   UNL     1       2.396   0.026  -0.021  0.00  0.00    +0.038 A 
ATOM     21  C   UNL     1       1.208  -0.680  -0.013  0.00  0.00    +0.007 A 
ATOM     22  C   UNL     1       0.002  -0.004   0.002  0.00  0.00    -0.040 A 
ATOM     23  F   UNL     1       3.540   2.101  -0.021  0.00  0.00    -0.205 F 
ENDBRANCH  16  22
ENDBRANCH   1  16
TORSDOF 4
