REMARK  Name = ZINC66280434
REMARK  7 active torsions:
REMARK  status: ('A' for Active; 'I' for Inactive)
REMARK    1  A    between atoms: C_1  and  C_2
REMARK    2  A    between atoms: C_2  and  C_4
REMARK    3  A    between atoms: C_2  and  N_16
REMARK    4  A    between atoms: C_4  and  C_5
REMARK    5  A    between atoms: N_7  and  C_8
REMARK    6  A    between atoms: N_7  and  C_9
REMARK    7  A    between atoms: C_17  and  C_19
REMARK                            x       y       z     vdW  Elec       q    Type
REMARK                         _______ _______ _______ _____ _____    ______ ____
ROOT
ATOM      1  C   UNL     1      -0.019   1.526   0.010  0.00  0.00    +0.028 C 
ATOM      2  C   UNL     1       0.002  -0.004   0.002  0.00  0.00    +0.079 C 
ENDROOT
BRANCH   2   3
ATOM      3  N   UNL     1       0.711  -0.489   1.189  0.00  0.00    -0.312 N 
ATOM      4  C   UNL     1       0.051  -0.633   2.355  0.00  0.00    +0.216 C 
ATOM      5  O   UNL     1      -1.129  -0.361   2.423  0.00  0.00    -0.276 OA
ATOM      6  H   UNL     1       1.654  -0.707   1.135  0.00  0.00    +0.149 HD
BRANCH   4   7
ATOM      7  C   UNL     1       0.780  -1.133   3.576  0.00  0.00    +0.075 C 
ATOM      8  C   UNL     1       1.347  -2.526   3.298  0.00  0.00    +0.013 C 
ATOM      9  C   UNL     1       2.087  -3.033   4.537  0.00  0.00    +0.001 C 
ATOM     10  C   UNL     1       1.116  -3.104   5.717  0.00  0.00    +0.000 C 
ATOM     11  C   UNL     1       0.549  -1.711   5.996  0.00  0.00    +0.001 C 
ATOM     12  C   UNL     1      -0.191  -1.204   4.756  0.00  0.00    +0.013 C 
ENDBRANCH   4   7
ENDBRANCH   2   3
BRANCH   2  13
ATOM     13  C   UNL     1       0.718  -0.497  -1.257  0.00  0.00    +0.118 C 
BRANCH  13  14
ATOM     14  C   UNL     1       0.632  -2.000  -1.327  0.00  0.00    +0.217 C 
ATOM     15  O   UNL     1       0.054  -2.616  -0.457  0.00  0.00    -0.276 OA
ATOM     16  N   UNL     1       1.196  -2.660  -2.358  0.00  0.00    -0.301 N 
ATOM     17  C   UNL     1       1.894  -1.916  -3.410  0.00  0.00    +0.132 C 
BRANCH  16  18
ATOM     18  C   UNL     1       1.112  -4.121  -2.427  0.00  0.00    +0.076 C 
ATOM     19  C   UNL     1       2.537  -4.707  -2.351  0.00  0.00    +0.022 C 
ATOM     20  C   UNL     1       2.439  -6.144  -1.912  0.00  0.00    +0.002 C 
ATOM     21  C   UNL     1       2.408  -7.122  -3.101  0.00  0.00    +0.000 C 
ATOM     22  C   UNL     1       1.518  -6.629  -4.258  0.00  0.00    +0.000 C 
ATOM     23  C   UNL     1       0.230  -6.022  -3.775  0.00  0.00    +0.002 C 
ATOM     24  C   UNL     1       0.422  -4.496  -3.652  0.00  0.00    +0.022 C 
ENDBRANCH  16  18
ENDBRANCH  13  14
ENDBRANCH   2  13
TORSDOF 5
