REMARK  Name = ZINC06496397
REMARK  3 active torsions:
REMARK  status: ('A' for Active; 'I' for Inactive)
REMARK    1  A    between atoms: C_9  and  C_12
REMARK    2  A    between atoms: N_14  and  C_15
REMARK    3  A    between atoms: C_16  and  C_25
REMARK                            x       y       z     vdW  Elec       q    Type
REMARK                         _______ _______ _______ _____ _____    ______ ____
ROOT
ATOM      1  C   UNL     1      -1.161   3.668   0.009  0.00  0.00    +0.084 A 
ATOM      2  C   UNL     1      -1.257   2.285   0.020  0.00  0.00    +0.068 A 
ATOM      3  C   UNL     1      -0.019   1.519   0.010  0.00  0.00    -0.023 A 
ATOM      4  C   UNL     1       1.110   2.261   0.004  0.00  0.00    -0.004 A 
ATOM      5  S   UNL     1       0.549   3.943  -0.010  0.00  0.00    -0.077 S 
ATOM      6  C   UNL     1       2.525   1.775   0.012  0.00  0.00    +0.043 C 
ATOM      7  C   UNL     1       2.696   0.694  -1.064  0.00  0.00    +0.005 C 
ATOM      8  C   UNL     1       2.380  -0.662  -0.439  0.00  0.00    +0.001 C 
ATOM      9  C   UNL     1       1.297  -0.510   0.627  0.00  0.00    +0.005 C 
ATOM     10  C   UNL     1       0.002  -0.004   0.002  0.00  0.00    +0.037 C 
ENDROOT
BRANCH   2  11
ATOM     11  C   UNL     1      -2.562   1.617   0.042  0.00  0.00    +0.244 C 
ATOM     12  O   UNL     1      -3.090   1.348   1.105  0.00  0.00    -0.270 OA
ATOM     13  N   UNL     1      -3.177   1.300  -1.115  0.00  0.00    -0.325 N 
ATOM     14  H   UNL     1      -2.756   1.515  -1.962  0.00  0.00    +0.145 HD
ATOM     15  H   UNL     1      -4.040   0.858  -1.101  0.00  0.00    +0.145 HD
ENDBRANCH   2  11
BRANCH   1  18
ATOM     16  C   UNL     1      -1.894   5.920  -0.002  0.00  0.00    +0.262 C 
ATOM     17  O   UNL     1      -0.738   6.286  -0.017  0.00  0.00    -0.271 OA
ATOM     18  N   UNL     1      -2.184   4.604   0.012  0.00  0.00    -0.276 N 
ATOM     19  H   UNL     1      -3.109   4.311   0.023  0.00  0.00    +0.155 HD
BRANCH  16  28
ATOM     20  C   UNL     1      -4.974  11.418  -0.759  0.00  0.00    +0.004 A 
ATOM     21  C   UNL     1      -3.792  11.632  -0.075  0.00  0.00    +0.004 A 
ATOM     22  C   UNL     1      -2.952  10.572   0.207  0.00  0.00    +0.049 A 
ATOM     23  C   UNL     1      -3.293   9.289  -0.195  0.00  0.00    +0.163 A 
ATOM     24  C   UNL     1      -4.483   9.073  -0.880  0.00  0.00    +0.162 A 
ATOM     25  C   UNL     1      -5.321  10.142  -1.161  0.00  0.00    +0.049 A 
ATOM     26  O   UNL     1      -4.841   7.821  -1.277  0.00  0.00    -0.484 OA
ATOM     27  C   UNL     1      -3.804   6.834  -1.307  0.00  0.00    +0.283 C 
ATOM     28  C   UNL     1      -3.006   6.937   0.000  0.00  0.00    +0.296 C 
ATOM     29  O   UNL     1      -2.455   8.255   0.088  0.00  0.00    -0.473 OA
ENDBRANCH  16  28
ENDBRANCH   1  18
TORSDOF 3
