REMARK  Name = ZINC43544682
REMARK  4 active torsions:
REMARK  status: ('A' for Active; 'I' for Inactive)
REMARK    1  A    between atoms: C_1  and  C_2
REMARK    2  A    between atoms: C_5  and  O_9
REMARK    3  A    between atoms: O_9  and  C_10
REMARK    4  A    between atoms: C_10  and  C_12
REMARK                            x       y       z     vdW  Elec       q    Type
REMARK                         _______ _______ _______ _____ _____    ______ ____
ROOT
ATOM      1  C   UNL     1      -0.045  -4.757  -1.211  0.00  0.00    +0.346 C 
ATOM      2  O   UNL     1      -0.057  -4.110  -2.240  0.00  0.00    -0.244 OA
ENDROOT
BRANCH   1   3
ATOM      3  C   UNL     1      -0.142  -6.226  -1.263  0.00  0.00    +0.076 A 
ATOM      4  C   UNL     1      -0.134  -6.985  -0.067  0.00  0.00    +0.022 A 
ATOM      5  C   UNL     1      -0.225  -8.339  -0.145  0.00  0.00    +0.071 A 
ATOM      6  C   UNL     1      -0.324  -8.956  -1.406  0.00  0.00    +0.249 A 
ATOM      7  O   UNL     1      -0.405 -10.170  -1.481  0.00  0.00    -0.268 OA
ATOM      8  N   UNL     1      -0.329  -8.216  -2.530  0.00  0.00    -0.328 N 
ATOM      9  H   UNL     1      -0.398  -8.657  -3.391  0.00  0.00    +0.168 HD
ATOM     10  C   UNL     1      -0.246  -6.874  -2.478  0.00  0.00    +0.101 A 
ENDBRANCH   1   3
BRANCH   1  11
ATOM     11  O   UNL     1       0.057  -4.130  -0.022  0.00  0.00    -0.421 OA
BRANCH  11  16
ATOM     12  C   UNL     1      -0.064   1.502   0.013  0.00  0.00    +0.044 C 
ATOM     13  C   UNL     1      -0.032  -0.005   0.004  0.00  0.00    -0.049 A 
ATOM     14  C   UNL     1       1.179  -0.670   0.050  0.00  0.00    +0.007 A 
ATOM     15  C   UNL     1       1.212  -2.051   0.041  0.00  0.00    +0.048 A 
ATOM     16  C   UNL     1       0.027  -2.771  -0.013  0.00  0.00    +0.146 A 
ATOM     17  C   UNL     1      -1.188  -2.102  -0.058  0.00  0.00    +0.060 A 
ATOM     18  C   UNL     1      -1.214  -0.719  -0.044  0.00  0.00    +0.022 A 
ATOM     19 BR   UNL     1      -2.805  -3.079  -0.133  0.00  0.00    -0.046 Br
ENDBRANCH  11  16
ENDBRANCH   1  11
TORSDOF 3
