REMARK  Name = ZINC19496652
REMARK  10 active torsions:
REMARK  status: ('A' for Active; 'I' for Inactive)
REMARK    1  A    between atoms: C_1  and  C_2
REMARK    2  A    between atoms: C_12  and  C_15
REMARK    3  A    between atoms: C_15  and  N_16
REMARK    4  A    between atoms: C_19  and  N_22
REMARK    5  A    between atoms: N_22  and  C_23
REMARK    6  A    between atoms: N_22  and  C_24
REMARK    7  A    between atoms: C_24  and  C_25
REMARK    8  A    between atoms: C_25  and  N_26
REMARK    9  A    between atoms: N_26  and  C_27
REMARK   10  A    between atoms: N_26  and  C_28
REMARK                            x       y       z     vdW  Elec       q    Type
REMARK                         _______ _______ _______ _____ _____    ______ ____
ROOT
ATOM      1  N   UNL     1      -0.602  -0.752   4.742  0.00  0.00    +0.383 N 
ATOM      2  C   UNL     1      -0.385   0.692   4.896  0.00  0.00    -0.077 C 
ATOM      3  C   UNL     1      -0.904   1.422   3.655  0.00  0.00    +0.000 C 
ATOM      4  C   UNL     1      -0.165   0.904   2.418  0.00  0.00    +0.053 C 
ATOM      5  C   UNL     1      -0.367  -0.609   2.308  0.00  0.00    +0.000 C 
ATOM      6  C   UNL     1       0.136  -1.280   3.588  0.00  0.00    -0.077 C 
ATOM      7  H   UNL     1      -1.674  -0.912   4.556  0.00  0.00    -0.081 HD
ENDROOT
BRANCH   4   8
ATOM      8  N   UNL     1      -0.700   1.560   1.217  0.00  0.00    -0.304 NA
ATOM      9  C   UNL     1      -0.615   3.022   1.332  0.00  0.00    +0.105 C 
BRANCH   8  10
ATOM     10  C   UNL     1      -0.013   1.086   0.008  0.00  0.00    +0.066 C 
BRANCH  10  11
ATOM     11  C   UNL     1      -0.753   1.593  -1.232  0.00  0.00    -0.064 C 
BRANCH  11  12
ATOM     12  N   UNL     1      -0.065   1.119  -2.440  0.00  0.00    +0.377 N 
ATOM     13  C   UNL     1      -0.870   1.381  -3.641  0.00  0.00    -0.097 C 
ATOM     14  C   UNL     1       1.269   1.723  -2.558  0.00  0.00    -0.097 C 
ATOM     15  H   UNL     1       0.064   0.030  -2.351  0.00  0.00    -0.083 HD
ENDBRANCH  11  12
ENDBRANCH  10  11
ENDBRANCH   8  10
ENDBRANCH   4   8
BRANCH   1  16
ATOM     16  C   UNL     1      -0.242  -1.472   5.971  0.00  0.00    -0.040 C 
BRANCH  16  27
ATOM     17  C   UNL     1      -5.119  -8.551   6.649  0.00  0.00    +0.009 C 
ATOM     18  C   UNL     1      -3.689  -8.395   6.127  0.00  0.00    +0.003 C 
ATOM     19  C   UNL     1      -3.600  -8.954   4.705  0.00  0.00    +0.006 C 
ATOM     20  C   UNL     1      -2.182  -8.739   4.168  0.00  0.00    +0.019 C 
ATOM     21  C   UNL     1      -1.846  -7.247   4.210  0.00  0.00    +0.108 C 
ATOM     22  N   UNL     1      -1.945  -6.760   5.592  0.00  0.00    -0.299 N 
ATOM     23  C   UNL     1      -3.310  -6.912   6.112  0.00  0.00    +0.111 C 
ATOM     24  C   UNL     1      -1.522  -5.446   5.686  0.00  0.00    +0.218 A 
ATOM     25  N   UNL     1      -0.309  -5.125   5.261  0.00  0.00    -0.223 NA
ATOM     26  C   UNL     1       0.127  -3.878   5.336  0.00  0.00    +0.117 A 
ATOM     27  C   UNL     1      -0.703  -2.903   5.868  0.00  0.00    -0.028 A 
ATOM     28  C   UNL     1      -1.964  -3.275   6.308  0.00  0.00    +0.117 A 
ATOM     29  N   UNL     1      -2.339  -4.538   6.199  0.00  0.00    -0.223 NA
ENDBRANCH  16  27
ENDBRANCH   1  16
TORSDOF 6
