REMARK  Name = ZINC41546280
REMARK  5 active torsions:
REMARK  status: ('A' for Active; 'I' for Inactive)
REMARK    1  A    between atoms: C_1  and  C_2
REMARK    2  A    between atoms: C_2  and  C_13
REMARK    3  A    between atoms: N_15  and  C_16
REMARK    4  A    between atoms: C_16  and  C_17
REMARK    5  A    between atoms: C_17  and  N_23
REMARK                            x       y       z     vdW  Elec       q    Type
REMARK                         _______ _______ _______ _____ _____    ______ ____
ROOT
ATOM      1  C   UNL     1      -4.234  -0.058  -0.866  0.00  0.00    +0.266 C 
ATOM      2  O   UNL     1      -3.320  -0.600  -1.450  0.00  0.00    -0.271 OA
ATOM      3  N   UNL     1      -4.417  -0.276   0.452  0.00  0.00    -0.310 N 
ATOM      4  H   UNL     1      -5.148   0.157   0.918  0.00  0.00    +0.149 HD
ENDROOT
BRANCH   1   6
ATOM      5  C   UNL     1      -6.401   0.075  -2.063  0.00  0.00    +0.076 C 
ATOM      6  C   UNL     1      -5.167   0.860  -1.613  0.00  0.00    +0.257 C 
ATOM      7  C   UNL     1      -4.459   1.417  -2.822  0.00  0.00    +0.270 C 
ATOM      8  O   UNL     1      -3.560   0.793  -3.343  0.00  0.00    -0.271 OA
ATOM      9  N   UNL     1      -4.831   2.614  -3.323  0.00  0.00    -0.279 N 
ATOM     10  C   UNL     1      -5.785   3.377  -2.634  0.00  0.00    +0.076 A 
ATOM     11  C   UNL     1      -6.355   4.493  -3.226  0.00  0.00    +0.027 A 
ATOM     12  C   UNL     1      -7.303   5.227  -2.538  0.00  0.00    +0.002 A 
ATOM     13  C   UNL     1      -7.684   4.851  -1.263  0.00  0.00    +0.004 A 
ATOM     14  C   UNL     1      -7.115   3.741  -0.665  0.00  0.00    +0.047 A 
ATOM     15  C   UNL     1      -6.160   3.004  -1.345  0.00  0.00    +0.144 A 
ATOM     16  O   UNL     1      -5.571   1.930  -0.756  0.00  0.00    -0.466 OA
ATOM     17  H   UNL     1      -4.443   2.943  -4.149  0.00  0.00    +0.155 HD
ENDBRANCH   1   6
BRANCH   3  18
ATOM     18  C   UNL     1      -3.510  -1.168   1.178  0.00  0.00    +0.126 C 
BRANCH  18  19
ATOM     19  C   UNL     1      -3.863  -1.152   2.667  0.00  0.00    +0.038 C 
ATOM     20  C   UNL     1      -5.256  -1.754   2.867  0.00  0.00    +0.024 C 
ATOM     21  C   UNL     1      -5.267  -3.195   2.355  0.00  0.00    +0.002 C 
ATOM     22  C   UNL     1      -4.239  -4.020   3.132  0.00  0.00    +0.000 C 
ATOM     23  C   UNL     1      -2.846  -3.419   2.933  0.00  0.00    +0.002 C 
ATOM     24  C   UNL     1      -2.835  -1.977   3.444  0.00  0.00    +0.024 C 
BRANCH  19  25
ATOM     25  N   UNL     1      -3.852   0.232   3.158  0.00  0.00    -0.291 NA
ATOM     26  C   UNL     1      -4.222   0.290   4.580  0.00  0.00    +0.113 C 
ATOM     27  C   UNL     1      -4.256   1.752   5.034  0.00  0.00    +0.175 C 
ATOM     28  O   UNL     1      -2.985   2.354   4.780  0.00  0.00    -0.377 OA
ATOM     29  C   UNL     1      -2.594   2.317   3.405  0.00  0.00    +0.175 C 
ATOM     30  C   UNL     1      -2.542   0.861   2.934  0.00  0.00    +0.113 C 
ENDBRANCH  19  25
ENDBRANCH  18  19
ENDBRANCH   3  18
TORSDOF 4
