REMARK  Name = ZINC40728124
REMARK  6 active torsions:
REMARK  status: ('A' for Active; 'I' for Inactive)
REMARK    1  A    between atoms: C_1  and  N_2
REMARK    2  A    between atoms: N_2  and  C_3
REMARK    3  A    between atoms: N_2  and  N_4
REMARK    4  A    between atoms: C_6  and  N_24
REMARK    5  A    between atoms: C_7  and  N_11
REMARK    6  A    between atoms: N_14  and  C_17
REMARK                            x       y       z     vdW  Elec       q    Type
REMARK                         _______ _______ _______ _____ _____    ______ ____
ROOT
ATOM      1  N   UNL     1       0.078  -3.342  -1.113  0.00  0.00    -0.263 N 
ATOM      2  C   UNL     1      -0.976  -2.658  -1.707  0.00  0.00    +0.136 A 
ATOM      3  C   UNL     1      -2.233  -3.255  -1.821  0.00  0.00    +0.105 A 
ATOM      4  C   UNL     1      -3.257  -2.524  -2.425  0.00  0.00    +0.147 A 
ATOM      5  N   UNL     1      -2.998  -1.295  -2.866  0.00  0.00    -0.221 NA
ATOM      6  C   UNL     1      -1.797  -0.768  -2.739  0.00  0.00    +0.200 A 
ATOM      7  N   UNL     1      -0.804  -1.423  -2.170  0.00  0.00    -0.332 N 
ATOM      8  H   UNL     1      -0.055  -4.243  -0.778  0.00  0.00    +0.168 HD
ATOM      9  H   UNL     1       0.065  -0.999  -2.091  0.00  0.00    +0.168 HD
ENDROOT
BRANCH   4  10
ATOM     10  N   UNL     1      -4.527  -3.071  -2.565  0.00  0.00    -0.311 N 
ATOM     11  C   UNL     1      -5.573  -2.797  -1.569  0.00  0.00    +0.125 C 
ATOM     12  C   UNL     1      -6.796  -2.218  -2.289  0.00  0.00    +0.124 C 
ATOM     13  N   UNL     1      -7.118  -3.079  -3.436  0.00  0.00    -0.327 N 
ATOM     14  C   UNL     1      -6.072  -3.352  -4.432  0.00  0.00    +0.124 C 
ATOM     15  C   UNL     1      -4.850  -3.927  -3.714  0.00  0.00    +0.125 C 
BRANCH  13  16
ATOM     16  C   UNL     1      -8.394  -3.629  -3.576  0.00  0.00    +0.031 A 
ATOM     17  C   UNL     1      -9.409  -3.264  -2.700  0.00  0.00    +0.023 A 
ATOM     18  C   UNL     1     -10.671  -3.808  -2.841  0.00  0.00    +0.003 A 
ATOM     19  C   UNL     1     -10.924  -4.716  -3.853  0.00  0.00    +0.020 A 
ATOM     20  C   UNL     1      -9.916  -5.082  -4.727  0.00  0.00    +0.043 A 
ATOM     21  C   UNL     1      -8.653  -4.536  -4.595  0.00  0.00    +0.043 A 
ATOM     22 CL   UNL     1     -10.239  -6.223  -5.995  0.00  0.00    -0.083 Cl
ENDBRANCH  13  16
ENDBRANCH   4  10
BRANCH   1  24
ATOM     23  C   UNL     1       1.668  -2.554   0.408  0.00  0.00    +0.127 C 
ATOM     24  N   UNL     1       1.302  -2.747  -1.002  0.00  0.00    -0.234 NA
ATOM     25  C   UNL     1       2.331  -3.519  -1.712  0.00  0.00    +0.127 C 
ENDBRANCH   1  24
BRANCH   3  26
ATOM     26  N   UNL     1      -2.461  -4.555  -1.342  0.00  0.00    -0.353 N 
ATOM     27  H   UNL     1      -1.724  -5.079  -0.991  0.00  0.00    +0.143 HD
ATOM     28  H   UNL     1      -3.356  -4.930  -1.362  0.00  0.00    +0.143 HD
ENDBRANCH   3  26
TORSDOF 4
