REMARK  Name = ZINC34886005
REMARK  7 active torsions:
REMARK  status: ('A' for Active; 'I' for Inactive)
REMARK    1  A    between atoms: C_1  and  O_2
REMARK    2  A    between atoms: O_2  and  C_3
REMARK    3  A    between atoms: C_6  and  S_9
REMARK    4  A    between atoms: S_9  and  C_10
REMARK    5  A    between atoms: N_18  and  C_19
REMARK    6  A    between atoms: C_21  and  O_34
REMARK    7  A    between atoms: O_34  and  C_35
REMARK                            x       y       z     vdW  Elec       q    Type
REMARK                         _______ _______ _______ _____ _____    ______ ____
ROOT
ATOM      1  C   UNL     1       2.570  -4.333  -4.181  0.00  0.00    +0.178 A 
ATOM      2  N   UNL     1       1.967  -4.846  -3.137  0.00  0.00    -0.216 NA
ATOM      3  C   UNL     1       2.131  -6.192  -3.138  0.00  0.00    +0.148 A 
ATOM      4  C   UNL     1       1.720  -7.235  -2.292  0.00  0.00    +0.147 A 
ATOM      5  N   UNL     1       2.070  -8.479  -2.604  0.00  0.00    -0.219 NA
ATOM      6  C   UNL     1       2.788  -8.738  -3.681  0.00  0.00    +0.225 A 
ATOM      7  N   UNL     1       3.196  -7.792  -4.502  0.00  0.00    -0.216 NA
ATOM      8  C   UNL     1       2.893  -6.519  -4.271  0.00  0.00    +0.168 A 
ATOM      9  N   UNL     1       3.153  -5.331  -4.915  0.00  0.00    -0.274 N 
ATOM     10  N   UNL     1       0.967  -6.974  -1.159  0.00  0.00    -0.341 N 
ATOM     11  H   UNL     1       0.718  -6.061  -0.942  0.00  0.00    +0.144 HD
ATOM     12  H   UNL     1       0.688  -7.702  -0.583  0.00  0.00    +0.144 HD
ENDROOT
BRANCH   9  13
ATOM     13  C   UNL     1       3.915  -5.164  -6.154  0.00  0.00    +0.255 C 
ATOM     14  C   UNL     1       2.951  -4.863  -7.330  0.00  0.00    +0.199 C 
ATOM     15  C   UNL     1       3.389  -3.469  -7.797  0.00  0.00    +0.194 C 
ATOM     16  C   UNL     1       4.873  -3.458  -7.339  0.00  0.00    +0.179 C 
ATOM     17  O   UNL     1       4.812  -4.033  -6.033  0.00  0.00    -0.346 OA
ATOM     18  C   UNL     1       5.403  -2.040  -7.416  0.00  0.00    +0.206 C 
ATOM     19  O   UNL     1       5.443  -1.685  -8.819  0.00  0.00    -0.282 OA
ATOM     20  P   UNL     1       4.143  -1.927  -9.761  0.00  0.00    +0.505 P 
ATOM     21  O   UNL     1       3.181  -0.723  -9.652  0.00  0.00    -0.225 OA
ATOM     22  O   UNL     1       3.391  -3.290  -9.217  0.00  0.00    -0.276 OA
ATOM     23  O   UNL     1       4.583  -2.119 -11.229  0.00  0.00    -0.116 OA
BRANCH  14  24
ATOM     24  O   UNL     1       3.115  -5.824  -8.375  0.00  0.00    -0.373 OA
ATOM     25  C   UNL     1       2.250  -6.955  -8.265  0.00  0.00    +0.194 C 
ENDBRANCH  14  24
ENDBRANCH   9  13
BRANCH   1  26
ATOM     26  S   UNL     1       2.618  -2.618  -4.584  0.00  0.00    -0.052 S 
BRANCH  26  30
ATOM     27  C   UNL     1       0.615  -0.606  -1.052  0.00  0.00    +0.120 A 
ATOM     28  C   UNL     1       1.968  -0.906  -1.003  0.00  0.00    +0.047 A 
ATOM     29  C   UNL     1       2.579  -1.520  -2.079  0.00  0.00    +0.019 A 
ATOM     30  C   UNL     1       1.839  -1.836  -3.210  0.00  0.00    +0.016 A 
ATOM     31  C   UNL     1       0.483  -1.535  -3.259  0.00  0.00    +0.019 A 
ATOM     32  C   UNL     1      -0.127  -0.926  -2.180  0.00  0.00    +0.047 A 
BRANCH  27  34
ATOM     33  C   UNL     1       0.838   0.300   1.135  0.00  0.00    +0.277 C 
ATOM     34  O   UNL     1       0.014  -0.001   0.007  0.00  0.00    -0.495 OA
ENDBRANCH  27  34
ENDBRANCH  26  30
ENDBRANCH   1  26
TORSDOF 5
