REMARK  Name = ZINC28352021
REMARK  5 active torsions:
REMARK  status: ('A' for Active; 'I' for Inactive)
REMARK    1  A    between atoms: C_1  and  C_2
REMARK    2  A    between atoms: C_2  and  C_16
REMARK    3  A    between atoms: N_3  and  N_4
REMARK    4  A    between atoms: C_5  and  C_10
REMARK    5  A    between atoms: C_21  and  O_22
REMARK                            x       y       z     vdW  Elec       q    Type
REMARK                         _______ _______ _______ _____ _____    ______ ____
ROOT
ATOM      1  N   UNL     1       0.074   0.106   2.295  0.00  0.00    -0.188 N 
ATOM      2  C   UNL     1       0.295  -0.449   3.541  0.00  0.00    +0.184 A 
ATOM      3  N   UNL     1       0.225   0.498   4.434  0.00  0.00    -0.152 NA
ATOM      4  N   UNL     1      -0.048   1.702   3.771  0.00  0.00    -0.253 N 
ATOM      5  C   UNL     1      -0.130   1.429   2.452  0.00  0.00    +0.197 A 
ATOM      6  S   UNL     1      -0.440   2.560   1.205  0.00  0.00    -0.010 S 
ATOM      7  H   UNL     1      -0.155   2.573   4.184  0.00  0.00    +0.191 HD
ENDROOT
BRANCH   2   8
ATOM      8  C   UNL     1       0.566  -1.878   3.814  0.00  0.00    +0.021 A 
ATOM      9  C   UNL     1       0.620  -2.794   2.764  0.00  0.00    +0.011 A 
ATOM     10  C   UNL     1       0.872  -4.125   3.025  0.00  0.00    +0.001 A 
ATOM     11  C   UNL     1       1.072  -4.552   4.326  0.00  0.00    +0.000 A 
ATOM     12  C   UNL     1       1.019  -3.648   5.372  0.00  0.00    +0.001 A 
ATOM     13  C   UNL     1       0.773  -2.313   5.123  0.00  0.00    +0.011 A 
ENDBRANCH   2   8
BRANCH   1  16
ATOM     14  C   UNL     1      -2.322  -0.151   0.956  0.00  0.00    +0.068 C 
ATOM     15  C   UNL     1      -1.030  -0.680   0.389  0.00  0.00    +0.070 C 
ATOM     16  N   UNL     1       0.067  -0.586   1.077  0.00  0.00    -0.167 NA
BRANCH  15  17
ATOM     17  C   UNL     1      -1.012  -1.304  -0.946  0.00  0.00    +0.039 A 
ATOM     18  C   UNL     1      -2.189  -1.402  -1.691  0.00  0.00    +0.013 A 
ATOM     19  C   UNL     1      -2.165  -1.987  -2.940  0.00  0.00    +0.001 A 
ATOM     20  C   UNL     1      -0.979  -2.478  -3.458  0.00  0.00    +0.004 A 
ATOM     21  C   UNL     1       0.193  -2.387  -2.730  0.00  0.00    +0.046 A 
ATOM     22  C   UNL     1       0.188  -1.797  -1.477  0.00  0.00    +0.126 A 
BRANCH  22  23
ATOM     23  O   UNL     1       1.339  -1.702  -0.764  0.00  0.00    -0.506 OA
ATOM     24  H   UNL     1       1.511  -2.462  -0.191  0.00  0.00    +0.292 HD
ENDBRANCH  22  23
ENDBRANCH  15  17
ENDBRANCH   1  16
TORSDOF 4
