REMARK  Name = ZINC63406434
REMARK  4 active torsions:
REMARK  status: ('A' for Active; 'I' for Inactive)
REMARK    1  A    between atoms: C_1  and  N_2
REMARK    2  A    between atoms: C_3  and  C_5
REMARK    3  A    between atoms: C_8  and  N_11
REMARK    4  A    between atoms: C_18  and  C_19
REMARK                            x       y       z     vdW  Elec       q    Type
REMARK                         _______ _______ _______ _____ _____    ______ ____
ROOT
ATOM      1  N   UNL     1       3.690  -3.464  -1.174  0.00  0.00    -0.296 N 
ATOM      2  C   UNL     1       4.499  -4.333  -1.812  0.00  0.00    +0.303 C 
ATOM      3  O   UNL     1       4.026  -5.289  -2.394  0.00  0.00    -0.253 OA
ATOM      4  N   UNL     1       5.833  -4.141  -1.804  0.00  0.00    -0.282 N 
ATOM      5  C   UNL     1       6.532  -2.980  -1.223  0.00  0.00    +0.110 C 
ATOM      6  C   UNL     1       7.958  -3.493  -0.906  0.00  0.00    +0.021 C 
ATOM      7  C   UNL     1       8.223  -4.440  -2.106  0.00  0.00    +0.024 C 
ATOM      8  C   UNL     1       6.834  -5.059  -2.368  0.00  0.00    +0.081 C 
ATOM      9  H   UNL     1       4.068  -2.701  -0.709  0.00  0.00    +0.151 HD
ENDROOT
BRANCH   1  13
ATOM     10  C   UNL     1       1.326  -0.890  -1.268  0.00  0.00    +0.075 C 
ATOM     11  C   UNL     1       1.921  -1.497   0.005  0.00  0.00    +0.014 C 
ATOM     12  C   UNL     1       1.621  -2.997   0.043  0.00  0.00    +0.023 C 
ATOM     13  C   UNL     1       2.240  -3.672  -1.182  0.00  0.00    +0.074 C 
ATOM     14  C   UNL     1       1.645  -3.065  -2.454  0.00  0.00    +0.023 C 
ATOM     15  C   UNL     1       1.945  -1.565  -2.493  0.00  0.00    +0.014 C 
BRANCH  10  18
ATOM     16  C   UNL     1       1.459   2.826  -0.357  0.00  0.00    +0.128 C 
ATOM     17  N   UNL     1       1.172   1.390  -0.320  0.00  0.00    -0.318 N 
ATOM     18  C   UNL     1       1.622   0.587  -1.305  0.00  0.00    +0.216 C 
ATOM     19  O   UNL     1       2.265   1.054  -2.222  0.00  0.00    -0.276 OA
ATOM     20  H   UNL     1       0.658   1.017   0.413  0.00  0.00    +0.148 HD
ENDBRANCH  10  18
ENDBRANCH   1  13
BRANCH   8  21
ATOM     21  C   UNL     1       6.611  -5.210  -3.874  0.00  0.00    +0.010 C 
ATOM     22  C   UNL     1       7.691  -6.122  -4.461  0.00  0.00    +0.005 C 
ATOM     23  C   UNL     1       7.467  -6.273  -5.967  0.00  0.00    +0.000 C 
ATOM     24  C   UNL     1       7.542  -4.899  -6.634  0.00  0.00    +0.000 C 
ATOM     25  C   UNL     1       6.462  -3.987  -6.048  0.00  0.00    +0.000 C 
ATOM     26  C   UNL     1       6.686  -3.836  -4.542  0.00  0.00    +0.005 C 
ENDBRANCH   8  21
TORSDOF 3
