REMARK  Name = ZINC05290454
REMARK  2 active torsions:
REMARK  status: ('A' for Active; 'I' for Inactive)
REMARK    1  A    between atoms: C_6  and  N_10
REMARK    2  A    between atoms: C_7  and  C_8
REMARK                            x       y       z     vdW  Elec       q    Type
REMARK                         _______ _______ _______ _____ _____    ______ ____
ROOT
ATOM      1  C   UNL     1      -7.957   3.326   0.501  0.00  0.00    +0.010 C 
ATOM      2  C   UNL     1      -7.445   1.946   0.046  0.00  0.00    +0.037 C 
ATOM      3  C   UNL     1      -5.918   2.055   0.041  0.00  0.00    -0.018 A 
ATOM      4  C   UNL     1      -5.588   3.361   0.047  0.00  0.00    -0.004 A 
ATOM      5  S   UNL     1      -3.810   3.385   0.038  0.00  0.00    -0.073 S 
ATOM      6  C   UNL     1      -3.511   1.628   0.028  0.00  0.00    +0.120 A 
ATOM      7  C   UNL     1      -4.805   1.108   0.025  0.00  0.00    +0.088 A 
ATOM      8  C   UNL     1      -6.801   4.251   0.061  0.00  0.00    +0.043 C 
ENDROOT
BRANCH   6   9
ATOM      9  N   UNL     1      -2.325   0.964   0.018  0.00  0.00    -0.232 NA
ATOM     10  C   UNL     1      -1.203   1.633   0.017  0.00  0.00    +0.180 C 
ATOM     11  N   UNL     1      -0.011   0.966   0.007  0.00  0.00    -0.349 N 
ATOM     12  H   UNL     1       0.002  -0.004   0.002  0.00  0.00    +0.143 HD
ATOM     13  H   UNL     1       0.822   1.462   0.002  0.00  0.00    +0.143 HD
ENDBRANCH   6   9
BRANCH   7  14
ATOM     14  C   UNL     1      -5.035  -0.305   0.012  0.00  0.00    +0.102 C 
ATOM     15  N   UNL     1      -5.217  -1.427   0.001  0.00  0.00    -0.191 NA
ENDBRANCH   7  14
TORSDOF 2
