REMARK  Name = ZINC14937982
REMARK  10 active torsions:
REMARK  status: ('A' for Active; 'I' for Inactive)
REMARK    1  A    between atoms: C_1  and  C_2
REMARK    2  A    between atoms: C_2  and  C_3
REMARK    3  A    between atoms: C_3  and  N_4
REMARK    4  A    between atoms: N_4  and  C_5
REMARK    5  A    between atoms: C_5  and  N_7
REMARK    6  A    between atoms: N_7  and  N_8
REMARK    7  A    between atoms: C_9  and  C_11
REMARK    8  A    between atoms: C_11  and  C_12
REMARK    9  A    between atoms: C_12  and  C_13
REMARK   10  A    between atoms: C_15  and  C_18
REMARK                            x       y       z     vdW  Elec       q    Type
REMARK                         _______ _______ _______ _____ _____    ______ ____
ROOT
ATOM      1  C   UNL     1      -0.729   1.579   1.267  0.00  0.00    +0.107 C 
ENDROOT
BRANCH   1   3
ATOM      2  N   UNL     1      -0.453   1.393   3.718  0.00  0.00    -0.235 N 
ATOM      3  C   UNL     1       0.000   1.080   2.488  0.00  0.00    +0.230 C 
ATOM      4  O   UNL     1       0.994   0.397   2.363  0.00  0.00    -0.274 OA
ATOM      5  H   UNL     1      -1.248   1.939   3.817  0.00  0.00    +0.173 HD
BRANCH   2   6
ATOM      6  N   UNL     1       0.225   0.929   4.853  0.00  0.00    -0.246 N 
ATOM      7  H   UNL     1       1.020   0.382   4.753  0.00  0.00    +0.172 HD
BRANCH   6   8
ATOM      8  C   UNL     1      -0.229   1.241   6.083  0.00  0.00    +0.147 C 
ATOM      9  S   UNL     1       0.599   0.674   7.470  0.00  0.00    -0.017 S 
BRANCH   8  10
ATOM     10  N   UNL     1      -1.334   2.001   6.221  0.00  0.00    -0.325 N 
ATOM     11  H   UNL     1      -1.803   2.322   5.436  0.00  0.00    +0.148 HD
BRANCH  10  12
ATOM     12  C   UNL     1      -1.826   2.341   7.559  0.00  0.00    +0.103 C 
BRANCH  12  14
ATOM     13  C   UNL     1      -3.598   3.559   8.831  0.00  0.00    +0.005 C 
ATOM     14  C   UNL     1      -3.083   3.204   7.435  0.00  0.00    +0.015 C 
ENDBRANCH  12  14
ENDBRANCH  10  12
ENDBRANCH   8  10
ENDBRANCH   6   8
ENDBRANCH   2   6
ENDBRANCH   1   3
BRANCH   1  15
ATOM     15  C   UNL     1      -0.013   1.086   0.008  0.00  0.00    +0.108 C 
BRANCH  15  16
ATOM     16  C   UNL     1      -0.742   1.585  -1.213  0.00  0.00    +0.228 A 
ATOM     17  N   UNL     1      -0.521   2.711  -1.844  0.00  0.00    -0.191 NA
ATOM     18  C   UNL     1      -1.404   2.733  -2.868  0.00  0.00    +0.202 A 
ATOM     19  N   UNL     1      -2.102   1.629  -2.799  0.00  0.00    -0.056 NA
ATOM     20  O   UNL     1      -1.730   0.959  -1.858  0.00  0.00    -0.338 OA
BRANCH  18  21
ATOM     21  C   UNL     1      -1.554   3.808  -3.880  0.00  0.00    +0.023 A 
ATOM     22  C   UNL     1      -0.740   4.937  -3.825  0.00  0.00    +0.014 A 
ATOM     23  C   UNL     1      -0.879   5.932  -4.771  0.00  0.00    +0.039 A 
ATOM     24  C   UNL     1      -1.834   5.814  -5.768  0.00  0.00    +0.123 A 
ATOM     25  C   UNL     1      -2.650   4.695  -5.822  0.00  0.00    +0.039 A 
ATOM     26  C   UNL     1      -2.514   3.693  -4.884  0.00  0.00    +0.014 A 
ATOM     27  F   UNL     1      -1.971   6.793  -6.689  0.00  0.00    -0.205 F 
ENDBRANCH  18  21
ENDBRANCH  15  16
ENDBRANCH   1  15
TORSDOF 9
