REMARK  Name = ZINC31810176
REMARK  4 active torsions:
REMARK  status: ('A' for Active; 'I' for Inactive)
REMARK    1  A    between atoms: C_1  and  C_2
REMARK    2  A    between atoms: C_17  and  C_19
REMARK    3  A    between atoms: C_24  and  O_25
REMARK    4  A    between atoms: O_25  and  C_26
REMARK                            x       y       z     vdW  Elec       q    Type
REMARK                         _______ _______ _______ _____ _____    ______ ____
ROOT
ATOM      1  C   UNL     1      -0.018   1.503   0.010  0.00  0.00    +0.065 C 
ATOM      2  C   UNL     1       0.002  -0.004   0.002  0.00  0.00    +0.039 A 
ATOM      3  C   UNL     1       0.023  -0.801   1.081  0.00  0.00    +0.027 A 
ATOM      4  C   UNL     1       0.039  -2.141   0.631  0.00  0.00    +0.150 A 
ATOM      5  N   UNL     1       0.024  -2.134  -0.669  0.00  0.00    -0.158 NA
ATOM      6  H   UNL     1      -0.021  -0.493  -2.016  0.00  0.00    +0.189 HD
ATOM      7  N   UNL     1      -0.004  -0.796  -1.095  0.00  0.00    -0.280 N 
ATOM      8  N   UNL     1       0.070  -3.208   1.539  0.00  0.00    -0.284 N 
ATOM      9  C   UNL     1       0.371  -2.929   2.854  0.00  0.00    +0.115 A 
ATOM     10  C   UNL     1       0.371  -1.666   3.360  0.00  0.00    +0.067 A 
ATOM     11  C   UNL     1       0.702  -1.480   4.718  0.00  0.00    +0.260 A 
ATOM     12  N   UNL     1       1.007  -2.540   5.487  0.00  0.00    -0.275 N 
ATOM     13  C   UNL     1       0.997  -3.783   4.971  0.00  0.00    +0.328 A 
ATOM     14  N   UNL     1       0.685  -3.988   3.679  0.00  0.00    -0.295 N 
ATOM     15  O   UNL     1       1.272  -4.731   5.680  0.00  0.00    -0.247 OA
ATOM     16  O   UNL     1       0.711  -0.358   5.195  0.00  0.00    -0.267 OA
ATOM     17  C   UNL     1       0.029  -0.445   2.543  0.00  0.00    +0.096 C 
ATOM     18  H   UNL     1      -0.115  -4.116   1.250  0.00  0.00    +0.155 HD
ATOM     19  H   UNL     1       1.237  -2.409   6.420  0.00  0.00    +0.173 HD
ATOM     20  H   UNL     1       0.681  -4.891   3.325  0.00  0.00    +0.172 HD
ENDROOT
BRANCH  17  21
ATOM     21  C   UNL     1      -1.334   0.059   2.941  0.00  0.00    +0.007 A 
ATOM     22  C   UNL     1      -2.441  -0.757   2.805  0.00  0.00    +0.008 A 
ATOM     23  C   UNL     1      -3.691  -0.295   3.170  0.00  0.00    +0.001 A 
ATOM     24  C   UNL     1      -3.839   0.985   3.673  0.00  0.00    +0.004 A 
ATOM     25  C   UNL     1      -2.736   1.805   3.811  0.00  0.00    +0.046 A 
ATOM     26  C   UNL     1      -1.479   1.341   3.450  0.00  0.00    +0.131 A 
BRANCH  26  27
ATOM     27  O   UNL     1      -0.391   2.144   3.590  0.00  0.00    -0.434 OA
BRANCH  27  28
ATOM     28  C   UNL     1      -0.615   3.452   4.121  0.00  0.00    +0.541 C 
ATOM     29  F   UNL     1      -1.492   4.151   3.285  0.00  0.00    -0.166 F 
ATOM     30  F   UNL     1      -1.172   3.348   5.400  0.00  0.00    -0.166 F 
ENDBRANCH  27  28
ENDBRANCH  26  27
ENDBRANCH  17  21
TORSDOF 3
