REMARK  Name = ZINC61263001
REMARK  11 active torsions:
REMARK  status: ('A' for Active; 'I' for Inactive)
REMARK    1  A    between atoms: C_1  and  C_2
REMARK    2  A    between atoms: C_2  and  N_3
REMARK    3  A    between atoms: C_4  and  C_6
REMARK    4  A    between atoms: C_9  and  C_29
REMARK    5  A    between atoms: C_10  and  N_12
REMARK    6  A    between atoms: N_15  and  C_16
REMARK    7  A    between atoms: C_16  and  C_17
REMARK    8  A    between atoms: N_19  and  C_20
REMARK    9  A    between atoms: C_21  and  C_28
REMARK   10  A    between atoms: C_23  and  C_27
REMARK   11  A    between atoms: C_25  and  C_26
REMARK                            x       y       z     vdW  Elec       q    Type
REMARK                         _______ _______ _______ _____ _____    ______ ____
ROOT
ATOM      1  N   UNL     1       0.117  -5.506   4.199  0.00  0.00    -0.269 N 
ATOM      2  C   UNL     1       0.331  -6.431   3.243  0.00  0.00    +0.304 C 
ATOM      3  O   UNL     1       0.336  -6.105   2.072  0.00  0.00    -0.252 OA
ATOM      4  N   UNL     1       0.538  -7.718   3.585  0.00  0.00    -0.291 N 
ATOM      5  H   UNL     1       0.194  -5.749   5.135  0.00  0.00    +0.156 HD
ATOM      6  H   UNL     1       0.533  -7.979   4.520  0.00  0.00    +0.151 HD
ENDROOT
BRANCH   1  11
ATOM      7  C   UNL     1      -1.051  -2.618   2.228  0.00  0.00    +0.038 A 
ATOM      8  C   UNL     1      -0.869  -1.585   3.150  0.00  0.00    +0.013 A 
ATOM      9  C   UNL     1      -0.364  -1.862   4.405  0.00  0.00    +0.006 A 
ATOM     10  C   UNL     1      -0.037  -3.159   4.753  0.00  0.00    -0.029 A 
ATOM     11  C   UNL     1      -0.215  -4.194   3.842  0.00  0.00    +0.038 A 
ATOM     12  C   UNL     1      -0.727  -3.927   2.582  0.00  0.00    +0.036 A 
ATOM     13  C   UNL     1       0.514  -3.453   6.124  0.00  0.00    +0.045 C 
BRANCH   7  15
ATOM     14  N   UNL     1      -1.903  -1.058   0.544  0.00  0.00    -0.312 N 
ATOM     15  C   UNL     1      -1.591  -2.324   0.883  0.00  0.00    +0.244 C 
ATOM     16  O   UNL     1      -1.754  -3.225   0.084  0.00  0.00    -0.270 OA
ATOM     17  H   UNL     1      -1.774  -0.339   1.183  0.00  0.00    +0.149 HD
BRANCH  14  19
ATOM     18  C   UNL     1      -2.707   0.734  -0.913  0.00  0.00    +0.024 C 
ATOM     19  C   UNL     1      -2.439  -0.767  -0.788  0.00  0.00    +0.101 C 
ENDBRANCH  14  19
ENDBRANCH   7  15
ENDBRANCH   1  11
BRANCH   4  20
ATOM     20  C   UNL     1       0.769  -8.724   2.546  0.00  0.00    +0.202 C 
BRANCH  20  21
ATOM     21  C   UNL     1       0.971 -10.073   3.188  0.00  0.00    +0.234 C 
ATOM     22  O   UNL     1       0.926 -10.182   4.395  0.00  0.00    -0.274 OA
ATOM     23  N   UNL     1       1.202 -11.156   2.421  0.00  0.00    -0.284 N 
ATOM     24  H   UNL     1       1.319 -11.057   1.463  0.00  0.00    +0.155 HD
BRANCH  23  25
ATOM     25  C   UNL     1       1.273 -12.425   3.006  0.00  0.00    +0.039 A 
ATOM     26  C   UNL     1       0.431 -13.440   2.571  0.00  0.00    -0.029 A 
ATOM     27  C   UNL     1       0.503 -14.692   3.151  0.00  0.00    +0.008 A 
ATOM     28  C   UNL     1       1.413 -14.935   4.163  0.00  0.00    -0.050 A 
ATOM     29  C   UNL     1       2.253 -13.926   4.598  0.00  0.00    +0.008 A 
ATOM     30  C   UNL     1       2.190 -12.675   4.019  0.00  0.00    -0.029 A 
ATOM     31  C   UNL     1       3.111 -11.578   4.489  0.00  0.00    +0.045 C 
ATOM     32  C   UNL     1       1.490 -16.302   4.793  0.00  0.00    +0.044 C 
ATOM     33  C   UNL     1      -0.562 -13.176   1.468  0.00  0.00    +0.045 C 
ENDBRANCH  23  25
ENDBRANCH  20  21
ENDBRANCH   4  20
TORSDOF 6
