REMARK  Name = ZINC52399990
REMARK  4 active torsions:
REMARK  status: ('A' for Active; 'I' for Inactive)
REMARK    1  A    between atoms: C_8  and  C_10
REMARK    2  A    between atoms: C_17  and  C_19
REMARK    3  A    between atoms: C_22  and  N_28
REMARK    4  A    between atoms: C_23  and  N_25
REMARK                            x       y       z     vdW  Elec       q    Type
REMARK                         _______ _______ _______ _____ _____    ______ ____
ROOT
ATOM      1  C   UNL     1       2.821  -3.990   0.314  0.00  0.00    +0.132 C 
ATOM      2  C   UNL     1       2.905  -5.098  -0.741  0.00  0.00    +0.029 C 
ATOM      3  C   UNL     1       2.970  -6.458  -0.043  0.00  0.00    +0.004 C 
ATOM      4  C   UNL     1       4.225  -6.526   0.830  0.00  0.00    +0.019 C 
ATOM      5  C   UNL     1       4.156  -5.435   1.903  0.00  0.00    +0.109 C 
ATOM      6  N   UNL     1       3.946  -4.136   1.248  0.00  0.00    -0.288 N 
ATOM      7  C   UNL     1       4.771  -3.100   1.496  0.00  0.00    +0.247 C 
ATOM      8  O   UNL     1       4.525  -2.002   1.033  0.00  0.00    -0.270 OA
ENDROOT
BRANCH   1  16
ATOM      9  C   UNL     1       2.121   1.907  -1.331  0.00  0.00    +0.002 A 
ATOM     10  C   UNL     1       3.001   1.771  -2.395  0.00  0.00    +0.001 A 
ATOM     11  C   UNL     1       3.599   0.548  -2.632  0.00  0.00    +0.017 A 
ATOM     12  C   UNL     1       3.312  -0.513  -1.808  0.00  0.00    +0.039 A 
ATOM     13  C   UNL     1       2.420  -0.402  -0.718  0.00  0.00    +0.079 A 
ATOM     14  C   UNL     1       1.829   0.862  -0.508  0.00  0.00    +0.029 A 
ATOM     15  N   UNL     1       2.268  -1.552  -0.030  0.00  0.00    -0.242 NA
ATOM     16  C   UNL     1       2.894  -2.644  -0.359  0.00  0.00    +0.100 A 
ATOM     17  S   UNL     1       3.806  -2.213  -1.708  0.00  0.00    -0.070 S 
ENDBRANCH   1  16
BRANCH   7  18
ATOM     18  C   UNL     1       5.973  -3.297   2.328  0.00  0.00    +0.039 A 
ATOM     19  C   UNL     1       6.691  -4.494   2.251  0.00  0.00    +0.015 A 
ATOM     20  C   UNL     1       7.811  -4.675   3.028  0.00  0.00    +0.026 A 
ATOM     21  C   UNL     1       8.230  -3.667   3.892  0.00  0.00    +0.055 A 
ATOM     22  C   UNL     1       7.518  -2.474   3.973  0.00  0.00    +0.147 A 
ATOM     23  C   UNL     1       6.400  -2.284   3.193  0.00  0.00    +0.047 A 
BRANCH  22  24
ATOM     24  N   UNL     1       7.966  -1.405   4.893  0.00  0.00    +0.058 N 
ATOM     25  O   UNL     1       7.152  -0.741   5.491  0.00  0.00    -0.126 OA
ATOM     26  O   UNL     1       9.147  -1.196   5.047  0.00  0.00    -0.126 OA
ENDBRANCH  22  24
BRANCH  21  27
ATOM     27  N   UNL     1       9.363  -3.852   4.677  0.00  0.00    -0.356 N 
ATOM     28  H   UNL     1       9.823  -4.706   4.671  0.00  0.00    +0.142 HD
ATOM     29  H   UNL     1       9.694  -3.127   5.231  0.00  0.00    +0.142 HD
ENDBRANCH  21  27
ENDBRANCH   7  18
TORSDOF 4
