REMARK  Name = ZINC08961111
REMARK  5 active torsions:
REMARK  status: ('A' for Active; 'I' for Inactive)
REMARK    1  A    between atoms: C_1  and  C_2
REMARK    2  A    between atoms: C_2  and  N_3
REMARK    3  A    between atoms: C_14  and  N_19
REMARK    4  A    between atoms: N_19  and  S_20
REMARK    5  A    between atoms: S_20  and  C_23
REMARK                            x       y       z     vdW  Elec       q    Type
REMARK                         _______ _______ _______ _____ _____    ______ ____
ROOT
ATOM      1  N   UNL     1       2.072   0.012  -1.017  0.00  0.00    -0.264 N 
ATOM      2  C   UNL     1       1.023  -0.612  -1.691  0.00  0.00    +0.079 A 
ATOM      3  C   UNL     1       1.288  -1.264  -2.891  0.00  0.00    +0.027 A 
ATOM      4  C   UNL     1       0.286  -1.954  -3.545  0.00  0.00    +0.002 A 
ATOM      5  C   UNL     1      -0.987  -2.001  -3.009  0.00  0.00    +0.004 A 
ATOM      6  C   UNL     1      -1.263  -1.343  -1.825  0.00  0.00    +0.048 A 
ATOM      7  C   UNL     1      -0.265  -0.636  -1.169  0.00  0.00    +0.150 A 
ATOM      8  O   UNL     1      -0.572   0.027  -0.027  0.00  0.00    -0.453 OA
ATOM      9  C   UNL     1      -0.449   1.375  -0.015  0.00  0.00    +0.141 A 
ATOM     10  C   UNL     1      -1.575   2.163   0.183  0.00  0.00    +0.049 A 
ATOM     11  C   UNL     1      -1.471   3.539   0.167  0.00  0.00    +0.028 A 
ATOM     12  C   UNL     1      -0.239   4.147  -0.048  0.00  0.00    +0.049 A 
ATOM     13  C   UNL     1       0.893   3.373  -0.235  0.00  0.00    +0.041 A 
ATOM     14  C   UNL     1       0.797   1.979  -0.206  0.00  0.00    +0.081 A 
ATOM     15  C   UNL     1       2.009   1.160  -0.356  0.00  0.00    +0.255 C 
ATOM     16  O   UNL     1       3.029   1.566   0.165  0.00  0.00    -0.270 OA
ENDROOT
BRANCH   1  18
ATOM     17  C   UNL     1       3.524  -1.521   0.217  0.00  0.00    +0.025 C 
ATOM     18  C   UNL     1       3.370  -0.666  -1.042  0.00  0.00    +0.111 C 
ENDBRANCH   1  18
BRANCH  12  19
ATOM     19  N   UNL     1      -0.144   5.543  -0.076  0.00  0.00    -0.216 N 
ATOM     20  H   UNL     1      -0.200   6.050   0.749  0.00  0.00    +0.174 HD
BRANCH  19  21
ATOM     21  S   UNL     1       0.066   6.330  -1.518  0.00  0.00    +0.072 S 
ATOM     22  O   UNL     1       0.061   7.721  -1.226  0.00  0.00    -0.150 OA
ATOM     23  O   UNL     1       1.154   5.694  -2.174  0.00  0.00    -0.150 OA
BRANCH  21  24
ATOM     24  C   UNL     1      -1.366   6.016  -2.496  0.00  0.00    +0.110 A 
ATOM     25  C   UNL     1      -1.359   4.987  -3.420  0.00  0.00    +0.032 A 
ATOM     26  C   UNL     1      -2.483   4.735  -4.183  0.00  0.00    +0.042 A 
ATOM     27  C   UNL     1      -3.612   5.521  -4.032  0.00  0.00    +0.142 A 
ATOM     28  C   UNL     1      -3.617   6.555  -3.111  0.00  0.00    +0.078 A 
ATOM     29  C   UNL     1      -2.493   6.801  -2.343  0.00  0.00    +0.051 A 
ATOM     30 CL   UNL     1      -5.032   7.542  -2.919  0.00  0.00    -0.081 Cl
ATOM     31  F   UNL     1      -4.710   5.279  -4.783  0.00  0.00    -0.204 F 
ENDBRANCH  21  24
ENDBRANCH  19  21
ENDBRANCH  12  19
TORSDOF 4
