REMARK  Name = ZINC64165491
REMARK  6 active torsions:
REMARK  status: ('A' for Active; 'I' for Inactive)
REMARK    1  A    between atoms: C_2  and  C_3
REMARK    2  A    between atoms: C_3  and  N_4
REMARK    3  A    between atoms: C_11  and  O_32
REMARK    4  A    between atoms: C_13  and  C_16
REMARK    5  A    between atoms: C_16  and  N_18
REMARK    6  A    between atoms: C_22  and  C_25
REMARK                            x       y       z     vdW  Elec       q    Type
REMARK                         _______ _______ _______ _____ _____    ______ ____
ROOT
ATOM      1  N   UNL     1       1.367  -1.676   1.111  0.00  0.00    -0.263 N 
ATOM      2  C   UNL     1       1.877  -1.260   2.345  0.00  0.00    +0.043 A 
ATOM      3  C   UNL     1       2.660  -0.115   2.418  0.00  0.00    +0.024 A 
ATOM      4  C   UNL     1       3.168   0.296   3.635  0.00  0.00    +0.002 A 
ATOM      5  C   UNL     1       2.896  -0.433   4.778  0.00  0.00    +0.000 A 
ATOM      6  C   UNL     1       2.116  -1.571   4.708  0.00  0.00    +0.008 A 
ATOM      7  C   UNL     1       1.601  -1.988   3.493  0.00  0.00    +0.007 A 
ATOM      8  C   UNL     1       0.745  -3.223   3.435  0.00  0.00    +0.187 C 
ATOM      9  C   UNL     1       0.615  -3.728   2.028  0.00  0.00    +0.111 C 
ATOM     10  C   UNL     1       0.910  -2.959   0.958  0.00  0.00    +0.255 C 
ATOM     11  O   UNL     1       0.756  -3.466  -0.284  0.00  0.00    -0.270 OA
ENDROOT
BRANCH   9  12
ATOM     12  C   UNL     1       0.163  -5.050   1.817  0.00  0.00    +0.273 C 
ATOM     13  O   UNL     1       0.049  -5.483   0.679  0.00  0.00    -0.268 OA
BRANCH  12  14
ATOM     14  N   UNL     1      -0.142  -5.832   2.865  0.00  0.00    -0.152 NA
ATOM     15  C   UNL     1      -0.566  -7.074   2.667  0.00  0.00    +0.164 A 
ATOM     16  N   UNL     1      -0.755  -7.746   1.489  0.00  0.00    -0.335 N 
ATOM     17  H   UNL     1      -0.573  -7.313   0.640  0.00  0.00    +0.168 HD
ATOM     18  C   UNL     1      -1.205  -9.034   1.528  0.00  0.00    +0.055 A 
ATOM     19  C   UNL     1      -1.452  -9.618   2.721  0.00  0.00    +0.074 A 
ATOM     20  S   UNL     1      -1.033  -8.313   3.866  0.00  0.00    -0.060 S 
BRANCH  18  21
ATOM     21  C   UNL     1      -1.420  -9.787   0.273  0.00  0.00    -0.001 A 
ATOM     22  C   UNL     1      -1.159  -9.184  -0.958  0.00  0.00    +0.011 A 
ATOM     23  C   UNL     1      -1.361  -9.890  -2.126  0.00  0.00    +0.016 A 
ATOM     24  C   UNL     1      -1.822 -11.195  -2.077  0.00  0.00    +0.018 A 
ATOM     25  C   UNL     1      -2.084 -11.798  -0.859  0.00  0.00    +0.016 A 
ATOM     26  C   UNL     1      -1.879 -11.104   0.316  0.00  0.00    +0.011 A 
ATOM     27 BR   UNL     1      -2.097 -12.156  -3.682  0.00  0.00    -0.050 Br
ENDBRANCH  18  21
ENDBRANCH  12  14
ENDBRANCH   9  12
BRANCH   8  28
ATOM     28  O   UNL     1      -0.555  -2.916   3.943  0.00  0.00    -0.382 OA
ATOM     29  H   UNL     1      -1.167  -3.665   3.938  0.00  0.00    +0.211 HD
ENDBRANCH   8  28
BRANCH   1  30
ATOM     30  C   UNL     1       1.317  -0.740  -0.015  0.00  0.00    +0.140 C 
BRANCH  30  32
ATOM     31  C   UNL     1      -0.016   1.306   0.009  0.00  0.00    +0.005 C 
ATOM     32  C   UNL     1       0.002  -0.004   0.002  0.00  0.00    -0.015 C 
ENDBRANCH  30  32
ENDBRANCH   1  30
TORSDOF 6
