REMARK  Name = ZINC66671695
REMARK  6 active torsions:
REMARK  status: ('A' for Active; 'I' for Inactive)
REMARK    1  A    between atoms: C_1  and  C_2
REMARK    2  A    between atoms: C_7  and  C_8
REMARK    3  A    between atoms: C_8  and  C_11
REMARK    4  A    between atoms: C_11  and  N_12
REMARK    5  A    between atoms: N_15  and  C_16
REMARK    6  A    between atoms: C_20  and  C_22
REMARK                            x       y       z     vdW  Elec       q    Type
REMARK                         _______ _______ _______ _____ _____    ______ ____
ROOT
ATOM      1  N   UNL     1      -1.725   1.410   0.774  0.00  0.00    -0.298 N 
ATOM      2  C   UNL     1      -2.593   2.357   0.366  0.00  0.00    +0.304 C 
ATOM      3  O   UNL     1      -3.706   2.410   0.852  0.00  0.00    -0.253 OA
ATOM      4  N   UNL     1      -2.227   3.245  -0.579  0.00  0.00    -0.269 N 
ATOM      5  H   UNL     1      -0.830   1.379   0.401  0.00  0.00    +0.150 HD
ATOM      6  H   UNL     1      -1.390   3.128  -1.056  0.00  0.00    +0.156 HD
ENDROOT
BRANCH   4   7
ATOM      7  C   UNL     1      -3.054   4.334  -0.874  0.00  0.00    +0.035 A 
ATOM      8  C   UNL     1      -3.600   5.091   0.155  0.00  0.00    +0.023 A 
ATOM      9  C   UNL     1      -4.418   6.167  -0.132  0.00  0.00    +0.002 A 
ATOM     10  C   UNL     1      -4.697   6.497  -1.443  0.00  0.00    +0.010 A 
ATOM     11  C   UNL     1      -4.153   5.744  -2.482  0.00  0.00    +0.004 A 
ATOM     12  C   UNL     1      -3.324   4.663  -2.194  0.00  0.00    +0.033 A 
BRANCH  11  13
ATOM     13  C   UNL     1      -4.452   6.097  -3.892  0.00  0.00    +0.091 A 
ATOM     14  C   UNL     1      -5.286   7.202  -4.180  0.00  0.00    +0.035 A 
ATOM     15  C   UNL     1      -5.538   7.497  -5.487  0.00  0.00    +0.073 A 
ATOM     16  C   UNL     1      -4.950   6.677  -6.476  0.00  0.00    +0.265 A 
ATOM     17  O   UNL     1      -5.147   6.902  -7.659  0.00  0.00    -0.266 OA
ATOM     18  N   UNL     1      -4.170   5.646  -6.103  0.00  0.00    -0.243 N 
ATOM     19  H   UNL     1      -3.768   5.087  -6.786  0.00  0.00    +0.192 HD
ATOM     20  N   UNL     1      -3.938   5.385  -4.867  0.00  0.00    -0.171 NA
ENDBRANCH  11  13
ENDBRANCH   4   7
BRANCH   1  21
ATOM     21  C   UNL     1      -2.132   0.428   1.782  0.00  0.00    +0.117 C 
BRANCH  21  22
ATOM     22  C   UNL     1      -1.000  -0.578   2.001  0.00  0.00    +0.012 C 
ATOM     23  C   UNL     1       0.142  -0.165   2.930  0.00  0.00    +0.014 C 
ATOM     24  C   UNL     1      -0.876  -1.211   3.388  0.00  0.00    +0.014 C 
BRANCH  22  31
ATOM     25  C   UNL     1      -2.624  -2.879   1.356  0.00  0.00    +0.044 C 
ATOM     26  C   UNL     1      -1.431  -2.536   0.502  0.00  0.00    -0.047 A 
ATOM     27  C   UNL     1      -1.116  -3.319  -0.593  0.00  0.00    +0.003 A 
ATOM     28  C   UNL     1      -0.022  -3.005  -1.376  0.00  0.00    +0.000 A 
ATOM     29  C   UNL     1       0.758  -1.907  -1.065  0.00  0.00    +0.000 A 
ATOM     30  C   UNL     1       0.444  -1.123   0.030  0.00  0.00    +0.004 A 
ATOM     31  C   UNL     1      -0.654  -1.435   0.811  0.00  0.00    -0.037 A 
ENDBRANCH  22  31
ENDBRANCH  21  22
ENDBRANCH   1  21
TORSDOF 5
