REMARK  Name = ZINC67028456
REMARK  9 active torsions:
REMARK  status: ('A' for Active; 'I' for Inactive)
REMARK    1  A    between atoms: C_1  and  C_2
REMARK    2  A    between atoms: C_2  and  O_3
REMARK    3  A    between atoms: O_3  and  C_4
REMARK    4  A    between atoms: C_4  and  C_6
REMARK    5  A    between atoms: C_7  and  C_27
REMARK    6  A    between atoms: N_8  and  C_19
REMARK    7  A    between atoms: C_12  and  C_14
REMARK    8  A    between atoms: C_22  and  C_26
REMARK    9  A    between atoms: C_24  and  C_25
REMARK                            x       y       z     vdW  Elec       q    Type
REMARK                         _______ _______ _______ _____ _____    ______ ____
ROOT
ATOM      1  C   UNL     1       1.470  -2.352   2.430  0.00  0.00    +0.080 C 
ATOM      2  C   UNL     1       1.513  -3.685   2.645  0.00  0.00    +0.029 C 
ATOM      3  N   UNL     1       2.167  -4.203   3.728  0.00  0.00    -0.228 N 
ATOM      4  C   UNL     1       2.800  -3.455   4.641  0.00  0.00    +0.311 C 
ATOM      5  O   UNL     1       3.353  -4.007   5.572  0.00  0.00    -0.252 OA
ATOM      6  N   UNL     1       2.843  -2.111   4.561  0.00  0.00    -0.286 N 
ATOM      7  C   UNL     1       2.174  -1.454   3.426  0.00  0.00    +0.164 C 
ATOM      8  C   UNL     1       0.830  -4.615   1.676  0.00  0.00    +0.062 C 
ATOM      9  H   UNL     1       3.308  -1.589   5.233  0.00  0.00    +0.151 HD
ENDROOT
BRANCH   3  10
ATOM     10  C   UNL     1       2.174  -5.594   3.893  0.00  0.00    +0.045 A 
ATOM     11  C   UNL     1       3.193  -6.356   3.335  0.00  0.00    +0.024 A 
ATOM     12  C   UNL     1       3.197  -7.727   3.499  0.00  0.00    +0.005 A 
ATOM     13  C   UNL     1       2.189  -8.342   4.218  0.00  0.00    -0.050 A 
ATOM     14  C   UNL     1       1.173  -7.587   4.774  0.00  0.00    +0.008 A 
ATOM     15  C   UNL     1       1.166  -6.214   4.618  0.00  0.00    -0.028 A 
ATOM     16  C   UNL     1       0.061  -5.391   5.230  0.00  0.00    +0.046 C 
ATOM     17  C   UNL     1       2.197  -9.838   4.395  0.00  0.00    +0.044 C 
ENDBRANCH   3  10
BRANCH   7  18
ATOM     18  C   UNL     1       1.156  -0.493   3.986  0.00  0.00    +0.097 A 
ATOM     19  C   UNL     1       0.936  -0.359   5.319  0.00  0.00    +0.094 A 
ATOM     20  S   UNL     1      -0.267   0.813   5.358  0.00  0.00    +0.028 S 
ATOM     21  N   UNL     1      -0.435   1.073   3.770  0.00  0.00    -0.110 NA
ATOM     22  N   UNL     1       0.418   0.281   3.218  0.00  0.00    -0.144 NA
ENDBRANCH   7  18
BRANCH   1  23
ATOM     23  C   UNL     1       0.794  -1.814   1.309  0.00  0.00    +0.339 C 
ATOM     24  O   UNL     1       1.427  -1.435   0.342  0.00  0.00    -0.245 OA
BRANCH  23  25
ATOM     25  O   UNL     1      -0.552  -1.721   1.313  0.00  0.00    -0.462 OA
BRANCH  25  27
ATOM     26  C   UNL     1      -2.686  -1.144   0.337  0.00  0.00    +0.048 C 
ATOM     27  C   UNL     1      -1.168  -1.168   0.148  0.00  0.00    +0.229 C 
ENDBRANCH  25  27
ENDBRANCH  23  25
ENDBRANCH   1  23
TORSDOF 5
