REMARK  Name = ZINC39750488
REMARK  5 active torsions:
REMARK  status: ('A' for Active; 'I' for Inactive)
REMARK    1  A    between atoms: C_1  and  C_2
REMARK    2  A    between atoms: C_2  and  C_4
REMARK    3  A    between atoms: C_2  and  N_18
REMARK    4  A    between atoms: N_6  and  C_7
REMARK    5  A    between atoms: C_10  and  C_12
REMARK                            x       y       z     vdW  Elec       q    Type
REMARK                         _______ _______ _______ _____ _____    ______ ____
ROOT
ATOM      1  C   UNL     1      -1.412  -0.526   0.013  0.00  0.00    +0.235 C 
ATOM      2  O   UNL     1      -2.020  -0.848  -1.146  0.00  0.00    -0.273 OA
ATOM      3  N   UNL     1      -2.046  -0.665   1.141  0.00  0.00    -0.187 NA
ENDROOT
BRANCH   3   4
ATOM      4  C   UNL     1      -3.325  -1.137   1.151  0.00  0.00    +0.218 A 
ATOM      5  N   UNL     1      -4.104  -1.516   0.140  0.00  0.00    -0.121 NA
ATOM      6  N   UNL     1      -5.279  -1.934   0.329  0.00  0.00    -0.139 NA
ATOM      7  C   UNL     1      -5.807  -2.020   1.545  0.00  0.00    +0.134 A 
ATOM      8  S   UNL     1      -4.432  -1.430   2.527  0.00  0.00    -0.026 S 
BRANCH   7   9
ATOM      9  C   UNL     1      -7.147  -2.478   1.967  0.00  0.00    +0.009 A 
ATOM     10  C   UNL     1      -7.495  -2.478   3.319  0.00  0.00    +0.010 A 
ATOM     11  C   UNL     1      -8.747  -2.906   3.706  0.00  0.00    +0.001 A 
ATOM     12  C   UNL     1      -9.659  -3.335   2.758  0.00  0.00    +0.000 A 
ATOM     13  C   UNL     1      -9.321  -3.337   1.416  0.00  0.00    +0.001 A 
ATOM     14  C   UNL     1      -8.074  -2.906   1.015  0.00  0.00    +0.010 A 
ENDBRANCH   7   9
ENDBRANCH   3   4
BRANCH   1  16
ATOM     15  C   UNL     1      -0.019   1.526   0.010  0.00  0.00    -0.003 C 
ATOM     16  C   UNL     1       0.002  -0.004   0.002  0.00  0.00    +0.021 C 
BRANCH  16  17
ATOM     17  N   UNL     1       0.690  -0.478  -1.207  0.00  0.00    +0.387 N 
ATOM     18  C   UNL     1       2.111  -0.045  -1.190  0.00  0.00    -0.078 C 
ATOM     19  C   UNL     1       2.796  -1.044  -2.156  0.00  0.00    -0.020 C 
ATOM     20  C   UNL     1       2.062  -2.372  -1.859  0.00  0.00    -0.020 C 
ATOM     21  C   UNL     1       0.719  -1.956  -1.230  0.00  0.00    -0.078 C 
ATOM     22  H   UNL     1       0.227  -0.126  -2.031  0.00  0.00    -0.081 HD
ENDBRANCH  16  17
ENDBRANCH   1  16
TORSDOF 4
