REMARK  Name = ZINC36818938
REMARK  6 active torsions:
REMARK  status: ('A' for Active; 'I' for Inactive)
REMARK    1  A    between atoms: C_1  and  C_2
REMARK    2  A    between atoms: C_11  and  N_27
REMARK    3  A    between atoms: C_13  and  S_15
REMARK    4  A    between atoms: S_15  and  C_16
REMARK    5  A    between atoms: C_16  and  C_17
REMARK    6  A    between atoms: C_23  and  C_26
REMARK                            x       y       z     vdW  Elec       q    Type
REMARK                         _______ _______ _______ _____ _____    ______ ____
ROOT
ATOM      1  C   UNL     1      -1.968   0.756   0.315  0.00  0.00    +0.008 C 
ATOM      2  C   UNL     1      -1.497  -0.696   0.209  0.00  0.00    -0.009 C 
ATOM      3  C   UNL     1      -0.576  -0.850  -1.005  0.00  0.00    +0.008 C 
ATOM      4  C   UNL     1      -0.302  -2.332  -1.262  0.00  0.00    +0.037 C 
ATOM      5  C   UNL     1       0.203  -2.973   0.028  0.00  0.00    -0.025 A 
ATOM      6  C   UNL     1      -0.006  -2.373   1.221  0.00  0.00    -0.004 A 
ATOM      7  S   UNL     1       0.733  -3.450   2.423  0.00  0.00    -0.073 S 
ATOM      8  C   UNL     1       1.322  -4.702   1.329  0.00  0.00    +0.115 A 
ATOM      9  C   UNL     1       0.920  -4.238   0.051  0.00  0.00    +0.051 A 
ATOM     10  C   UNL     1       1.260  -5.053  -1.068  0.00  0.00    +0.129 A 
ATOM     11  N   UNL     1       1.924  -6.173  -0.793  0.00  0.00    -0.207 NA
ATOM     12  C   UNL     1       2.268  -6.546   0.430  0.00  0.00    +0.191 A 
ATOM     13  N   UNL     1       1.980  -5.828   1.519  0.00  0.00    -0.214 NA
ATOM     14  C   UNL     1      -0.716  -1.077   1.474  0.00  0.00    +0.046 C 
ENDROOT
BRANCH  10  15
ATOM     15  N   UNL     1       0.919  -4.701  -2.361  0.00  0.00    -0.343 N 
ATOM     16  H   UNL     1       1.360  -5.128  -3.112  0.00  0.00    +0.144 HD
ATOM     17  H   UNL     1       0.239  -4.027  -2.518  0.00  0.00    +0.144 HD
ENDBRANCH  10  15
BRANCH  12  18
ATOM     18  S   UNL     1       3.146  -8.060   0.631  0.00  0.00    -0.077 S 
BRANCH  18  19
ATOM     19  C   UNL     1       3.321  -8.694  -1.060  0.00  0.00    +0.173 C 
BRANCH  19  20
ATOM     20  C   UNL     1       4.065 -10.004  -1.031  0.00  0.00    +0.226 C 
ATOM     21  O   UNL     1       4.441 -10.465   0.026  0.00  0.00    -0.275 OA
ATOM     22  N   UNL     1       4.313 -10.664  -2.180  0.00  0.00    -0.301 N 
ATOM     23  C   UNL     1       3.869 -10.115  -3.469  0.00  0.00    +0.108 C 
ATOM     24  C   UNL     1       5.072 -10.043  -4.414  0.00  0.00    +0.019 C 
ATOM     25  C   UNL     1       5.724 -11.424  -4.510  0.00  0.00    +0.006 C 
ATOM     26  C   UNL     1       6.222 -11.852  -3.127  0.00  0.00    +0.003 C 
ATOM     27  C   UNL     1       5.037 -11.942  -2.168  0.00  0.00    +0.111 C 
ATOM     28  C   UNL     1       6.904 -13.218  -3.231  0.00  0.00    +0.009 C 
ENDBRANCH  19  20
ENDBRANCH  18  19
ENDBRANCH  12  18
TORSDOF 4
