REMARK  Name = ZINC01773203
REMARK  8 active torsions:
REMARK  status: ('A' for Active; 'I' for Inactive)
REMARK    1  A    between atoms: C_4  and  C_7
REMARK    2  A    between atoms: C_7  and  O_9
REMARK    3  A    between atoms: O_9  and  C_10
REMARK    4  A    between atoms: C_13  and  C_16
REMARK    5  A    between atoms: C_17  and  C_18
REMARK    6  A    between atoms: C_17  and  C_20
REMARK    7  A    between atoms: N_22  and  C_23
REMARK    8  A    between atoms: C_24  and  C_32
REMARK                            x       y       z     vdW  Elec       q    Type
REMARK                         _______ _______ _______ _____ _____    ______ ____
ROOT
ATOM      1  C   UNL     1      -0.005   1.080   0.016  0.00  0.00    +0.032 C 
ATOM      2  C   UNL     1      -1.133   1.867  -0.066  0.00  0.00    +0.114 C 
ENDROOT
BRANCH   1   6
ATOM      3  C   UNL     1       3.800   2.744  -0.798  0.00  0.00    +0.132 A 
ATOM      4  C   UNL     1       3.673   1.740   0.157  0.00  0.00    +0.047 A 
ATOM      5  C   UNL     1       2.443   1.198   0.425  0.00  0.00    +0.011 A 
ATOM      6  C   UNL     1       1.312   1.655  -0.266  0.00  0.00    -0.023 A 
ATOM      7  C   UNL     1       1.448   2.663  -1.232  0.00  0.00    +0.011 A 
ATOM      8  C   UNL     1       2.683   3.202  -1.487  0.00  0.00    +0.047 A 
BRANCH   3   9
ATOM      9  O   UNL     1       5.021   3.277  -1.059  0.00  0.00    -0.422 OA
BRANCH   9  10
ATOM     10  C   UNL     1       5.860   2.543  -1.815  0.00  0.00    +0.344 C 
ATOM     11  O   UNL     1       5.547   1.420  -2.156  0.00  0.00    -0.245 OA
BRANCH  10  15
ATOM     12  C   UNL     1       9.603   4.155  -3.010  0.00  0.00    +0.000 A 
ATOM     13  C   UNL     1       9.248   2.876  -3.399  0.00  0.00    +0.001 A 
ATOM     14  C   UNL     1       8.034   2.346  -3.015  0.00  0.00    +0.015 A 
ATOM     15  C   UNL     1       7.162   3.104  -2.231  0.00  0.00    +0.059 A 
ATOM     16  C   UNL     1       7.524   4.397  -1.847  0.00  0.00    +0.015 A 
ATOM     17  C   UNL     1       8.743   4.912  -2.233  0.00  0.00    +0.001 A 
ENDBRANCH  10  15
ENDBRANCH   9  10
ENDBRANCH   3   9
ENDBRANCH   1   6
BRANCH   2  18
ATOM     18  C   UNL     1      -2.466   1.256   0.042  0.00  0.00    +0.259 C 
ATOM     19  O   UNL     1      -2.573   0.055   0.205  0.00  0.00    -0.269 OA
ATOM     20  N   UNL     1      -3.569   2.026  -0.038  0.00  0.00    -0.275 N 
ATOM     21  H   UNL     1      -3.484   2.983  -0.167  0.00  0.00    +0.156 HD
BRANCH  20  22
ATOM     22  C   UNL     1      -4.825   1.450   0.064  0.00  0.00    +0.085 A 
ATOM     23  C   UNL     1      -6.065   2.070   0.013  0.00  0.00    +0.068 A 
ATOM     24  C   UNL     1      -7.243   1.229   0.142  0.00  0.00    -0.023 A 
ATOM     25  C   UNL     1      -6.994  -0.087   0.314  0.00  0.00    -0.004 A 
ATOM     26  S   UNL     1      -5.228  -0.220   0.296  0.00  0.00    -0.077 S 
ATOM     27  C   UNL     1      -8.001  -1.183   0.481  0.00  0.00    +0.043 C 
ATOM     28  C   UNL     1      -9.360  -0.546   0.805  0.00  0.00    +0.005 C 
ATOM     29  C   UNL     1      -9.620   0.592  -0.186  0.00  0.00    +0.005 C 
ATOM     30  C   UNL     1      -8.671   1.758   0.100  0.00  0.00    +0.037 C 
BRANCH  23  31
ATOM     31  C   UNL     1      -6.183   3.520  -0.170  0.00  0.00    +0.244 C 
ATOM     32  O   UNL     1      -6.256   3.988  -1.292  0.00  0.00    -0.270 OA
ATOM     33  N   UNL     1      -6.211   4.335   0.903  0.00  0.00    -0.325 N 
ATOM     34  H   UNL     1      -6.153   3.962   1.796  0.00  0.00    +0.145 HD
ATOM     35  H   UNL     1      -6.289   5.294   0.782  0.00  0.00    +0.145 HD
ENDBRANCH  23  31
ENDBRANCH  20  22
ENDBRANCH   2  18
BRANCH   2  36
ATOM     36  C   UNL     1      -1.007   3.281  -0.257  0.00  0.00    +0.104 C 
ATOM     37  N   UNL     1      -0.907   4.402  -0.409  0.00  0.00    -0.191 NA
ENDBRANCH   2  36
TORSDOF 8
