REMARK  Name = ZINC60372226
REMARK  8 active torsions:
REMARK  status: ('A' for Active; 'I' for Inactive)
REMARK    1  A    between atoms: C_1  and  C_2
REMARK    2  A    between atoms: N_9  and  C_10
REMARK    3  A    between atoms: C_10  and  C_12
REMARK    4  A    between atoms: C_10  and  C_14
REMARK    5  A    between atoms: C_12  and  O_13
REMARK    6  A    between atoms: C_14  and  C_16
REMARK    7  A    between atoms: C_14  and  O_25
REMARK    8  A    between atoms: C_19  and  N_22
REMARK                            x       y       z     vdW  Elec       q    Type
REMARK                         _______ _______ _______ _____ _____    ______ ____
ROOT
ATOM      1  C   UNK A   1      -0.210  -4.067  -2.361  0.00  0.00    +0.130 C 
ENDROOT
BRANCH   1  10
ATOM      2  C   UNK A   0       0.040   1.835  -0.781  0.00  0.00    +0.088 C 
ATOM      3  C   UNK A   0      -0.157   0.355  -0.574  0.00  0.00    +0.130 A 
ATOM      4  N   UNK A   0      -0.012  -0.460  -1.599  0.00  0.00    -0.218 NA
ATOM      5  C   UNK A   0      -0.178  -1.771  -1.453  0.00  0.00    +0.124 A 
ATOM      6  C   UNK A   0      -0.508  -2.275  -0.194  0.00  0.00    +0.083 A 
ATOM      7  C   UNK A   0      -0.650  -1.382   0.852  0.00  0.00    +0.135 A 
ATOM      8  N   UNK A   0      -0.464  -0.088   0.628  0.00  0.00    -0.221 NA
ATOM      9 CL   UNK A   0      -1.060  -1.949   2.441  0.00  0.00    -0.062 Cl
ATOM     10  N   UNK A   1      -0.025  -2.624  -2.534  0.00  0.00    -0.321 N 
ATOM     11  H   UNK A   1       0.205  -2.266  -3.406  0.00  0.00    +0.148 HD
ENDBRANCH   1  10
BRANCH   1  12
ATOM     12  C   UNK A   1       1.097  -4.694  -1.869  0.00  0.00    +0.181 C 
BRANCH  12  13
ATOM     13  O   UNK A   1       2.103  -4.547  -2.873  0.00  0.00    -0.393 OA
ATOM     14  H   UNK A   1       2.960  -4.922  -2.629  0.00  0.00    +0.209 HD
ENDBRANCH  12  13
ENDBRANCH   1  12
BRANCH   1  15
ATOM     15  C   UNK A   1      -0.604  -4.696  -3.699  0.00  0.00    +0.167 C 
BRANCH  15  16
ATOM     16  C   UNK A   1      -1.940  -4.150  -4.136  0.00  0.00    -0.017 A 
ATOM     17  C   UNK A   1      -3.105  -4.654  -3.588  0.00  0.00    +0.008 A 
ATOM     18  C   UNK A   1      -4.329  -4.153  -3.989  0.00  0.00    +0.033 A 
ATOM     19  C   UNK A   1      -4.389  -3.148  -4.936  0.00  0.00    +0.126 A 
ATOM     20  C   UNK A   1      -3.224  -2.644  -5.483  0.00  0.00    +0.033 A 
ATOM     21  C   UNK A   1      -1.999  -3.141  -5.079  0.00  0.00    +0.008 A 
BRANCH  19  22
ATOM     22  N   UNK A   1      -5.700  -2.613  -5.366  0.00  0.00    +0.056 N 
ATOM     23  O   UNK A   1      -6.719  -3.055  -4.888  0.00  0.00    -0.126 OA
ATOM     24  O   UNK A   1      -5.752  -1.734  -6.195  0.00  0.00    -0.126 OA
ENDBRANCH  19  22
ENDBRANCH  15  16
BRANCH  15  25
ATOM     25  O   UNK A   1      -0.695  -6.114  -3.551  0.00  0.00    -0.385 OA
ATOM     26  H   UNK A   1      -1.281  -6.398  -2.836  0.00  0.00    +0.210 HD
ENDBRANCH  15  25
ENDBRANCH   1  15
TORSDOF 7
