REMARK  Name = ZINC23084232
REMARK  11 active torsions:
REMARK  status: ('A' for Active; 'I' for Inactive)
REMARK    1  A    between atoms: C_1  and  C_2
REMARK    2  A    between atoms: C_6  and  C_30
REMARK    3  A    between atoms: C_7  and  N_8
REMARK    4  A    between atoms: C_9  and  C_11
REMARK    5  A    between atoms: C_11  and  N_12
REMARK    6  A    between atoms: C_13  and  C_15
REMARK    7  A    between atoms: C_15  and  O_16
REMARK    8  A    between atoms: O_16  and  C_17
REMARK    9  A    between atoms: C_17  and  C_19
REMARK   10  A    between atoms: C_22  and  C_26
REMARK   11  A    between atoms: C_24  and  N_25
REMARK                            x       y       z     vdW  Elec       q    Type
REMARK                         _______ _______ _______ _____ _____    ______ ____
ROOT
ATOM      1  N   UNL     1      -2.048  -2.826   0.365  0.00  0.00    -0.304 N 
ATOM      2  C   UNL     1      -2.115  -4.171   0.434  0.00  0.00    +0.251 C 
ATOM      3  O   UNL     1      -1.137  -4.841   0.182  0.00  0.00    -0.272 OA
ATOM      4  H   UNL     1      -2.936  -2.219   0.593  0.00  0.00    +0.149 HD
ENDROOT
BRANCH   1   5
ATOM      5  C   UNL     1      -0.793  -2.175  -0.016  0.00  0.00    +0.200 C 
BRANCH   5   7
ATOM      6  N   UNL     1       0.045   0.130  -0.340  0.00  0.00    -0.284 N 
ATOM      7  C   UNL     1      -0.983  -0.680  -0.018  0.00  0.00    +0.234 C 
ATOM      8  O   UNL     1      -2.062  -0.205   0.270  0.00  0.00    -0.274 OA
ATOM      9  H   UNL     1       0.995  -0.300  -0.690  0.00  0.00    +0.155 HD
BRANCH   6  16
ATOM     10  C   UNL     1       1.881   1.541   1.315  0.00  0.00    +0.045 C 
ATOM     11  C   UNL     1       0.778   2.245   0.568  0.00  0.00    -0.029 A 
ATOM     12  C   UNL     1       0.639   3.616   0.670  0.00  0.00    +0.005 A 
ATOM     13  C   UNL     1      -0.376   4.262  -0.011  0.00  0.00    +0.001 A 
ATOM     14  C   UNL     1      -1.252   3.540  -0.800  0.00  0.00    +0.005 A 
ATOM     15  C   UNL     1      -1.115   2.170  -0.912  0.00  0.00    -0.029 A 
ATOM     16  C   UNL     1      -0.097   1.518  -0.229  0.00  0.00    +0.039 A 
ATOM     17  C   UNL     1      -2.070   1.384  -1.773  0.00  0.00    +0.045 C 
ENDBRANCH   6  16
ENDBRANCH   5   7
ENDBRANCH   1   5
BRANCH   2  18
ATOM     18  C   UNL     1      -3.407  -4.841   0.826  0.00  0.00    +0.328 C 
BRANCH  18  19
ATOM     19  O   UNL     1      -3.224  -6.282   0.828  0.00  0.00    -0.452 OA
BRANCH  19  20
ATOM     20  C   UNL     1      -4.291  -7.034   1.159  0.00  0.00    +0.341 C 
ATOM     21  O   UNL     1      -5.347  -6.501   1.438  0.00  0.00    -0.245 OA
BRANCH  20  22
ATOM     22  C   UNL     1      -4.179  -8.502   1.182  0.00  0.00    +0.080 A 
ATOM     23  C   UNL     1      -2.939  -9.116   0.984  0.00  0.00    +0.017 A 
ATOM     24  C   UNL     1      -2.840 -10.490   1.007  0.00  0.00    +0.013 A 
ATOM     25  C   UNL     1      -3.966 -11.269   1.227  0.00  0.00    +0.057 A 
ATOM     26  C   UNL     1      -5.197 -10.679   1.424  0.00  0.00    +0.036 A 
ATOM     27  C   UNL     1      -5.316  -9.294   1.410  0.00  0.00    +0.039 A 
BRANCH  25  28
ATOM     28  C   UNL     1      -3.843 -12.771   1.250  0.00  0.00    +0.417 C 
ATOM     29  F   UNL     1      -2.510 -13.133   1.029  0.00  0.00    -0.166 F 
ATOM     30  F   UNL     1      -4.256 -13.253   2.497  0.00  0.00    -0.166 F 
ATOM     31  F   UNL     1      -4.648 -13.320   0.247  0.00  0.00    -0.166 F 
ENDBRANCH  25  28
BRANCH  27  32
ATOM     32  N   UNL     1      -6.553  -8.698   1.614  0.00  0.00    -0.357 N 
ATOM     33  H   UNL     1      -7.441  -9.322   1.792  0.00  0.00    +0.142 HD
ATOM     34  H   UNL     1      -6.644  -7.602   1.598  0.00  0.00    +0.142 HD
ENDBRANCH  27  32
ENDBRANCH  20  22
ENDBRANCH  19  20
ENDBRANCH  18  19
ENDBRANCH   2  18
TORSDOF 9
