REMARK  Name = ZINC13961486
REMARK  9 active torsions:
REMARK  status: ('A' for Active; 'I' for Inactive)
REMARK    1  A    between atoms: C_1  and  C_2
REMARK    2  A    between atoms: C_4  and  O_11
REMARK    3  A    between atoms: C_7  and  N_8
REMARK    4  A    between atoms: O_11  and  C_12
REMARK    5  A    between atoms: C_12  and  C_13
REMARK    6  A    between atoms: C_15  and  C_21
REMARK    7  A    between atoms: C_18  and  O_19
REMARK    8  A    between atoms: O_19  and  C_20
REMARK    9  A    between atoms: C_23  and  C_27
REMARK                            x       y       z     vdW  Elec       q    Type
REMARK                         _______ _______ _______ _____ _____    ______ ____
ROOT
ATOM      1  C   UNK     1      -1.916   3.404   2.274  0.00  0.00    +0.031 A 
ATOM      2  C   UNK     1      -2.266   4.741   2.253  0.00  0.00    +0.013 A 
ATOM      3  C   UNK     1      -2.031   5.500   1.122  0.00  0.00    -0.051 A 
ATOM      4  C   UNK     1      -1.446   4.925   0.009  0.00  0.00    +0.006 A 
ATOM      5  C   UNK     1      -1.089   3.591   0.027  0.00  0.00    +0.046 A 
ATOM      6  C   UNK     1      -1.329   2.825   1.159  0.00  0.00    +0.126 A 
ENDROOT
BRANCH   3   7
ATOM      7  C   UNK     1      -2.414   6.958   1.102  0.00  0.00    +0.020 C 
ATOM      8  C   UNK     1      -3.079   8.520  -0.731  0.00  0.00    +0.055 C 
ATOM      9  C   UNK     1      -1.901   9.351  -0.166  0.00  0.00    +0.063 C 
ATOM     10  S   UNK     1      -0.957   8.022   0.705  0.00  0.00    -0.173 S 
ATOM     11  N   UNK     1      -3.347   7.227  -0.054  0.00  0.00    +0.399 N 
ATOM     12  H   UNK     1      -4.311   7.237   0.299  0.00  0.00    -0.083 HD
ATOM     13  H   UNK     1      -3.242   6.471  -0.741  0.00  0.00    -0.083 HD
BRANCH   8  14
ATOM     14  C   UNK     1      -4.335   9.350  -0.644  0.00  0.00    +0.343 C 
ATOM     15  O   UNK     1      -5.172   9.094   0.189  0.00  0.00    -0.248 OA
ATOM     16  O   UNK     1      -4.523  10.372  -1.493  0.00  0.00    -0.248 OA
ENDBRANCH   8  14
ENDBRANCH   3   7
BRANCH   6  17
ATOM     17  O   UNK     1      -0.984   1.510   1.177  0.00  0.00    -0.495 OA
ATOM     18  C   UNK     1      -0.383   0.981  -0.006  0.00  0.00    +0.277 C 
ENDBRANCH   6  17
BRANCH   1  19
ATOM     19  C   UNK     1      -2.171   2.577   3.508  0.00  0.00    +0.268 C 
BRANCH  19  20
ATOM     20  O   UNK     1      -2.779   3.393   4.511  0.00  0.00    -0.487 OA
BRANCH  20  24
ATOM     21  C   UNK     1      -4.610   3.716   9.024  0.00  0.00    +0.046 C 
ATOM     22  C   UNK     1      -3.969   2.920   7.917  0.00  0.00    -0.017 A 
ATOM     23  C   UNK     1      -3.663   3.531   6.716  0.00  0.00    +0.051 A 
ATOM     24  C   UNK     1      -3.077   2.796   5.695  0.00  0.00    +0.121 A 
ATOM     25  C   UNK     1      -2.791   1.452   5.887  0.00  0.00    +0.048 A 
ATOM     26  C   UNK     1      -3.095   0.848   7.091  0.00  0.00    +0.036 A 
ATOM     27  C   UNK     1      -3.683   1.581   8.105  0.00  0.00    +0.129 A 
BRANCH  27  28
ATOM     28  N   UNK     1      -4.006   0.931   9.395  0.00  0.00    +0.057 N 
ATOM     29  O   UNK     1      -3.846   1.537  10.440  0.00  0.00    -0.126 OA
ATOM     30  O   UNK     1      -4.433  -0.210   9.412  0.00  0.00    -0.126 OA
ENDBRANCH  27  28
ENDBRANCH  20  24
ENDBRANCH  19  20
ENDBRANCH   1  19
TORSDOF 7
