REMARK  Name = ZINC16677695
REMARK  8 active torsions:
REMARK  status: ('A' for Active; 'I' for Inactive)
REMARK    1  A    between atoms: C_1  and  C_2
REMARK    2  A    between atoms: C_2  and  C_25
REMARK    3  A    between atoms: N_3  and  N_4
REMARK    4  A    between atoms: C_5  and  S_7
REMARK    5  A    between atoms: S_7  and  C_8
REMARK    6  A    between atoms: N_13  and  C_16
REMARK    7  A    between atoms: C_19  and  C_22
REMARK    8  A    between atoms: C_28  and  O_31
REMARK                            x       y       z     vdW  Elec       q    Type
REMARK                         _______ _______ _______ _____ _____    ______ ____
ROOT
ATOM      1  N   UNL     1      -0.361  -0.862   2.284  0.00  0.00    -0.217 N 
ATOM      2  C   UNL     1      -0.261  -1.320   3.578  0.00  0.00    +0.146 C 
ATOM      3  N   UNL     1      -0.291  -2.602   3.820  0.00  0.00    -0.380 N 
ATOM      4  H   UNL     1      -0.338   0.091   2.103  0.00  0.00    +0.176 HD
ATOM      5  H   UNL     1      -0.221  -2.925   4.732  0.00  0.00    +0.158 HD
ATOM      6  H   UNL     1      -0.385  -3.231   3.088  0.00  0.00    +0.158 HD
ENDROOT
BRANCH   1   9
ATOM      7  C   UNL     1      -0.556   0.142  -0.273  0.00  0.00    +0.068 C 
ATOM      8  C   UNL     1      -0.592  -1.339   0.007  0.00  0.00    +0.063 C 
ATOM      9  N   UNL     1      -0.497  -1.771   1.227  0.00  0.00    -0.185 NA
BRANCH   8  10
ATOM     10  C   UNL     1      -0.734  -2.296  -1.106  0.00  0.00    -0.002 A 
ATOM     11  C   UNL     1      -0.831  -1.833  -2.421  0.00  0.00    +0.013 A 
ATOM     12  C   UNL     1      -0.964  -2.732  -3.457  0.00  0.00    +0.046 A 
ATOM     13  C   UNL     1      -1.003  -4.095  -3.196  0.00  0.00    +0.117 A 
ATOM     14  C   UNL     1      -0.907  -4.560  -1.891  0.00  0.00    +0.046 A 
ATOM     15  C   UNL     1      -0.768  -3.669  -0.849  0.00  0.00    +0.013 A 
BRANCH  13  16
ATOM     16  O   UNL     1      -1.135  -4.977  -4.221  0.00  0.00    -0.507 OA
ATOM     17  H   UNL     1      -0.294  -5.272  -4.597  0.00  0.00    +0.292 HD
ENDBRANCH  13  16
ENDBRANCH   8  10
ENDBRANCH   1   9
BRANCH   2  18
ATOM     18  S   UNL     1      -0.090  -0.176   4.907  0.00  0.00    -0.078 S 
BRANCH  18  19
ATOM     19  C   UNL     1       0.003  -1.228   6.382  0.00  0.00    +0.149 C 
ATOM     20  C   UNL     1       0.084  -0.367   7.659  0.00  0.00    +0.120 C 
ATOM     21  C   UNL     1       1.417  -0.752   8.262  0.00  0.00    +0.228 C 
ATOM     22  O   UNL     1       1.880  -0.303   9.289  0.00  0.00    -0.275 OA
ATOM     23  N   UNL     1       2.005  -1.668   7.483  0.00  0.00    -0.209 N 
ATOM     24  C   UNL     1       1.296  -2.013   6.396  0.00  0.00    +0.240 C 
ATOM     25  O   UNL     1       1.636  -2.821   5.559  0.00  0.00    -0.274 OA
BRANCH  23  26
ATOM     26  C   UNL     1       3.253  -2.223   7.777  0.00  0.00    +0.044 A 
ATOM     27  C   UNL     1       3.400  -3.053   8.883  0.00  0.00    +0.025 A 
ATOM     28  C   UNL     1       4.628  -3.601   9.177  0.00  0.00    +0.017 A 
ATOM     29  C   UNL     1       5.729  -3.322   8.360  0.00  0.00    +0.063 A 
ATOM     30  C   UNL     1       5.577  -2.487   7.248  0.00  0.00    +0.017 A 
ATOM     31  C   UNL     1       4.345  -1.948   6.959  0.00  0.00    +0.025 A 
BRANCH  29  32
ATOM     32  C   UNL     1       7.045  -3.906   8.671  0.00  0.00    +0.387 C 
ATOM     33  O   UNL     1       7.177  -4.636   9.643  0.00  0.00    -0.241 OA
ATOM     34  O   UNL     1       8.007  -3.661   7.955  0.00  0.00    -0.241 OA
ENDBRANCH  29  32
ENDBRANCH  23  26
ENDBRANCH  18  19
ENDBRANCH   2  18
TORSDOF 7
