REMARK  Name = ZINC26180238
REMARK  7 active torsions:
REMARK  status: ('A' for Active; 'I' for Inactive)
REMARK    1  A    between atoms: C_1  and  C_2
REMARK    2  A    between atoms: C_2  and  C_26
REMARK    3  A    between atoms: C_4  and  N_10
REMARK    4  A    between atoms: C_6  and  C_8
REMARK    5  A    between atoms: C_6  and  C_9
REMARK    6  A    between atoms: N_13  and  C_14
REMARK    7  A    between atoms: C_14  and  C_15
REMARK                            x       y       z     vdW  Elec       q    Type
REMARK                         _______ _______ _______ _____ _____    ______ ____
ROOT
ATOM      1  N   UNL     1       2.848   3.828  -0.005  0.00  0.00    -0.297 N 
ATOM      2  C   UNL     1       1.584   3.361   0.005  0.00  0.00    +0.300 C 
ATOM      3  O   UNL     1       0.649   4.139   0.018  0.00  0.00    -0.253 OA
ATOM      4  N   UNL     1       1.356   2.033   0.000  0.00  0.00    -0.296 N 
ATOM      5  H   UNL     1       3.694   3.124  -0.017  0.00  0.00    +0.151 HD
ATOM      6  H   UNL     1       2.201   1.330  -0.012  0.00  0.00    +0.150 HD
ENDROOT
BRANCH   1  10
ATOM      7  C   UNL     1       3.967   7.725   1.711  0.00  0.00    -0.010 C 
ATOM      8  C   UNL     1       4.771   7.044   0.598  0.00  0.00    -0.072 C 
ATOM      9  C   UNL     1       4.477   5.546   0.599  0.00  0.00    +0.009 C 
ATOM     10  C   UNL     1       3.097   5.275   0.001  0.00  0.00    +0.072 C 
ATOM     11  C   UNL     1       3.080   5.794  -1.437  0.00  0.00    +0.009 C 
ATOM     12  C   UNL     1       3.359   7.295  -1.464  0.00  0.00    -0.072 C 
ATOM     13  N   UNL     1       4.521   7.668  -0.685  0.00  0.00    +0.386 N 
ATOM     14  C   UNL     1       2.112   8.056  -0.998  0.00  0.00    -0.010 C 
ATOM     15  C   UNL     1       3.616   7.693  -2.934  0.00  0.00    -0.010 C 
ATOM     16  C   UNL     1       6.268   7.225   0.939  0.00  0.00    -0.010 C 
ATOM     17  H   UNL     1       4.409   8.754  -0.549  0.00  0.00    -0.084 HD
ATOM     18  H   UNL     1       5.366   7.468  -1.360  0.00  0.00    -0.084 HD
ENDBRANCH   1  10
BRANCH   4  19
ATOM     19  C   UNL     1      -0.019   1.526   0.010  0.00  0.00    +0.153 C 
BRANCH  19  20
ATOM     20  C   UNL     1       0.002  -0.004   0.002  0.00  0.00    +0.228 C 
ATOM     21  C   UNL     1      -1.435  -0.541  -0.018  0.00  0.00    +0.275 C 
ATOM     22  O   UNL     1      -1.379  -1.972  -0.038  0.00  0.00    -0.485 OA
ATOM     23  C   UNL     1      -0.508  -2.536  -0.918  0.00  0.00    +0.162 A 
ATOM     24  C   UNL     1      -0.649  -3.875  -1.251  0.00  0.00    +0.049 A 
ATOM     25  C   UNL     1       0.230  -4.464  -2.140  0.00  0.00    +0.004 A 
ATOM     26  C   UNL     1       1.252  -3.720  -2.701  0.00  0.00    +0.004 A 
ATOM     27  C   UNL     1       1.397  -2.385  -2.374  0.00  0.00    +0.049 A 
ATOM     28  C   UNL     1       0.518  -1.788  -1.483  0.00  0.00    +0.163 A 
ATOM     29  O   UNL     1       0.671  -0.471  -1.174  0.00  0.00    -0.480 OA
ENDBRANCH  19  20
ENDBRANCH   4  19
TORSDOF 3
