REMARK  Name = ZINC53111683
REMARK  5 active torsions:
REMARK  status: ('A' for Active; 'I' for Inactive)
REMARK    1  A    between atoms: C_3  and  C_9
REMARK    2  A    between atoms: C_4  and  N_8
REMARK    3  A    between atoms: N_11  and  C_12
REMARK    4  A    between atoms: C_12  and  C_18
REMARK    5  A    between atoms: C_18  and  O_19
REMARK                            x       y       z     vdW  Elec       q    Type
REMARK                         _______ _______ _______ _____ _____    ______ ____
ROOT
ATOM      1  C   UNL     1       2.774   3.389   0.958  0.00  0.00    +0.246 C 
ATOM      2  O   UNL     1       2.838   4.223   1.841  0.00  0.00    -0.270 OA
ATOM      3  N   UNL     1       3.767   3.290   0.052  0.00  0.00    -0.304 N 
ATOM      4  H   UNL     1       3.684   2.675  -0.693  0.00  0.00    +0.150 HD
ENDROOT
BRANCH   1   7
ATOM      5  C   UNL     1       0.384   0.773  -0.272  0.00  0.00    +0.021 A 
ATOM      6  C   UNL     1       1.473   1.613  -0.203  0.00  0.00    +0.016 A 
ATOM      7  C   UNL     1       1.611   2.488   0.878  0.00  0.00    +0.057 A 
ATOM      8  C   UNL     1       0.636   2.502   1.889  0.00  0.00    +0.038 A 
ATOM      9  C   UNL     1      -0.455   1.647   1.803  0.00  0.00    +0.043 A 
ATOM     10  C   UNL     1      -0.578   0.788   0.728  0.00  0.00    +0.043 A 
ATOM     11 CL   UNL     1      -1.945  -0.277   0.627  0.00  0.00    -0.083 Cl
BRANCH   8  12
ATOM     12  N   UNL     1       0.763   3.366   2.969  0.00  0.00    -0.357 N 
ATOM     13  H   UNL     1       1.480   4.018   2.986  0.00  0.00    +0.142 HD
ATOM     14  H   UNL     1       0.134   3.317   3.705  0.00  0.00    +0.142 HD
ENDBRANCH   8  12
ENDBRANCH   1   7
BRANCH   3  15
ATOM     15  C   UNL     1       4.972   4.111   0.193  0.00  0.00    +0.058 C 
ATOM     16  C   UNL     1       5.970   3.746  -0.908  0.00  0.00    +0.028 C 
ATOM     17  C   UNL     1       5.335   4.003  -2.276  0.00  0.00    +0.002 C 
ATOM     18  C   UNL     1       4.962   5.481  -2.397  0.00  0.00    +0.000 C 
ATOM     19  C   UNL     1       3.964   5.846  -1.296  0.00  0.00    +0.002 C 
ATOM     20  C   UNL     1       4.599   5.590   0.073  0.00  0.00    +0.028 C 
BRANCH  15  21
ATOM     21  C   UNL     1       5.607   3.855   1.562  0.00  0.00    +0.181 C 
BRANCH  21  22
ATOM     22  O   UNL     1       5.908   2.464   1.694  0.00  0.00    -0.393 OA
ATOM     23  H   UNL     1       6.313   2.229   2.540  0.00  0.00    +0.209 HD
ENDBRANCH  21  22
ENDBRANCH  15  21
ENDBRANCH   3  15
TORSDOF 5
