REMARK  Name = ZINC40291919
REMARK  10 active torsions:
REMARK  status: ('A' for Active; 'I' for Inactive)
REMARK    1  A    between atoms: C_1  and  C_2
REMARK    2  A    between atoms: C_3  and  C_18
REMARK    3  A    between atoms: C_6  and  O_12
REMARK    4  A    between atoms: C_7  and  C_8
REMARK    5  A    between atoms: N_9  and  O_10
REMARK    6  A    between atoms: O_12  and  C_13
REMARK    7  A    between atoms: C_13  and  C_14
REMARK    8  A    between atoms: C_14  and  C_15
REMARK    9  A    between atoms: C_15  and  C_16
REMARK   10  A    between atoms: C_15  and  C_17
REMARK                            x       y       z     vdW  Elec       q    Type
REMARK                         _______ _______ _______ _____ _____    ______ ____
ROOT
ATOM      1  C   UNL     1      -0.018   1.503   0.010  0.00  0.00    +0.046 C 
ATOM      2  C   UNL     1       0.002  -0.004   0.002  0.00  0.00    -0.012 A 
ATOM      3  C   UNL     1       0.006  -0.712  -1.188  0.00  0.00    +0.064 A 
ATOM      4  N   UNL     1       0.024  -2.031  -1.174  0.00  0.00    -0.151 NA
ATOM      5  N   UNL     1       0.038  -2.710  -0.086  0.00  0.00    -0.111 NA
ATOM      6  C   UNL     1       0.036  -2.134   1.106  0.00  0.00    +0.245 A 
ATOM      7  C   UNL     1       0.023  -0.733   1.197  0.00  0.00    +0.085 A 
ATOM      8  C   UNL     1      -0.010   0.025  -2.502  0.00  0.00    +0.068 C 
ENDROOT
BRANCH   7   9
ATOM      9  C   UNL     1       0.027  -0.050   2.510  0.00  0.00    +0.168 C 
ATOM     10  N   UNL     1      -1.098   0.234   3.098  0.00  0.00    -0.071 NA
ATOM     11  N   UNL     1       1.227   0.285   3.113  0.00  0.00    -0.340 N 
ATOM     12  H   UNL     1       2.066   0.073   2.675  0.00  0.00    +0.144 HD
ATOM     13  H   UNL     1       1.229   0.733   3.974  0.00  0.00    +0.144 HD
BRANCH  10  14
ATOM     14  O   UNL     1      -1.095   0.887   4.354  0.00  0.00    -0.408 OA
ATOM     15  H   UNL     1      -1.978   1.057   4.712  0.00  0.00    +0.328 HD
ENDBRANCH  10  14
ENDBRANCH   7   9
BRANCH   6  16
ATOM     16  O   UNL     1       0.051  -2.891   2.230  0.00  0.00    -0.475 OA
BRANCH  16  17
ATOM     17  C   UNL     1       0.069  -4.309   2.057  0.00  0.00    +0.231 C 
BRANCH  17  18
ATOM     18  C   UNL     1       0.085  -4.990   3.427  0.00  0.00    +0.044 C 
BRANCH  18  19
ATOM     19  C   UNL     1       0.104  -6.509   3.241  0.00  0.00    -0.014 C 
ATOM     20  C   UNL     1       1.414  -6.924   2.568  0.00  0.00    +0.007 C 
ATOM     21  C   UNL     1      -0.006  -7.191   4.607  0.00  0.00    +0.007 C 
ENDBRANCH  18  19
ENDBRANCH  17  18
ENDBRANCH  16  17
ENDBRANCH   6  16
TORSDOF 6
