REMARK  Name = ZINC43212179
REMARK  12 active torsions:
REMARK  status: ('A' for Active; 'I' for Inactive)
REMARK    1  A    between atoms: C_1  and  C_2
REMARK    2  A    between atoms: C_2  and  C_3
REMARK    3  A    between atoms: C_2  and  C_4
REMARK    4  A    between atoms: C_2  and  N_5
REMARK    5  A    between atoms: C_10  and  C_30
REMARK    6  A    between atoms: C_13  and  C_18
REMARK    7  A    between atoms: C_13  and  C_27
REMARK    8  A    between atoms: C_18  and  O_19
REMARK    9  A    between atoms: O_19  and  C_20
REMARK   10  A    between atoms: C_20  and  C_21
REMARK   11  A    between atoms: C_32  and  O_37
REMARK   12  A    between atoms: C_34  and  O_36
REMARK                            x       y       z     vdW  Elec       q    Type
REMARK                         _______ _______ _______ _____ _____    ______ ____
ROOT
ATOM      1  N   UNL     1       0.688  -0.476  -1.203  0.00  0.00    -0.236 N 
ATOM      2  C   UNL     1       0.094  -1.267  -2.156  0.00  0.00    +0.225 C 
ATOM      3  O   UNL     1      -1.087  -1.510  -2.284  0.00  0.00    -0.275 OA
ATOM      4  C   UNL     1       1.184  -1.744  -2.970  0.00  0.00    +0.077 C 
ATOM      5  C   UNL     1       1.444  -2.302  -4.308  0.00  0.00    -0.026 C 
ATOM      6  N   UNL     1       2.946  -2.271  -4.376  0.00  0.00    +0.397 N 
ATOM      7  C   UNL     1       3.425  -1.236  -3.412  0.00  0.00    +0.072 C 
ATOM      8  C   UNL     1       2.155  -0.497  -2.962  0.00  0.00    +0.088 C 
ATOM      9  C   UNL     1       1.986  -0.173  -1.504  0.00  0.00    +0.225 C 
ATOM     10  O   UNL     1       2.828   0.265  -0.750  0.00  0.00    -0.275 OA
ATOM     11  H   UNL     1       3.318  -3.173  -4.122  0.00  0.00    -0.083 HD
ATOM     12  H   UNL     1       3.241  -2.030  -5.310  0.00  0.00    -0.083 HD
ENDROOT
BRANCH   5  13
ATOM     13  C   UNL     1       0.930  -3.715  -4.411  0.00  0.00    -0.054 A 
ATOM     14  C   UNL     1       1.668  -4.758  -3.884  0.00  0.00    +0.047 A 
ATOM     15  C   UNL     1       1.197  -6.060  -3.977  0.00  0.00    +0.121 A 
ATOM     16  C   UNL     1      -0.015  -6.314  -4.600  0.00  0.00    +0.090 A 
ATOM     17  C   UNL     1      -0.754  -5.266  -5.128  0.00  0.00    +0.121 A 
ATOM     18  C   UNL     1      -0.281  -3.966  -5.027  0.00  0.00    +0.047 A 
BRANCH  17  19
ATOM     19  O   UNL     1      -1.943  -5.512  -5.739  0.00  0.00    -0.507 OA
ATOM     20  H   UNL     1      -2.704  -5.488  -5.143  0.00  0.00    +0.292 HD
ENDBRANCH  17  19
BRANCH  15  21
ATOM     21  O   UNL     1       1.923  -7.085  -3.459  0.00  0.00    -0.507 OA
ATOM     22  H   UNL     1       1.717  -7.286  -2.536  0.00  0.00    +0.292 HD
ENDBRANCH  15  21
ENDBRANCH   5  13
BRANCH   1  24
ATOM     23  C   UNL     1      -0.019   1.526   0.010  0.00  0.00    +0.031 C 
ATOM     24  C   UNL     1       0.002  -0.004   0.002  0.00  0.00    +0.036 C 
ATOM     25  C   UNL     1       0.742  -0.511   1.242  0.00  0.00    +0.031 C 
ATOM     26  C   UNL     1      -1.433  -0.534   0.013  0.00  0.00    +0.031 C 
ENDBRANCH   1  24
BRANCH   7  27
ATOM     27  C   UNL     1       4.358  -0.273  -4.100  0.00  0.00    +0.348 C 
ATOM     28  O   UNL     1       4.636  -0.430  -5.277  0.00  0.00    -0.248 OA
ATOM     29  O   UNL     1       4.834   0.663  -3.481  0.00  0.00    -0.248 OA
ENDBRANCH   7  27
BRANCH   7  30
ATOM     30  C   UNL     1       4.129  -1.901  -2.227  0.00  0.00    +0.160 C 
BRANCH  30  31
ATOM     31  O   UNL     1       5.268  -2.626  -2.695  0.00  0.00    -0.376 OA
BRANCH  31  32
ATOM     32  C   UNL     1       6.000  -3.288  -1.662  0.00  0.00    +0.195 C 
BRANCH  32  33
ATOM     33  C   UNL     1       7.173  -4.017  -2.266  0.00  0.00    -0.022 A 
ATOM     34  C   UNL     1       7.030  -5.324  -2.692  0.00  0.00    +0.006 A 
ATOM     35  C   UNL     1       8.106  -5.992  -3.246  0.00  0.00    +0.000 A 
ATOM     36  C   UNL     1       9.325  -5.353  -3.374  0.00  0.00    +0.000 A 
ATOM     37  C   UNL     1       9.468  -4.045  -2.949  0.00  0.00    +0.000 A 
ATOM     38  C   UNL     1       8.390  -3.376  -2.399  0.00  0.00    +0.006 A 
ENDBRANCH  32  33
ENDBRANCH  31  32
ENDBRANCH  30  31
ENDBRANCH   7  30
TORSDOF 9
