REMARK  Name = ZINC20852270
REMARK  5 active torsions:
REMARK  status: ('A' for Active; 'I' for Inactive)
REMARK    1  A    between atoms: C_1  and  C_2
REMARK    2  A    between atoms: C_5  and  C_25
REMARK    3  A    between atoms: C_6  and  N_8
REMARK    4  A    between atoms: C_9  and  C_11
REMARK    5  A    between atoms: C_13  and  C_19
REMARK                            x       y       z     vdW  Elec       q    Type
REMARK                         _______ _______ _______ _____ _____    ______ ____
ROOT
ATOM      1  C   UNL     1      -0.785   3.395   0.016  0.00  0.00    +0.167 C 
ATOM      2  C   UNL     1       0.704   3.483   0.420  0.00  0.00    +0.057 C 
ATOM      3  C   UNL     1       1.230   2.096  -0.015  0.00  0.00    +0.106 C 
ATOM      4  C   UNL     1       0.004   1.211   0.002  0.00  0.00    +0.214 C 
ATOM      5  O   UNL     1       0.022  -0.002  -0.005  0.00  0.00    -0.276 OA
ATOM      6  N   UNL     1      -1.109   1.964   0.019  0.00  0.00    -0.303 N 
ATOM      7  H   UNL     1      -2.160   1.638   0.035  0.00  0.00    +0.149 HD
ENDROOT
BRANCH   2   8
ATOM      8  C   UNL     1       0.848   3.672   1.908  0.00  0.00    -0.042 A 
ATOM      9  C   UNL     1       0.231   2.795   2.780  0.00  0.00    +0.004 A 
ATOM     10  C   UNL     1       0.367   2.966   4.145  0.00  0.00    +0.000 A 
ATOM     11  C   UNL     1       1.113   4.020   4.638  0.00  0.00    +0.000 A 
ATOM     12  C   UNL     1       1.726   4.900   3.766  0.00  0.00    +0.000 A 
ATOM     13  C   UNL     1       1.594   4.726   2.401  0.00  0.00    +0.004 A 
ENDBRANCH   2   8
BRANCH   1  15
ATOM     14  N   UNL     1      -1.063   5.304  -1.533  0.00  0.00    -0.284 N 
ATOM     15  C   UNL     1      -0.986   3.969  -1.363  0.00  0.00    +0.238 C 
ATOM     16  O   UNL     1      -1.078   3.230  -2.320  0.00  0.00    -0.273 OA
ATOM     17  H   UNL     1      -1.070   5.970  -0.658  0.00  0.00    +0.155 HD
BRANCH  14  23
ATOM     18  C   UNL     1      -0.151   4.891  -6.346  0.00  0.00    +0.044 C 
ATOM     19  C   UNL     1      -0.699   5.663  -5.174  0.00  0.00    -0.049 A 
ATOM     20  C   UNL     1      -1.272   6.906  -5.373  0.00  0.00    +0.004 A 
ATOM     21  C   UNL     1      -1.774   7.619  -4.300  0.00  0.00    +0.005 A 
ATOM     22  C   UNL     1      -1.707   7.090  -3.025  0.00  0.00    -0.029 A 
ATOM     23  C   UNL     1      -1.133   5.842  -2.823  0.00  0.00    +0.037 A 
ATOM     24  C   UNL     1      -0.623   5.132  -3.902  0.00  0.00    +0.027 A 
ATOM     25  C   UNL     1      -2.255   7.867  -1.856  0.00  0.00    +0.045 C 
ENDBRANCH  14  23
ENDBRANCH   1  15
TORSDOF 3
