REMARK  Name = ZINC64405988
REMARK  13 active torsions:
REMARK  status: ('A' for Active; 'I' for Inactive)
REMARK    1  A    between atoms: C_1  and  C_2
REMARK    2  A    between atoms: C_2  and  C_3
REMARK    3  A    between atoms: C_2  and  C_4
REMARK    4  A    between atoms: C_4  and  N_5
REMARK    5  A    between atoms: C_6  and  C_8
REMARK    6  A    between atoms: C_8  and  N_9
REMARK    7  A    between atoms: C_10  and  C_12
REMARK    8  A    between atoms: C_15  and  N_18
REMARK    9  A    between atoms: C_19  and  O_21
REMARK   10  A    between atoms: O_21  and  C_22
REMARK   11  A    between atoms: C_22  and  C_23
REMARK   12  A    between atoms: C_22  and  C_24
REMARK   13  A    between atoms: C_22  and  C_25
REMARK                            x       y       z     vdW  Elec       q    Type
REMARK                         _______ _______ _______ _____ _____    ______ ____
ROOT
ATOM      1  C   UNL     1      -5.541  -6.540  -0.327  0.00  0.00    +0.037 A 
ATOM      2  C   UNL     1      -6.612  -5.647  -0.224  0.00  0.00    +0.015 A 
ATOM      3  C   UNL     1      -7.904  -6.122  -0.221  0.00  0.00    +0.024 A 
ATOM      4  C   UNL     1      -8.145  -7.489  -0.322  0.00  0.00    +0.036 A 
ATOM      5  C   UNL     1      -7.082  -8.380  -0.425  0.00  0.00    +0.024 A 
ATOM      6  C   UNL     1      -5.787  -7.912  -0.434  0.00  0.00    +0.015 A 
ENDROOT
BRANCH   1   8
ATOM      7  N   UNL     1      -3.919  -4.712  -0.228  0.00  0.00    -0.303 N 
ATOM      8  C   UNL     1      -4.155  -6.035  -0.331  0.00  0.00    +0.244 C 
ATOM      9  O   UNL     1      -3.225  -6.812  -0.426  0.00  0.00    -0.270 OA
ATOM     10  H   UNL     1      -4.661  -4.092  -0.152  0.00  0.00    +0.150 HD
BRANCH   7  11
ATOM     11  C   UNL     1      -2.543  -4.210  -0.231  0.00  0.00    +0.200 C 
BRANCH  11  13
ATOM     12  N   UNL     1      -1.394  -2.025  -0.087  0.00  0.00    -0.314 N 
ATOM     13  C   UNL     1      -2.555  -2.709  -0.106  0.00  0.00    +0.230 C 
ATOM     14  O   UNL     1      -3.610  -2.116  -0.022  0.00  0.00    -0.274 OA
ATOM     15  H   UNL     1      -0.550  -2.499  -0.154  0.00  0.00    +0.149 HD
BRANCH  12  16
ATOM     16  C   UNL     1      -1.406  -0.565   0.035  0.00  0.00    +0.107 C 
BRANCH  16  18
ATOM     17  C   UNL     1       0.017   1.489   0.034  0.00  0.00    +0.009 C 
ATOM     18  C   UNL     1       0.032  -0.041   0.032  0.00  0.00    -0.000 C 
ATOM     19  C   UNL     1       0.761  -0.545   1.278  0.00  0.00    +0.009 C 
ENDBRANCH  16  18
ENDBRANCH  12  16
ENDBRANCH  11  13
ENDBRANCH   7  11
ENDBRANCH   1   8
BRANCH   4  20
ATOM     20  N   UNL     1      -9.455  -7.966  -0.318  0.00  0.00    -0.251 N 
ATOM     21  C   UNL     1      -9.784  -9.037  -1.067  0.00  0.00    +0.405 C 
ATOM     22  O   UNL     1      -8.924  -9.638  -1.679  0.00  0.00    -0.226 OA
ATOM     23  H   UNL     1     -10.130  -7.527   0.223  0.00  0.00    +0.158 HD
BRANCH  21  24
ATOM     24  O   UNL     1     -11.066  -9.442  -1.136  0.00  0.00    -0.444 OA
BRANCH  24  25
ATOM     25  C   UNL     1     -11.343 -10.585  -1.948  0.00  0.00    +0.107 C 
ATOM     26  C   UNL     1     -10.560 -11.788  -1.419  0.00  0.00    +0.055 C 
ATOM     27  C   UNL     1     -12.841 -10.892  -1.903  0.00  0.00    +0.055 C 
ATOM     28  C   UNL     1     -10.924 -10.299  -3.391  0.00  0.00    +0.055 C 
ENDBRANCH  24  25
ENDBRANCH  21  24
ENDBRANCH   4  20
TORSDOF 8
