REMARK  Name = ZINC22682304
REMARK  13 active torsions:
REMARK  status: ('A' for Active; 'I' for Inactive)
REMARK    1  A    between atoms: C_1  and  C_2
REMARK    2  A    between atoms: C_2  and  C_3
REMARK    3  A    between atoms: C_3  and  C_4
REMARK    4  A    between atoms: C_3  and  C_5
REMARK    5  A    between atoms: C_3  and  C_6
REMARK    6  A    between atoms: N_14  and  C_18
REMARK    7  A    between atoms: C_18  and  C_19
REMARK    8  A    between atoms: N_21  and  C_22
REMARK    9  A    between atoms: C_22  and  C_23
REMARK   10  A    between atoms: C_23  and  C_25
REMARK   11  A    between atoms: C_23  and  N_32
REMARK   12  A    between atoms: N_32  and  C_33
REMARK   13  A    between atoms: N_32  and  C_34
REMARK                            x       y       z     vdW  Elec       q    Type
REMARK                         _______ _______ _______ _____ _____    ______ ____
ROOT
ATOM      1  C   UNL     1       0.826  -3.867  -0.004  0.00  0.00    -0.005 C 
ATOM      2  C   UNL     1       1.479  -4.624  -1.162  0.00  0.00    +0.006 C 
ATOM      3  C   UNL     1       1.099  -6.104  -1.081  0.00  0.00    +0.035 C 
ATOM      4  C   UNL     1      -0.418  -6.247  -1.150  0.00  0.00    +0.113 C 
ATOM      5  C   UNL     1      -1.085  -5.476  -0.016  0.00  0.00    +0.035 C 
ATOM      6  C   UNL     1      -0.695  -3.998  -0.101  0.00  0.00    +0.006 C 
ATOM      7  C   UNL     1      -0.813  -7.705  -1.099  0.00  0.00    +0.247 C 
ATOM      8  O   UNL     1      -0.601  -8.492  -0.202  0.00  0.00    -0.273 OA
ATOM      9  N   UNL     1      -1.450  -7.946  -2.263  0.00  0.00    -0.215 N 
ATOM     10  C   UNL     1      -1.509  -6.850  -3.030  0.00  0.00    +0.310 C 
ATOM     11  O   UNL     1      -2.035  -6.819  -4.125  0.00  0.00    -0.252 OA
ATOM     12  N   UNL     1      -0.920  -5.786  -2.451  0.00  0.00    -0.285 N 
ATOM     13  H   UNL     1      -0.770  -4.741  -2.760  0.00  0.00    +0.151 HD
ENDROOT
BRANCH   1  14
ATOM     14  C   UNL     1       1.216  -2.389  -0.076  0.00  0.00    -0.032 C 
ATOM     15  C   UNL     1       0.563  -1.632   1.082  0.00  0.00    +0.011 C 
ATOM     16  C   UNL     1       0.737  -1.800  -1.405  0.00  0.00    +0.011 C 
BRANCH  14  18
ATOM     17  C   UNL     1       3.127  -0.779  -0.052  0.00  0.00    +0.004 C 
ATOM     18  C   UNL     1       2.737  -2.257   0.021  0.00  0.00    +0.003 C 
ENDBRANCH  14  18
ENDBRANCH   1  14
BRANCH   9  19
ATOM     19  C   UNL     1      -2.009  -9.246  -2.642  0.00  0.00    +0.213 C 
BRANCH  19  20
ATOM     20  C   UNL     1      -3.437  -9.337  -2.168  0.00  0.00    +0.231 C 
ATOM     21  O   UNL     1      -3.938  -8.406  -1.573  0.00  0.00    -0.274 OA
ATOM     22  N   UNL     1      -4.157 -10.451  -2.406  0.00  0.00    -0.315 N 
ATOM     23  H   UNL     1      -3.702 -11.295  -2.946  0.00  0.00    +0.149 HD
BRANCH  22  24
ATOM     24  C   UNL     1      -5.545 -10.539  -1.946  0.00  0.00    +0.093 C 
BRANCH  24  25
ATOM     25  C   UNL     1      -6.169 -11.840  -2.453  0.00  0.00    -0.021 C 
BRANCH  25  26
ATOM     26  C   UNL     1      -6.213 -11.823  -3.959  0.00  0.00    -0.057 A 
ATOM     27  C   UNL     1      -5.253 -12.501  -4.686  0.00  0.00    +0.002 A 
ATOM     28  C   UNL     1      -5.293 -12.486  -6.068  0.00  0.00    +0.003 A 
ATOM     29  C   UNL     1      -6.292 -11.793  -6.724  0.00  0.00    +0.038 A 
ATOM     30  C   UNL     1      -7.254 -11.113  -5.997  0.00  0.00    +0.124 A 
ATOM     31  C   UNL     1      -7.217 -11.133  -4.612  0.00  0.00    +0.040 A 
ATOM     32  F   UNL     1      -8.232 -10.435  -6.637  0.00  0.00    -0.205 F 
ENDBRANCH  25  26
BRANCH  25  33
ATOM     33  N   UNL     1      -7.534 -11.967  -1.924  0.00  0.00    +0.382 N 
ATOM     34  C   UNL     1      -8.148 -13.232  -2.349  0.00  0.00    -0.096 C 
ATOM     35  C   UNL     1      -7.545 -11.842  -0.461  0.00  0.00    -0.096 C 
ATOM     36  H   UNL     1      -8.135 -11.144  -2.339  0.00  0.00    -0.082 HD
ENDBRANCH  25  33
ENDBRANCH  24  25
ENDBRANCH  22  24
ENDBRANCH  19  20
ENDBRANCH   9  19
TORSDOF 8
