REMARK  Name = ZINC20479776
REMARK  3 active torsions:
REMARK  status: ('A' for Active; 'I' for Inactive)
REMARK    1  A    between atoms: C_3  and  C_6
REMARK    2  A    between atoms: C_12  and  C_27
REMARK    3  A    between atoms: C_13  and  C_22
REMARK                            x       y       z     vdW  Elec       q    Type
REMARK                         _______ _______ _______ _____ _____    ______ ____
ROOT
ATOM      1  C   UNL     1      -1.078  -0.837   0.008  0.00  0.00    +0.048 C 
ATOM      2  C   UNL     1       0.003  -0.005   0.019  0.00  0.00    +0.138 A 
ATOM      3  C   UNL     1       1.352  -0.360  -0.239  0.00  0.00    +0.363 A 
ATOM      4  O   UNL     1       1.764  -1.472  -0.513  0.00  0.00    -0.243 OA
ATOM      5  O   UNL     1       2.093   0.758  -0.124  0.00  0.00    -0.403 OA
ATOM      6  C   UNL     1       1.295   1.805   0.191  0.00  0.00    +0.227 A 
ATOM      7  C   UNL     1       1.628   3.116   0.400  0.00  0.00    +0.104 C 
ATOM      8  C   UNL     1       0.523   4.092   0.745  0.00  0.00    +0.125 C 
ATOM      9  C   UNL     1      -0.878   3.533   0.832  0.00  0.00    +0.120 A 
ATOM     10  C   UNL     1      -1.064   2.220   0.596  0.00  0.00    +0.235 A 
ATOM     11  O   UNL     1      -2.390   1.984   0.729  0.00  0.00    -0.408 OA
ATOM     12  C   UNL     1      -2.987   3.148   1.036  0.00  0.00    +0.287 A 
ATOM     13  N   UNL     1      -2.073   4.085   1.105  0.00  0.00    -0.197 NA
ATOM     14  N   UNL     1      -4.342   3.327   1.253  0.00  0.00    -0.313 N 
ATOM     15  N   UNL     1       0.003   1.375   0.288  0.00  0.00    -0.241 N 
ATOM     16  H   UNL     1      -4.733   4.325   1.499  0.00  0.00    +0.147 HD
ATOM     17  H   UNL     1      -5.029   2.470   1.178  0.00  0.00    +0.147 HD
ENDROOT
BRANCH   1  20
ATOM     18  C   UNL     1      -1.273  -4.480  -0.711  0.00  0.00    +0.008 A 
ATOM     19  C   UNL     1      -1.694  -3.174  -0.750  0.00  0.00    +0.015 A 
ATOM     20  C   UNL     1      -0.894  -2.234  -0.108  0.00  0.00    +0.014 A 
ATOM     21  S   UNL     1       0.421  -3.253   0.537  0.00  0.00    -0.097 S 
ATOM     22  C   UNL     1      -0.125  -4.789  -0.053  0.00  0.00    +0.046 A 
ENDBRANCH   1  20
BRANCH   8  23
ATOM     23  C   UNL     1       0.856   4.721   2.073  0.00  0.00    +0.004 A 
ATOM     24  C   UNL     1       1.062   6.028   2.371  0.00  0.00    +0.012 A 
ATOM     25  C   UNL     1       1.355   6.380   3.675  0.00  0.00    +0.008 A 
ATOM     26  C   UNL     1       1.439   5.407   4.615  0.00  0.00    +0.045 A 
ATOM     27  S   UNL     1       1.089   3.939   3.661  0.00  0.00    -0.101 S 
ENDBRANCH   8  23
BRANCH   7  28
ATOM     28  C   UNL     1       2.987   3.553   0.296  0.00  0.00    +0.101 C 
ATOM     29  N   UNL     1       4.066   3.900   0.213  0.00  0.00    -0.191 NA
ENDBRANCH   7  28
TORSDOF 3
