REMARK  Name = ZINC64534955
REMARK  9 active torsions:
REMARK  status: ('A' for Active; 'I' for Inactive)
REMARK    1  A    between atoms: C_1  and  N_2
REMARK    2  A    between atoms: N_2  and  S_3
REMARK    3  A    between atoms: S_3  and  C_6
REMARK    4  A    between atoms: C_6  and  C_7
REMARK    5  A    between atoms: C_11  and  C_13
REMARK    6  A    between atoms: C_13  and  N_14
REMARK    7  A    between atoms: C_15  and  C_17
REMARK    8  A    between atoms: C_21  and  N_24
REMARK    9  A    between atoms: C_22  and  N_23
REMARK                            x       y       z     vdW  Elec       q    Type
REMARK                         _______ _______ _______ _____ _____    ______ ____
ROOT
ATOM      1  N   UNL     1      -7.935  -1.792   0.485  0.00  0.00    -0.307 N 
ATOM      2  C   UNL     1      -8.912  -1.181   1.184  0.00  0.00    +0.246 C 
ATOM      3  O   UNL     1      -9.838  -0.651   0.600  0.00  0.00    -0.270 OA
ATOM      4  H   UNL     1      -7.197  -2.215   0.951  0.00  0.00    +0.149 HD
ENDROOT
BRANCH   2   5
ATOM      5  C   UNL     1      -8.859  -1.157   2.657  0.00  0.00    +0.062 A 
ATOM      6  C   UNL     1      -7.864  -1.865   3.337  0.00  0.00    +0.053 A 
ATOM      7  C   UNL     1      -7.820  -1.837   4.715  0.00  0.00    +0.126 A 
ATOM      8  C   UNL     1      -8.760  -1.109   5.431  0.00  0.00    +0.073 A 
ATOM      9  C   UNL     1      -9.748  -0.406   4.773  0.00  0.00    +0.150 A 
ATOM     10  C   UNL     1      -9.803  -0.417   3.385  0.00  0.00    +0.068 A 
ATOM     11  F   UNL     1      -6.858  -2.522   5.371  0.00  0.00    -0.205 F 
BRANCH  10  12
ATOM     12  N   UNL     1     -10.794   0.296   2.720  0.00  0.00    -0.356 N 
ATOM     13  H   UNL     1     -11.676   0.383   3.114  0.00  0.00    +0.142 HD
ATOM     14  H   UNL     1     -10.603   0.708   1.863  0.00  0.00    +0.142 HD
ENDBRANCH  10  12
BRANCH   9  15
ATOM     15  N   UNL     1     -10.746   0.366   5.547  0.00  0.00    +0.058 N 
ATOM     16  O   UNL     1     -10.763   0.293   6.753  0.00  0.00    -0.126 OA
ATOM     17  O   UNL     1     -11.543   1.070   4.972  0.00  0.00    -0.126 OA
ENDBRANCH   9  15
ENDBRANCH   2   5
BRANCH   1  18
ATOM     18  C   UNL     1      -7.988  -1.817  -0.979  0.00  0.00    +0.139 C 
BRANCH  18  23
ATOM     19  C   UNL     1      -4.522  -2.543  -2.288  0.00  0.00    -0.025 A 
ATOM     20  C   UNL     1      -4.585  -3.909  -2.493  0.00  0.00    +0.005 A 
ATOM     21  C   UNL     1      -5.749  -4.598  -2.207  0.00  0.00    +0.001 A 
ATOM     22  C   UNL     1      -6.850  -3.921  -1.718  0.00  0.00    +0.005 A 
ATOM     23  C   UNL     1      -6.787  -2.555  -1.512  0.00  0.00    -0.030 A 
ATOM     24  C   UNL     1      -5.622  -1.867  -1.794  0.00  0.00    +0.010 A 
BRANCH  19  25
ATOM     25  C   UNL     1      -3.253  -1.792  -2.599  0.00  0.00    +0.220 C 
BRANCH  25  26
ATOM     26  S   UNL     1      -2.192  -1.762  -1.128  0.00  0.00    +0.033 S 
ATOM     27  O   UNL     1      -1.720  -3.070  -0.838  0.00  0.00    -0.158 OA
ATOM     28  O   UNL     1      -2.787  -0.966  -0.112  0.00  0.00    -0.158 OA
BRANCH  26  30
ATOM     29  C   UNL     1      -0.954   0.498  -1.949  0.00  0.00    +0.127 C 
ATOM     30  N   UNL     1      -0.845  -0.918  -1.592  0.00  0.00    -0.197 NA
ATOM     31  H   UNL     1       0.017  -1.362  -1.627  0.00  0.00    +0.147 HD
ENDBRANCH  26  30
ENDBRANCH  25  26
ENDBRANCH  19  25
ENDBRANCH  18  23
ENDBRANCH   1  18
TORSDOF 8
