REMARK  Name = ZINC67252026
REMARK  8 active torsions:
REMARK  status: ('A' for Active; 'I' for Inactive)
REMARK    1  A    between atoms: C_1  and  C_2
REMARK    2  A    between atoms: C_5  and  N_9
REMARK    3  A    between atoms: N_12  and  C_13
REMARK    4  A    between atoms: C_13  and  C_15
REMARK    5  A    between atoms: C_13  and  C_16
REMARK    6  A    between atoms: C_20  and  S_22
REMARK    7  A    between atoms: S_22  and  N_25
REMARK    8  A    between atoms: N_25  and  C_26
REMARK                            x       y       z     vdW  Elec       q    Type
REMARK                         _______ _______ _______ _____ _____    ______ ____
ROOT
ATOM      1  N   UNL     1       0.057  -4.171  -0.023  0.00  0.00    -0.269 N 
ATOM      2  C   UNL     1       0.174  -4.852   1.134  0.00  0.00    +0.304 C 
ATOM      3  O   UNL     1       0.172  -4.255   2.193  0.00  0.00    -0.252 OA
ATOM      4  N   UNL     1       0.292  -6.194   1.118  0.00  0.00    -0.293 N 
ATOM      5  H   UNL     1      -0.019  -4.652  -0.863  0.00  0.00    +0.156 HD
ATOM      6  H   UNL     1       0.294  -6.671   0.273  0.00  0.00    +0.151 HD
ENDROOT
BRANCH   1  11
ATOM      7  C   UNL     1       0.016   1.503   0.015  0.00  0.00    +0.047 C 
ATOM      8  C   UNL     1       0.026  -0.004   0.005  0.00  0.00    -0.015 A 
ATOM      9  C   UNL     1       0.780  -0.695   0.935  0.00  0.00    +0.008 A 
ATOM     10  C   UNL     1       0.792  -2.076   0.928  0.00  0.00    +0.024 A 
ATOM     11  C   UNL     1       0.046  -2.772  -0.014  0.00  0.00    +0.037 A 
ATOM     12  C   UNL     1      -0.711  -2.077  -0.947  0.00  0.00    +0.062 A 
ATOM     13  C   UNL     1      -0.724  -0.694  -0.933  0.00  0.00    +0.128 A 
ATOM     14  F   UNL     1      -1.464  -0.015  -1.837  0.00  0.00    -0.205 F 
ENDBRANCH   1  11
BRANCH   4  15
ATOM     15  C   UNL     1       0.419  -6.934   2.376  0.00  0.00    +0.102 C 
ATOM     16  C   UNL     1      -0.973  -7.211   2.947  0.00  0.00    +0.033 C 
BRANCH  15  17
ATOM     17  C   UNL     1       1.127  -8.240   2.123  0.00  0.00    -0.026 A 
ATOM     18  C   UNL     1       0.847  -8.967   0.981  0.00  0.00    +0.005 A 
ATOM     19  C   UNL     1       1.496 -10.165   0.748  0.00  0.00    +0.002 A 
ATOM     20  C   UNL     1       2.425 -10.636   1.656  0.00  0.00    +0.028 A 
ATOM     21  C   UNL     1       2.706  -9.908   2.797  0.00  0.00    +0.106 A 
ATOM     22  C   UNL     1       2.060  -8.708   3.028  0.00  0.00    +0.034 A 
BRANCH  21  23
ATOM     23  S   UNL     1       3.890 -10.508   3.956  0.00  0.00    +0.058 S 
ATOM     24  O   UNL     1       3.573  -9.912   5.206  0.00  0.00    -0.153 OA
ATOM     25  O   UNL     1       3.956 -11.916   3.777  0.00  0.00    -0.153 OA
BRANCH  23  26
ATOM     26  N   UNL     1       5.365  -9.905   3.505  0.00  0.00    -0.193 NA
ATOM     27  C   UNL     1       5.612  -8.461   3.551  0.00  0.00    +0.127 C 
ATOM     28  H   UNL     1       6.066 -10.507   3.210  0.00  0.00    +0.148 HD
ENDBRANCH  23  26
ENDBRANCH  21  23
ENDBRANCH  15  17
ENDBRANCH   4  15
TORSDOF 5
