REMARK  Name = ZINC38716941
REMARK  6 active torsions:
REMARK  status: ('A' for Active; 'I' for Inactive)
REMARK    1  A    between atoms: C_1  and  C_2
REMARK    2  A    between atoms: C_6  and  O_9
REMARK    3  A    between atoms: C_7  and  C_8
REMARK    4  A    between atoms: O_9  and  C_10
REMARK    5  A    between atoms: C_10  and  C_11
REMARK    6  A    between atoms: N_13  and  C_14
REMARK                            x       y       z     vdW  Elec       q    Type
REMARK                         _______ _______ _______ _____ _____    ______ ____
ROOT
ATOM      1  C   UNL     1       0.220  -6.666   5.109  0.00  0.00    +0.037 A 
ATOM      2  C   UNL     1      -0.386  -6.024   6.189  0.00  0.00    +0.024 A 
ATOM      3  C   UNL     1      -0.280  -6.547   7.446  0.00  0.00    +0.017 A 
ATOM      4  C   UNL     1       0.437  -7.727   7.648  0.00  0.00    +0.065 A 
ATOM      5  C   UNL     1       1.059  -8.380   6.569  0.00  0.00    +0.141 A 
ATOM      6  C   UNL     1       0.933  -7.840   5.295  0.00  0.00    +0.070 A 
ATOM      7  O   UNL     1       1.770  -9.509   6.754  0.00  0.00    -0.453 OA
ATOM      8  C   UNL     1       1.670 -10.238   7.884  0.00  0.00    +0.157 A 
ATOM      9  C   UNL     1       1.081  -9.706   9.041  0.00  0.00    +0.066 A 
ATOM     10  C   UNL     1       0.560  -8.322   8.993  0.00  0.00    +0.200 A 
ATOM     11  O   UNL     1       0.251  -7.713  10.001  0.00  0.00    -0.286 OA
ATOM     12  C   UNL     1       0.990 -10.468  10.204  0.00  0.00    +0.015 A 
ATOM     13  C   UNL     1       1.478 -11.757  10.213  0.00  0.00    +0.002 A 
ATOM     14  C   UNL     1       2.057 -12.290   9.071  0.00  0.00    +0.024 A 
ATOM     15  C   UNL     1       2.156 -11.543   7.915  0.00  0.00    +0.084 A 
ATOM     16 CL   UNL     1       2.885 -12.231   6.498  0.00  0.00    -0.080 Cl
ENDROOT
BRANCH   1  19
ATOM     17  C   UNL     1       0.086  -4.787   3.662  0.00  0.00    +0.255 C 
ATOM     18  O   UNL     1       0.092  -4.055   4.629  0.00  0.00    -0.272 OA
ATOM     19  N   UNL     1       0.101  -6.125   3.830  0.00  0.00    -0.283 N 
ATOM     20  H   UNL     1       0.030  -6.711   3.060  0.00  0.00    +0.155 HD
BRANCH  17  21
ATOM     21  C   UNL     1       0.062  -4.202   2.273  0.00  0.00    +0.324 C 
BRANCH  21  22
ATOM     22  O   UNL     1       0.050  -2.776   2.358  0.00  0.00    -0.482 OA
BRANCH  22  28
ATOM     23  C   UNL     1      -0.023   1.502   0.009  0.00  0.00    +0.044 C 
ATOM     24  C   UNL     1      -0.008  -0.005   0.001  0.00  0.00    -0.044 A 
ATOM     25  C   UNL     1      -0.018  -0.690  -1.201  0.00  0.00    +0.004 A 
ATOM     26  C   UNL     1      -0.004  -2.072  -1.211  0.00  0.00    +0.004 A 
ATOM     27  C   UNL     1       0.018  -2.773  -0.021  0.00  0.00    +0.046 A 
ATOM     28  C   UNL     1       0.028  -2.089   1.186  0.00  0.00    +0.124 A 
ATOM     29  C   UNL     1       0.020  -0.701   1.193  0.00  0.00    -0.006 A 
ATOM     30  C   UNL     1       0.037   0.046   2.502  0.00  0.00    +0.048 C 
ENDBRANCH  22  28
ENDBRANCH  21  22
ENDBRANCH  17  21
ENDBRANCH   1  19
TORSDOF 4
