REMARK  Name = ZINC51088678
REMARK  5 active torsions:
REMARK  status: ('A' for Active; 'I' for Inactive)
REMARK    1  A    between atoms: C_2  and  C_13
REMARK    2  A    between atoms: C_5  and  N_10
REMARK    3  A    between atoms: C_6  and  N_7
REMARK    4  A    between atoms: N_10  and  N_11
REMARK    5  A    between atoms: N_15  and  C_16
REMARK                            x       y       z     vdW  Elec       q    Type
REMARK                         _______ _______ _______ _____ _____    ______ ____
ROOT
ATOM      1  C   UNL     1       0.117   1.364   0.558  0.00  0.00    +0.048 A 
ATOM      2  C   UNL     1       1.193   2.086   0.034  0.00  0.00    +0.045 A 
ATOM      3  C   UNL     1       2.278   1.407  -0.531  0.00  0.00    +0.035 A 
ATOM      4  C   UNL     1       2.282   0.031  -0.569  0.00  0.00    +0.066 A 
ATOM      5  C   UNL     1       1.207  -0.685  -0.046  0.00  0.00    +0.090 A 
ATOM      6  C   UNL     1       0.127  -0.012   0.517  0.00  0.00    +0.150 A 
ATOM      7 CL   UNL     1       3.627  -0.814  -1.270  0.00  0.00    -0.081 Cl
ENDROOT
BRANCH   6   8
ATOM      8  N   UNL     1      -1.012  -0.777   1.072  0.00  0.00    +0.058 N 
ATOM      9  O   UNL     1      -2.139  -0.355   0.953  0.00  0.00    -0.126 OA
ATOM     10  O   UNL     1      -0.816  -1.824   1.645  0.00  0.00    -0.126 OA
ENDBRANCH   6   8
BRANCH   2  11
ATOM     11  C   UNL     1       1.185   3.559   0.077  0.00  0.00    +0.280 C 
ATOM     12  O   UNL     1       0.135   4.214   0.623  0.00  0.00    -0.265 OA
ATOM     13  N   UNL     1       2.196   4.236  -0.416  0.00  0.00    -0.181 NA
BRANCH  13  14
ATOM     14  C   UNL     1       2.189   5.595  -0.377  0.00  0.00    +0.218 A 
ATOM     15  N   UNL     1       1.276   6.433   0.112  0.00  0.00    -0.122 NA
ATOM     16  N   UNL     1       1.433   7.684   0.064  0.00  0.00    -0.148 NA
ATOM     17  C   UNL     1       2.505   8.238  -0.469  0.00  0.00    +0.183 A 
ATOM     18  S   UNL     1       3.406   6.771  -0.961  0.00  0.00    -0.034 S 
ENDBRANCH  13  14
ENDBRANCH   2  11
BRANCH   5  19
ATOM     19  N   UNL     1       1.214  -2.077  -0.087  0.00  0.00    -0.280 N 
ATOM     20  H   UNL     1       0.386  -2.562  -0.227  0.00  0.00    +0.166 HD
BRANCH  19  21
ATOM     21  N   UNL     1       2.387  -2.759   0.071  0.00  0.00    -0.256 NA
ATOM     22  H   UNL     1       2.838  -2.508   0.938  0.00  0.00    +0.140 HD
ATOM     23  H   UNL     1       2.235  -3.755   0.018  0.00  0.00    +0.140 HD
ENDBRANCH  19  21
ENDBRANCH   5  19
TORSDOF 5
