REMARK  Name = ZINC27540703
REMARK  12 active torsions:
REMARK  status: ('A' for Active; 'I' for Inactive)
REMARK    1  A    between atoms: C_1  and  C_2
REMARK    2  A    between atoms: C_2  and  C_4
REMARK    3  A    between atoms: C_2  and  N_18
REMARK    4  A    between atoms: N_6  and  C_7
REMARK    5  A    between atoms: C_12  and  C_13
REMARK    6  A    between atoms: N_18  and  C_19
REMARK    7  A    between atoms: N_18  and  C_20
REMARK    8  A    between atoms: C_20  and  C_21
REMARK    9  A    between atoms: N_23  and  C_24
REMARK   10  A    between atoms: C_24  and  C_25
REMARK   11  A    between atoms: C_24  and  C_26
REMARK   12  A    between atoms: C_24  and  C_27
REMARK                            x       y       z     vdW  Elec       q    Type
REMARK                         _______ _______ _______ _____ _____    ______ ____
ROOT
ATOM      1  C   UNL     1       0.859  -0.250  -1.116  0.00  0.00    +0.203 C 
ATOM      2  O   UNL     1       1.964  -0.713  -0.931  0.00  0.00    -0.277 OA
ATOM      3  N   UNL     1       0.429  -0.011  -2.370  0.00  0.00    -0.286 N 
ATOM      4  H   UNL     1      -0.424   0.428  -2.516  0.00  0.00    +0.155 HD
ENDROOT
BRANCH   3   5
ATOM      5  C   UNL     1       1.214  -0.395  -3.464  0.00  0.00    +0.045 A 
ATOM      6  C   UNL     1       2.599  -0.351  -3.376  0.00  0.00    +0.025 A 
ATOM      7  C   UNL     1       3.370  -0.731  -4.456  0.00  0.00    +0.022 A 
ATOM      8  C   UNL     1       2.764  -1.154  -5.627  0.00  0.00    +0.042 A 
ATOM      9  C   UNL     1       1.385  -1.198  -5.717  0.00  0.00    +0.034 A 
ATOM     10  C   UNL     1       0.608  -0.825  -4.637  0.00  0.00    +0.077 A 
ATOM     11 CL   UNL     1       3.738  -1.629  -6.984  0.00  0.00    -0.084 Cl
BRANCH  10  12
ATOM     12  C   UNL     1      -0.895  -0.879  -4.734  0.00  0.00    +0.419 C 
ATOM     13  F   UNL     1      -1.264  -1.341  -6.003  0.00  0.00    -0.166 F 
ATOM     14  F   UNL     1      -1.394  -1.748  -3.758  0.00  0.00    -0.166 F 
ATOM     15  F   UNL     1      -1.422   0.401  -4.533  0.00  0.00    -0.166 F 
ENDBRANCH  10  12
ENDBRANCH   3   5
BRANCH   1  17
ATOM     16  C   UNL     1      -0.101   1.574   0.263  0.00  0.00    -0.004 C 
ATOM     17  C   UNL     1      -0.034   0.059   0.058  0.00  0.00    +0.017 C 
BRANCH  17  18
ATOM     18  N   UNL     1       0.509  -0.575   1.267  0.00  0.00    +0.391 N 
ATOM     19  C   UNL     1       0.449  -2.035   1.123  0.00  0.00    -0.094 C 
ATOM     20  H   UNL     1       1.469  -0.289   1.394  0.00  0.00    -0.080 HD
BRANCH  18  21
ATOM     21  C   UNL     1      -0.283  -0.164   2.434  0.00  0.00    +0.019 C 
BRANCH  21  22
ATOM     22  C   UNL     1       0.347  -0.715   3.688  0.00  0.00    +0.197 C 
ATOM     23  O   UNL     1       1.356  -1.383   3.616  0.00  0.00    -0.278 OA
ATOM     24  N   UNL     1      -0.212  -0.464   4.888  0.00  0.00    -0.312 N 
ATOM     25  H   UNL     1      -1.019   0.071   4.945  0.00  0.00    +0.149 HD
BRANCH  24  26
ATOM     26  C   UNL     1       0.400  -0.999   6.107  0.00  0.00    +0.026 C 
ATOM     27  C   UNL     1       1.825  -0.458   6.242  0.00  0.00    +0.031 C 
ATOM     28  C   UNL     1      -0.425  -0.571   7.322  0.00  0.00    +0.031 C 
ATOM     29  C   UNL     1       0.440  -2.526   6.029  0.00  0.00    +0.031 C 
ENDBRANCH  24  26
ENDBRANCH  21  22
ENDBRANCH  18  21
ENDBRANCH  17  18
ENDBRANCH   1  17
TORSDOF 7
