REMARK  Name = ZINC58049708
REMARK  8 active torsions:
REMARK  status: ('A' for Active; 'I' for Inactive)
REMARK    1  A    between atoms: C_1  and  C_2
REMARK    2  A    between atoms: C_5  and  C_7
REMARK    3  A    between atoms: C_7  and  N_8
REMARK    4  A    between atoms: N_8  and  C_9
REMARK    5  A    between atoms: C_10  and  C_12
REMARK    6  A    between atoms: C_12  and  N_13
REMARK    7  A    between atoms: C_14  and  C_16
REMARK    8  A    between atoms: C_17  and  C_18
REMARK                            x       y       z     vdW  Elec       q    Type
REMARK                         _______ _______ _______ _____ _____    ______ ____
ROOT
ATOM      1  C   UNL     1       1.516  -4.907  -3.467  0.00  0.00    +0.200 C 
ENDROOT
BRANCH   1   4
ATOM      2  N   UNL     1       1.983  -3.620  -1.407  0.00  0.00    -0.296 N 
ATOM      3  C   UNL     1       3.123  -3.014  -2.100  0.00  0.00    +0.132 C 
ATOM      4  C   UNL     1       1.209  -4.521  -2.043  0.00  0.00    +0.233 C 
ATOM      5  O   UNL     1       0.265  -5.023  -1.470  0.00  0.00    -0.274 OA
BRANCH   2   6
ATOM      6  C   UNL     1       1.684  -3.245  -0.023  0.00  0.00    +0.181 C 
BRANCH   6  11
ATOM      7  C   UNL     1      -0.018   1.503   0.010  0.00  0.00    +0.086 C 
ATOM      8  C   UNL     1       0.002  -0.004   0.002  0.00  0.00    +0.102 A 
ATOM      9  C   UNL     1      -1.078  -0.805   0.003  0.00  0.00    +0.045 A 
ATOM     10  C   UNL     1      -0.601  -2.136  -0.007  0.00  0.00    +0.046 A 
ATOM     11  C   UNL     1       0.742  -2.069  -0.013  0.00  0.00    +0.122 A 
ATOM     12  O   UNL     1       1.102  -0.775  -0.013  0.00  0.00    -0.463 OA
ENDBRANCH   6  11
ENDBRANCH   2   6
ENDBRANCH   1   4
BRANCH   1  13
ATOM     13  N   UNL     1       0.538  -5.895  -3.928  0.00  0.00    -0.303 N 
ATOM     14  C   UNL     1       0.616  -6.387  -5.180  0.00  0.00    +0.237 C 
ATOM     15  O   UNL     1       1.499  -6.011  -5.928  0.00  0.00    -0.271 OA
ATOM     16  H   UNL     1      -0.166  -6.194  -3.332  0.00  0.00    +0.149 HD
BRANCH  14  17
ATOM     17  C   UNL     1      -0.362  -7.375  -5.641  0.00  0.00    +0.068 C 
ATOM     18  C   UNL     1      -0.284  -7.867  -6.893  0.00  0.00    +0.013 C 
BRANCH  18  19
ATOM     19  C   UNL     1      -1.268  -8.860  -7.356  0.00  0.00    -0.025 A 
ATOM     20  C   UNL     1      -2.288  -9.290  -6.501  0.00  0.00    +0.008 A 
ATOM     21  C   UNL     1      -3.205 -10.221  -6.942  0.00  0.00    +0.001 A 
ATOM     22  C   UNL     1      -3.118 -10.728  -8.227  0.00  0.00    +0.000 A 
ATOM     23  C   UNL     1      -2.112 -10.308  -9.079  0.00  0.00    +0.001 A 
ATOM     24  C   UNL     1      -1.190  -9.374  -8.654  0.00  0.00    +0.008 A 
ENDBRANCH  18  19
ENDBRANCH  14  17
ENDBRANCH   1  13
TORSDOF 6
