REMARK  Name = ZINC58218392
REMARK  6 active torsions:
REMARK  status: ('A' for Active; 'I' for Inactive)
REMARK    1  A    between atoms: C_1  and  C_2
REMARK    2  A    between atoms: C_4  and  C_8
REMARK    3  A    between atoms: C_5  and  C_7
REMARK    4  A    between atoms: C_8  and  C_26
REMARK    5  A    between atoms: N_11  and  C_15
REMARK    6  A    between atoms: C_15  and  C_16
REMARK                            x       y       z     vdW  Elec       q    Type
REMARK                         _______ _______ _______ _____ _____    ______ ____
ROOT
ATOM      1  C   UNL     1      -1.431  -3.392  -0.008  0.00  0.00    +0.138 C 
ATOM      2  C   UNL     1      -1.211  -4.182   1.267  0.00  0.00    +0.251 C 
ATOM      3  O   UNL     1      -0.171  -4.666   1.658  0.00  0.00    -0.272 OA
ATOM      4  N   UNL     1      -2.413  -4.234   1.875  0.00  0.00    -0.215 N 
ATOM      5  C   UNL     1      -3.352  -3.593   1.168  0.00  0.00    +0.310 C 
ATOM      6  O   UNL     1      -4.513  -3.504   1.513  0.00  0.00    -0.252 OA
ATOM      7  N   UNL     1      -2.865  -3.059   0.033  0.00  0.00    -0.281 N 
ATOM      8  C   UNL     1      -1.112  -4.247  -1.237  0.00  0.00    +0.047 C 
ATOM      9  H   UNL     1      -3.362  -2.554  -0.629  0.00  0.00    +0.152 HD
ENDROOT
BRANCH   1  13
ATOM     10  C   UNL     1      -0.014   1.501   0.011  0.00  0.00    +0.086 C 
ATOM     11  C   UNL     1       0.007  -0.005   0.003  0.00  0.00    +0.103 A 
ATOM     12  C   UNL     1      -1.073  -0.807   0.003  0.00  0.00    +0.051 A 
ATOM     13  C   UNL     1      -0.595  -2.138  -0.005  0.00  0.00    +0.025 A 
ATOM     14  C   UNL     1       0.748  -2.070  -0.010  0.00  0.00    +0.108 A 
ATOM     15  O   UNL     1       1.107  -0.775  -0.010  0.00  0.00    -0.465 OA
ATOM     16  C   UNL     1       1.690  -3.246  -0.018  0.00  0.00    +0.086 C 
ENDBRANCH   1  13
BRANCH   4  17
ATOM     17  C   UNL     1      -2.661  -4.909   3.151  0.00  0.00    +0.214 C 
BRANCH  17  18
ATOM     18  C   UNL     1      -2.447  -3.938   4.283  0.00  0.00    +0.236 C 
ATOM     19  O   UNL     1      -2.119  -2.795   4.047  0.00  0.00    -0.274 OA
ATOM     20  N   UNL     1      -2.620  -4.340   5.558  0.00  0.00    -0.269 N 
ATOM     21  C   UNL     1      -2.320  -3.475   6.609  0.00  0.00    +0.125 A 
ATOM     22  C   UNL     1      -2.399  -3.930   7.920  0.00  0.00    +0.045 A 
ATOM     23  C   UNL     1      -2.098  -3.061   8.954  0.00  0.00    +0.025 A 
ATOM     24  C   UNL     1      -1.727  -1.760   8.639  0.00  0.00    +0.059 A 
ATOM     25  C   UNL     1      -1.670  -1.375   7.313  0.00  0.00    +0.132 A 
ATOM     26  N   UNL     1      -1.957  -2.229   6.348  0.00  0.00    -0.239 NA
ATOM     27 CL   UNL     1      -1.341  -0.629   9.898  0.00  0.00    -0.082 Cl
ATOM     28  H   UNL     1      -2.953  -5.232   5.744  0.00  0.00    +0.156 HD
ENDBRANCH  17  18
ENDBRANCH   4  17
TORSDOF 3
