REMARK  Name = ZINC09593346
REMARK  9 active torsions:
REMARK  status: ('A' for Active; 'I' for Inactive)
REMARK    1  A    between atoms: C_1  and  C_2
REMARK    2  A    between atoms: C_2  and  C_4
REMARK    3  A    between atoms: C_2  and  N_63
REMARK    4  A    between atoms: N_6  and  C_7
REMARK    5  A    between atoms: C_8  and  C_15
REMARK    6  A    between atoms: C_18  and  N_63
REMARK    7  A    between atoms: C_19  and  C_20
REMARK    8  A    between atoms: C_19  and  N_63
REMARK    9  A    between atoms: C_25  and  N_26
REMARK                            x       y       z     vdW  Elec       q    Type
REMARK                         _______ _______ _______ _____ _____    ______ ____
ROOT
ATOM      1  C   UNL     1      -0.429   2.280  -4.670  0.00  0.00    -0.004 C 
ATOM      2  C   UNL     1      -1.934   2.018  -4.753  0.00  0.00    +0.016 C 
ENDROOT
BRANCH   2   3
ATOM      3  C   UNL     1      -2.582   2.385  -3.443  0.00  0.00    +0.204 C 
ATOM      4  O   UNL     1      -3.442   3.240  -3.410  0.00  0.00    -0.277 OA
ATOM      5  N   UNL     1      -2.205   1.764  -2.308  0.00  0.00    -0.281 N 
ATOM      6  H   UNL     1      -1.517   1.081  -2.334  0.00  0.00    +0.155 HD
BRANCH   5   7
ATOM      7  C   UNL     1      -2.801   2.103  -1.102  0.00  0.00    +0.084 A 
ATOM      8  C   UNL     1      -2.552   1.583   0.157  0.00  0.00    +0.068 A 
ATOM      9  C   UNL     1      -3.321   2.123   1.277  0.00  0.00    -0.023 A 
ATOM     10  C   UNL     1      -4.207   3.082   0.952  0.00  0.00    -0.004 A 
ATOM     11  S   UNL     1      -4.038   3.276  -0.806  0.00  0.00    -0.077 S 
ATOM     12  C   UNL     1      -4.955   3.590   2.154  0.00  0.00    +0.043 C 
ATOM     13  C   UNL     1      -4.116   3.119   3.363  0.00  0.00    +0.010 C 
ATOM     14  C   UNL     1      -3.400   1.882   2.785  0.00  0.00    +0.037 C 
BRANCH   8  15
ATOM     15  C   UNL     1      -1.548   0.534   0.360  0.00  0.00    +0.244 C 
ATOM     16  O   UNL     1      -1.871  -0.638   0.292  0.00  0.00    -0.270 OA
ATOM     17  N   UNL     1      -0.268   0.866   0.617  0.00  0.00    -0.325 N 
ATOM     18  H   UNL     1       0.397   0.172   0.748  0.00  0.00    +0.145 HD
ATOM     19  H   UNL     1      -0.011   1.800   0.672  0.00  0.00    +0.145 HD
ENDBRANCH   8  15
ENDBRANCH   5   7
ENDBRANCH   2   3
BRANCH   2  21
ATOM     20  C   UNL     1      -2.176   4.249  -5.660  0.00  0.00    -0.095 C 
ATOM     21  N   UNL     1      -2.542   2.827  -5.830  0.00  0.00    +0.388 N 
ATOM     22  H   UNL     1      -3.564   2.738  -5.778  0.00  0.00    -0.081 HD
BRANCH  21  23
ATOM     23  C   UNL     1      -2.084   2.341  -7.148  0.00  0.00    -0.040 C 
BRANCH  23  24
ATOM     24  C   UNL     1      -2.974   2.925  -8.215  0.00  0.00    -0.043 A 
ATOM     25  C   UNL     1      -2.527   3.978  -8.988  0.00  0.00    +0.003 A 
ATOM     26  C   UNL     1      -3.343   4.514  -9.968  0.00  0.00    +0.000 A 
ATOM     27  C   UNL     1      -4.608   3.996 -10.178  0.00  0.00    +0.002 A 
ATOM     28  C   UNL     1      -5.062   2.943  -9.408  0.00  0.00    +0.023 A 
ATOM     29  C   UNL     1      -4.243   2.399  -8.426  0.00  0.00    +0.031 A 
BRANCH  29  30
ATOM     30  N   UNL     1      -4.696   1.330  -7.650  0.00  0.00    -0.330 N 
ATOM     31  C   UNL     1      -4.956   0.149  -8.482  0.00  0.00    +0.105 C 
ATOM     32  C   UNL     1      -5.309  -1.040  -7.586  0.00  0.00    +0.019 C 
ATOM     33  C   UNL     1      -6.548  -0.696  -6.754  0.00  0.00    +0.003 C 
ATOM     34  C   UNL     1      -6.267   0.566  -5.934  0.00  0.00    +0.019 C 
ATOM     35  C   UNL     1      -5.886   1.708  -6.878  0.00  0.00    +0.105 C 
ENDBRANCH  29  30
ENDBRANCH  23  24
ENDBRANCH  21  23
ENDBRANCH   2  21
TORSDOF 7
