REMARK  Name = ZINC08740072
REMARK  11 active torsions:
REMARK  status: ('A' for Active; 'I' for Inactive)
REMARK    1  A    between atoms: C_1  and  C_2
REMARK    2  A    between atoms: C_2  and  C_3
REMARK    3  A    between atoms: C_4  and  O_37
REMARK    4  A    between atoms: C_5  and  N_9
REMARK    5  A    between atoms: C_7  and  C_8
REMARK    6  A    between atoms: N_9  and  C_10
REMARK    7  A    between atoms: C_10  and  C_11
REMARK    8  A    between atoms: C_11  and  C_13
REMARK    9  A    between atoms: C_13  and  O_36
REMARK   10  A    between atoms: C_18  and  C_35
REMARK   11  A    between atoms: C_33  and  C_34
REMARK                            x       y       z     vdW  Elec       q    Type
REMARK                         _______ _______ _______ _____ _____    ______ ____
ROOT
ATOM      1  C   UNL     1      -2.183   4.571  -0.222  0.00  0.00    +0.131 C 
ATOM      2  C   UNL     1      -2.605   4.741   1.251  0.00  0.00    +0.043 C 
ATOM      3  C   UNL     1      -2.378   6.225   1.609  0.00  0.00    +0.008 C 
ATOM      4  C   UNL     1      -2.430   6.963   0.241  0.00  0.00    +0.002 C 
ATOM      5  C   UNL     1      -1.754   5.961  -0.708  0.00  0.00    +0.007 C 
ATOM      6  C   UNL     1      -2.041   6.201  -2.166  0.00  0.00    +0.010 C 
ATOM      7  C   UNL     1      -3.459   6.582  -2.523  0.00  0.00    +0.005 C 
ATOM      8  C   UNL     1      -4.120   7.548  -1.554  0.00  0.00    +0.002 C 
ATOM      9  C   UNL     1      -3.903   7.135  -0.120  0.00  0.00    -0.003 C 
ATOM     10  C   UNL     1      -4.600   8.049   0.868  0.00  0.00    +0.008 C 
ATOM     11  C   UNL     1      -4.323   9.517   0.637  0.00  0.00    +0.032 C 
ATOM     12  C   UNL     1      -4.419   9.897  -0.818  0.00  0.00    -0.060 C 
ATOM     13  C   UNL     1      -5.034  11.046  -1.108  0.00  0.00    +0.046 C 
ATOM     14  C   UNL     1      -5.148  11.531  -2.481  0.00  0.00    +0.156 C 
ATOM     15  O   UNL     1      -5.851  12.488  -2.751  0.00  0.00    -0.293 OA
ATOM     16  C   UNL     1      -4.366  10.813  -3.559  0.00  0.00    +0.080 C 
ATOM     17  C   UNL     1      -4.380   9.319  -3.260  0.00  0.00    +0.019 C 
ATOM     18  C   UNL     1      -3.831   9.005  -1.870  0.00  0.00    -0.007 C 
ATOM     19  C   UNL     1      -2.330   9.272  -1.913  0.00  0.00    +0.016 C 
ATOM     20  C   UNL     1      -0.231   6.076  -0.508  0.00  0.00    +0.015 C 
ENDROOT
BRANCH   1  21
ATOM     21  C   UNL     1      -1.019   3.615  -0.309  0.00  0.00    +0.182 C 
ATOM     22  O   UNL     1      -0.292   3.461   0.642  0.00  0.00    -0.293 OA
BRANCH  21  23
ATOM     23  C   UNL     1      -0.763   2.852  -1.584  0.00  0.00    +0.179 C 
BRANCH  23  24
ATOM     24  N   UNL     1       0.415   1.998  -1.414  0.00  0.00    -0.334 N 
ATOM     25  H   UNL     1       0.895   1.996  -0.572  0.00  0.00    +0.147 HD
BRANCH  24  28
ATOM     26  C   UNL     1       2.371  -0.408  -3.396  0.00  0.00    +0.060 A 
ATOM     27  C   UNL     1       1.978   0.379  -2.329  0.00  0.00    +0.157 A 
ATOM     28  C   UNL     1       0.849   1.192  -2.466  0.00  0.00    +0.073 A 
ATOM     29  C   UNL     1       0.173   1.181  -3.684  0.00  0.00    +0.047 A 
ATOM     30  C   UNL     1       0.634   0.370  -4.701  0.00  0.00    +0.015 A 
ATOM     31  C   UNL     1      -0.090   0.352  -6.023  0.00  0.00    +0.063 C 
ATOM     32  N   UNL     1       1.726  -0.435  -4.594  0.00  0.00    -0.359 N 
ATOM     33  H   UNL     1       2.044  -1.027  -5.371  0.00  0.00    +0.165 HD
BRANCH  26  35
ATOM     34  C   UNL     1       4.831  -0.521  -3.691  0.00  0.00    +0.010 C 
ATOM     35  C   UNL     1       3.582  -1.295  -3.261  0.00  0.00    +0.053 C 
ENDBRANCH  26  35
BRANCH  27  36
ATOM     36  O   UNL     1       2.676   0.358  -1.161  0.00  0.00    -0.503 OA
ATOM     37  H   UNL     1       2.367  -0.306  -0.530  0.00  0.00    +0.292 HD
ENDBRANCH  27  36
ENDBRANCH  24  28
ENDBRANCH  23  24
ENDBRANCH  21  23
ENDBRANCH   1  21
BRANCH   1  38
ATOM     38  O   UNL     1      -3.277   4.075  -0.994  0.00  0.00    -0.380 OA
ATOM     39  H   UNL     1      -3.594   3.205  -0.714  0.00  0.00    +0.211 HD
ENDBRANCH   1  38
TORSDOF 7
