REMARK  Name = ZINC04016857
REMARK  16 active torsions:
REMARK  status: ('A' for Active; 'I' for Inactive)
REMARK    1  A    between atoms: C_1  and  C_2
REMARK    2  A    between atoms: C_2  and  C_3
REMARK    3  A    between atoms: C_2  and  C_4
REMARK    4  A    between atoms: C_2  and  O_24
REMARK    5  A    between atoms: C_5  and  C_6
REMARK    6  A    between atoms: C_7  and  C_18
REMARK    7  A    between atoms: N_9  and  C_17
REMARK    8  A    between atoms: C_10  and  C_11
REMARK    9  A    between atoms: C_12  and  C_13
REMARK   10  A    between atoms: C_13  and  C_14
REMARK   11  A    between atoms: C_13  and  C_15
REMARK   12  A    between atoms: C_13  and  O_16
REMARK   13  A    between atoms: C_19  and  C_20
REMARK   14  A    between atoms: C_20  and  C_21
REMARK   15  A    between atoms: C_20  and  C_22
REMARK   16  A    between atoms: C_20  and  O_23
REMARK                            x       y       z     vdW  Elec       q    Type
REMARK                         _______ _______ _______ _____ _____    ______ ____
ROOT
ATOM      1  C   UNL     1       1.307   1.789  -0.001  0.00  0.00    +0.094 A 
ATOM      2  C   UNL     1       2.122   0.628  -0.015  0.00  0.00    +0.152 A 
ATOM      3  N   UNL     1       1.336  -0.427  -0.013  0.00  0.00    -0.161 NA
ATOM      4  N   UNL     1       0.002  -0.004   0.002  0.00  0.00    -0.257 N 
ATOM      5  C   UNL     1      -0.016   1.361   0.009  0.00  0.00    +0.128 A 
ATOM      6  C   UNL     1      -1.174  -0.877   0.009  0.00  0.00    +0.174 C 
ENDROOT
BRANCH   1   8
ATOM      7  C   UNL     1       2.134   4.261   0.003  0.00  0.00    -0.063 C 
ATOM      8  C   UNL     1       1.762   3.147   0.001  0.00  0.00    -0.058 C 
BRANCH   7  10
ATOM      9  C   UNL     1       4.131   5.682  -0.009  0.00  0.00    +0.055 C 
ATOM     10  C   UNL     1       2.601   5.657   0.006  0.00  0.00    +0.121 C 
ATOM     11  C   UNL     1       2.068   6.375  -1.235  0.00  0.00    +0.055 C 
BRANCH  10  12
ATOM     12  O   UNL     1       2.125   6.316   1.180  0.00  0.00    -0.377 OA
ATOM     13  H   UNL     1       2.425   5.914   2.006  0.00  0.00    +0.211 HD
ENDBRANCH  10  12
ENDBRANCH   7  10
ENDBRANCH   1   8
BRANCH   5  14
ATOM     14  C   UNL     1      -1.180   2.195   0.020  0.00  0.00    -0.043 C 
ATOM     15  C   UNL     1      -2.134   2.879   0.028  0.00  0.00    -0.061 C 
BRANCH  15  16
ATOM     16  C   UNL     1      -3.330   3.737   0.039  0.00  0.00    +0.121 C 
ATOM     17  C   UNL     1      -4.171   3.454  -1.208  0.00  0.00    +0.055 C 
ATOM     18  C   UNL     1      -4.159   3.441   1.291  0.00  0.00    +0.055 C 
BRANCH  16  19
ATOM     19  O   UNL     1      -2.933   5.109   0.044  0.00  0.00    -0.377 OA
ATOM     20  H   UNL     1      -3.671   5.733   0.051  0.00  0.00    +0.211 HD
ENDBRANCH  16  19
ENDBRANCH  15  16
ENDBRANCH   5  14
BRANCH   2  21
ATOM     21  C   UNL     1       3.554   0.608  -0.029  0.00  0.00    -0.041 C 
ATOM     22  C   UNL     1       4.728   0.591  -0.041  0.00  0.00    -0.061 C 
BRANCH  22  23
ATOM     23  C   UNL     1       6.199   0.570  -0.056  0.00  0.00    +0.121 C 
ATOM     24  C   UNL     1       6.730   2.005  -0.053  0.00  0.00    +0.055 C 
ATOM     25  C   UNL     1       6.712  -0.166   1.184  0.00  0.00    +0.055 C 
BRANCH  23  26
ATOM     26  O   UNL     1       6.654  -0.104  -1.231  0.00  0.00    -0.377 OA
ATOM     27  H   UNL     1       6.355  -1.021  -1.300  0.00  0.00    +0.211 HD
ENDBRANCH  23  26
ENDBRANCH  22  23
ENDBRANCH   2  21
TORSDOF 9
