REMARK  Name = ZINC43691424
REMARK  7 active torsions:
REMARK  status: ('A' for Active; 'I' for Inactive)
REMARK    1  A    between atoms: C_2  and  C_17
REMARK    2  A    between atoms: C_5  and  C_6
REMARK    3  A    between atoms: C_6  and  S_7
REMARK    4  A    between atoms: S_7  and  C_8
REMARK    5  A    between atoms: C_14  and  N_16
REMARK    6  A    between atoms: C_18  and  C_19
REMARK    7  A    between atoms: C_19  and  N_20
REMARK                            x       y       z     vdW  Elec       q    Type
REMARK                         _______ _______ _______ _____ _____    ______ ____
ROOT
ATOM      1  C   UNL     1      -1.159  -0.965   0.008  0.00  0.00    +0.119 C 
ENDROOT
BRANCH   1   6
ATOM      2  C   UNL     1      -0.016   1.347   0.009  0.00  0.00    +0.028 A 
ATOM      3  C   UNL     1       1.192   2.040   0.002  0.00  0.00    +0.032 A 
ATOM      4  C   UNL     1       2.356   1.319  -0.013  0.00  0.00    +0.062 A 
ATOM      5  S   UNL     1       1.751  -0.360  -0.017  0.00  0.00    -0.100 S 
ATOM      6  C   UNL     1       0.002  -0.004   0.002  0.00  0.00    +0.001 A 
BRANCH   3   7
ATOM      7  C   UNL     1       1.217   3.472   0.009  0.00  0.00    -0.068 C 
ATOM      8  C   UNL     1       1.237   4.646   0.014  0.00  0.00    -0.117 C 
BRANCH   8   9
ATOM      9  C   UNL     1       1.263   6.117   0.021  0.00  0.00    +0.005 C 
BRANCH   9  10
ATOM     10  N   UNL     1       2.656   6.583   0.011  0.00  0.00    +0.385 N 
ATOM     11  H   UNL     1       2.673   7.592   0.016  0.00  0.00    -0.089 HD
ATOM     12  H   UNL     1       3.133   6.234   0.829  0.00  0.00    -0.089 HD
ATOM     13  H   UNL     1       3.118   6.243  -0.819  0.00  0.00    -0.089 HD
ENDBRANCH   9  10
ENDBRANCH   8   9
ENDBRANCH   3   7
ENDBRANCH   1   6
BRANCH   1  14
ATOM     14  S   UNL     1      -1.641  -1.342  -1.699  0.00  0.00    -0.083 S 
BRANCH  14  15
ATOM     15  C   UNL     1      -2.990  -2.462  -1.524  0.00  0.00    +0.171 A 
ATOM     16  N   UNL     1      -3.597  -2.956  -2.639  0.00  0.00    -0.302 N 
ATOM     17  H   UNL     1      -3.284  -2.690  -3.518  0.00  0.00    +0.171 HD
ATOM     18  C   UNL     1      -4.631  -3.814  -2.524  0.00  0.00    +0.254 A 
ATOM     19  O   UNL     1      -5.180  -4.262  -3.518  0.00  0.00    -0.268 OA
ATOM     20  C   UNL     1      -5.064  -4.183  -1.246  0.00  0.00    +0.113 A 
ATOM     21  C   UNL     1      -4.412  -3.651  -0.142  0.00  0.00    +0.124 A 
ATOM     22  N   UNL     1      -3.389  -2.808  -0.317  0.00  0.00    -0.209 NA
BRANCH  21  23
ATOM     23  N   UNL     1      -4.816  -3.995   1.133  0.00  0.00    -0.343 N 
ATOM     24  H   UNL     1      -5.556  -4.609   1.258  0.00  0.00    +0.144 HD
ATOM     25  H   UNL     1      -4.360  -3.622   1.903  0.00  0.00    +0.144 HD
ENDBRANCH  21  23
ENDBRANCH  14  15
ENDBRANCH   1  14
TORSDOF 7
