REMARK  Name = ZINC34898335
REMARK  7 active torsions:
REMARK  status: ('A' for Active; 'I' for Inactive)
REMARK    1  A    between atoms: C_1  and  C_2
REMARK    2  A    between atoms: C_3  and  C_27
REMARK    3  A    between atoms: C_9  and  O_13
REMARK    4  A    between atoms: O_13  and  C_14
REMARK    5  A    between atoms: C_16  and  O_26
REMARK    6  A    between atoms: C_18  and  O_25
REMARK    7  A    between atoms: C_20  and  O_24
REMARK                            x       y       z     vdW  Elec       q    Type
REMARK                         _______ _______ _______ _____ _____    ______ ____
ROOT
ATOM      1  C   UNL     1      -0.047   1.458   0.513  0.00  0.00    +0.087 C 
ATOM      2  C   UNL     1      -0.011  -0.024   0.240  0.00  0.00    +0.115 A 
ATOM      3  C   UNL     1      -1.183  -0.672   0.004  0.00  0.00    +0.085 A 
ATOM      4  C   UNL     1      -1.137  -2.126  -0.244  0.00  0.00    +0.202 A 
ATOM      5  O   UNL     1      -2.096  -2.737  -0.681  0.00  0.00    -0.286 OA
ATOM      6  C   UNL     1       0.141  -2.794   0.067  0.00  0.00    +0.065 A 
ATOM      7  C   UNL     1       0.241  -4.184   0.122  0.00  0.00    +0.019 A 
ATOM      8  C   UNL     1       1.441  -4.764   0.420  0.00  0.00    +0.047 A 
ATOM      9  C   UNL     1       2.561  -3.974   0.670  0.00  0.00    +0.128 A 
ATOM     10  C   UNL     1       2.478  -2.594   0.616  0.00  0.00    +0.092 A 
ATOM     11  C   UNL     1       1.266  -1.986   0.310  0.00  0.00    +0.142 A 
ATOM     12  O   UNL     1       1.170  -0.644   0.235  0.00  0.00    -0.459 OA
ENDROOT
BRANCH   3  13
ATOM     13  C   UNL     1      -2.470   0.062  -0.003  0.00  0.00    +0.078 A 
ATOM     14  C   UNL     1      -3.668  -0.645  -0.101  0.00  0.00    +0.028 A 
ATOM     15  C   UNL     1      -4.862   0.054  -0.106  0.00  0.00    +0.004 A 
ATOM     16  C   UNL     1      -4.820   1.438  -0.014  0.00  0.00    +0.020 A 
ATOM     17  C   UNL     1      -3.597   2.075   0.080  0.00  0.00    +0.111 A 
ATOM     18  N   UNL     1      -2.474   1.386   0.088  0.00  0.00    -0.255 NA
ENDBRANCH   3  13
BRANCH   9  19
ATOM     19  O   UNL     1       3.747  -4.564   0.969  0.00  0.00    -0.461 OA
BRANCH  19  20
ATOM     20  C   UNL     1       3.768  -5.993   1.010  0.00  0.00    +0.339 C 
ATOM     21  C   UNL     1       5.100  -6.467   1.598  0.00  0.00    +0.214 C 
ATOM     22  C   UNL     1       5.140  -7.998   1.583  0.00  0.00    +0.180 C 
ATOM     23  C   UNL     1       4.932  -8.488   0.147  0.00  0.00    +0.171 C 
ATOM     24  C   UNL     1       3.607  -7.936  -0.386  0.00  0.00    +0.198 C 
ATOM     25  O   UNL     1       3.624  -6.509  -0.315  0.00  0.00    -0.337 OA
BRANCH  23  26
ATOM     26  O   UNL     1       6.007  -8.029  -0.675  0.00  0.00    -0.387 OA
ATOM     27  H   UNL     1       5.940  -8.304  -1.600  0.00  0.00    +0.210 HD
ENDBRANCH  23  26
BRANCH  22  28
ATOM     28  O   UNL     1       6.408  -8.448   2.064  0.00  0.00    -0.386 OA
ATOM     29  H   UNL     1       6.503  -9.410   2.082  0.00  0.00    +0.210 HD
ENDBRANCH  22  28
BRANCH  21  30
ATOM     30  O   UNL     1       6.178  -5.951   0.815  0.00  0.00    -0.383 OA
ATOM     31  H   UNL     1       6.211  -4.986   0.778  0.00  0.00    +0.210 HD
ENDBRANCH  21  30
ENDBRANCH  19  20
ENDBRANCH   9  19
TORSDOF 6
