REMARK  Name = ZINC65132913
REMARK  8 active torsions:
REMARK  status: ('A' for Active; 'I' for Inactive)
REMARK    1  A    between atoms: C_1  and  C_2
REMARK    2  A    between atoms: C_2  and  C_3
REMARK    3  A    between atoms: C_2  and  C_4
REMARK    4  A    between atoms: C_4  and  C_5
REMARK    5  A    between atoms: C_5  and  N_6
REMARK    6  A    between atoms: N_9  and  N_10
REMARK    7  A    between atoms: C_11  and  C_13
REMARK    8  A    between atoms: C_18  and  C_20
REMARK                            x       y       z     vdW  Elec       q    Type
REMARK                         _______ _______ _______ _____ _____    ______ ____
ROOT
ATOM      1  N   UNL     1      -5.360  -3.464  -0.087  0.00  0.00    -0.232 N 
ATOM      2  C   UNL     1      -6.624  -3.930  -0.077  0.00  0.00    +0.250 C 
ATOM      3  O   UNL     1      -6.832  -5.121  -0.173  0.00  0.00    -0.272 OA
ATOM      4  H   UNL     1      -5.194  -2.511  -0.010  0.00  0.00    +0.173 HD
ENDROOT
BRANCH   2   5
ATOM      5  C   UNL     1      -7.780  -2.972   0.052  0.00  0.00    +0.164 C 
ATOM      6  C   UNL     1      -7.976  -2.584   1.533  0.00  0.00    +0.033 C 
ATOM      7  C   UNL     1      -9.520  -2.527   1.676  0.00  0.00    +0.021 C 
ATOM      8  C   UNL     1      -9.962  -3.676   0.736  0.00  0.00    +0.109 C 
ATOM      9  N   UNL     1      -9.020  -3.621  -0.397  0.00  0.00    -0.285 N 
ATOM     10  C   UNL     1      -9.258  -4.087  -1.639  0.00  0.00    +0.254 C 
ATOM     11  O   UNL     1      -8.403  -3.987  -2.500  0.00  0.00    -0.269 OA
BRANCH  10  12
ATOM     12  C   UNL     1     -10.543  -4.715  -1.952  0.00  0.00    +0.075 A 
ATOM     13  C   UNL     1     -10.982  -5.258  -3.151  0.00  0.00    +0.022 A 
ATOM     14  C   UNL     1     -12.252  -5.782  -3.140  0.00  0.00    +0.028 A 
ATOM     15  C   UNL     1     -12.975  -5.734  -1.991  0.00  0.00    +0.079 A 
ATOM     16  S   UNL     1     -11.950  -4.986  -0.890  0.00  0.00    -0.072 S 
ATOM     17 CL   UNL     1     -14.586  -6.320  -1.720  0.00  0.00    -0.076 Cl
ENDBRANCH  10  12
ENDBRANCH   2   5
BRANCH   1  21
ATOM     18  N   UNL     1      -2.790  -2.565  -0.111  0.00  0.00    -0.298 N 
ATOM     19  C   UNL     1      -3.021  -3.888  -0.217  0.00  0.00    +0.316 C 
ATOM     20  O   UNL     1      -2.088  -4.662  -0.322  0.00  0.00    -0.251 OA
ATOM     21  N   UNL     1      -4.285  -4.355  -0.208  0.00  0.00    -0.218 N 
ATOM     22  H   UNL     1      -3.534  -1.948  -0.027  0.00  0.00    +0.150 HD
ATOM     23  H   UNL     1      -4.451  -5.307  -0.285  0.00  0.00    +0.174 HD
BRANCH  18  24
ATOM     24  C   UNL     1      -1.416  -2.058  -0.121  0.00  0.00    +0.106 C 
BRANCH  24  25
ATOM     25  C   UNL     1      -1.433  -0.534   0.013  0.00  0.00    +0.022 C 
BRANCH  25  27
ATOM     26  C   UNL     1      -0.019   1.526   0.010  0.00  0.00    +0.007 C 
ATOM     27  C   UNL     1       0.002  -0.004   0.002  0.00  0.00    -0.016 C 
ATOM     28  C   UNL     1       0.742  -0.511   1.242  0.00  0.00    +0.007 C 
ENDBRANCH  25  27
ENDBRANCH  24  25
ENDBRANCH  18  24
ENDBRANCH   1  21
TORSDOF 6
