REMARK  Name = ZINC05014578
REMARK  9 active torsions:
REMARK  status: ('A' for Active; 'I' for Inactive)
REMARK    1  A    between atoms: C_1  and  N_2
REMARK    2  A    between atoms: C_3  and  C_17
REMARK    3  A    between atoms: C_6  and  S_7
REMARK    4  A    between atoms: S_7  and  C_8
REMARK    5  A    between atoms: C_8  and  C_9
REMARK    6  A    between atoms: C_10  and  C_11
REMARK    7  A    between atoms: C_17  and  S_18
REMARK    8  A    between atoms: S_18  and  C_19
REMARK    9  A    between atoms: C_23  and  N_25
REMARK                            x       y       z     vdW  Elec       q    Type
REMARK                         _______ _______ _______ _____ _____    ______ ____
ROOT
ATOM      1  C   UNL     1       1.216   1.336  -1.018  0.00  0.00    +0.152 C 
ATOM      2  N   UNL     1      -0.141   0.795  -0.898  0.00  0.00    -0.308 N 
ATOM      3  C   UNL     1      -1.316   1.490  -0.969  0.00  0.00    +0.144 A 
ATOM      4  N   UNL     1      -2.284   0.632  -0.813  0.00  0.00    -0.133 NA
ATOM      5  N   UNL     1      -1.805  -0.549  -0.649  0.00  0.00    -0.122 NA
ATOM      6  C   UNL     1      -0.493  -0.508  -0.692  0.00  0.00    +0.192 A 
ENDROOT
BRANCH   6   7
ATOM      7  S   UNL     1       0.604  -1.876  -0.517  0.00  0.00    -0.082 S 
BRANCH   7   8
ATOM      8  C   UNL     1      -0.595  -3.212  -0.283  0.00  0.00    +0.104 C 
BRANCH   8   9
ATOM      9  C   UNL     1       0.137  -4.518  -0.107  0.00  0.00    -0.015 C 
ATOM     10  C   UNL     1       0.084  -5.156   1.053  0.00  0.00    +0.004 C 
BRANCH  10  11
ATOM     11  C   UNL     1      -0.544  -4.509   2.225  0.00  0.00    -0.025 A 
ATOM     12  C   UNL     1      -0.369  -3.143   2.448  0.00  0.00    +0.008 A 
ATOM     13  C   UNL     1      -0.962  -2.544   3.540  0.00  0.00    +0.001 A 
ATOM     14  C   UNL     1      -1.719  -3.297   4.420  0.00  0.00    +0.000 A 
ATOM     15  C   UNL     1      -1.892  -4.653   4.207  0.00  0.00    +0.001 A 
ATOM     16  C   UNL     1      -1.309  -5.263   3.115  0.00  0.00    +0.008 A 
ENDBRANCH  10  11
ENDBRANCH   8   9
ENDBRANCH   7   8
ENDBRANCH   6   7
BRANCH   3  17
ATOM     17  C   UNL     1      -1.464   2.974  -1.188  0.00  0.00    +0.153 C 
BRANCH  17  18
ATOM     18  S   UNL     1      -1.475   3.822   0.411  0.00  0.00    -0.078 S 
BRANCH  18  19
ATOM     19  C   UNL     1      -1.654   5.490  -0.128  0.00  0.00    +0.192 A 
ATOM     20  N   UNL     1      -1.728   5.744  -1.427  0.00  0.00    -0.207 NA
ATOM     21  C   UNL     1      -1.869   6.991  -1.870  0.00  0.00    +0.122 A 
ATOM     22  C   UNL     1      -1.927   8.034  -0.951  0.00  0.00    +0.086 A 
ATOM     23  C   UNL     1      -1.841   7.729   0.404  0.00  0.00    +0.122 A 
ATOM     24  N   UNL     1      -1.706   6.458   0.775  0.00  0.00    -0.207 NA
ATOM     25  N   UNL     1      -1.951   7.247  -3.230  0.00  0.00    -0.343 N 
ATOM     26  H   UNL     1      -2.050   8.159  -3.546  0.00  0.00    +0.144 HD
ATOM     27  H   UNL     1      -1.910   6.515  -3.865  0.00  0.00    +0.144 HD
BRANCH  23  28
ATOM     28  N   UNL     1      -1.895   8.736   1.356  0.00  0.00    -0.343 N 
ATOM     29  H   UNL     1      -1.835   8.516   2.299  0.00  0.00    +0.144 HD
ATOM     30  H   UNL     1      -1.993   9.660   1.079  0.00  0.00    +0.144 HD
ENDBRANCH  23  28
ENDBRANCH  18  19
ENDBRANCH  17  18
ENDBRANCH   3  17
TORSDOF 8
