REMARK  Name = ZINC31283714
REMARK  13 active torsions:
REMARK  status: ('A' for Active; 'I' for Inactive)
REMARK    1  A    between atoms: C_1  and  C_2
REMARK    2  A    between atoms: C_2  and  C_3
REMARK    3  A    between atoms: C_3  and  C_4
REMARK    4  A    between atoms: C_3  and  C_5
REMARK    5  A    between atoms: C_3  and  C_6
REMARK    6  A    between atoms: C_9  and  N_12
REMARK    7  A    between atoms: C_13  and  C_15
REMARK    8  A    between atoms: C_15  and  C_16
REMARK    9  A    between atoms: C_16  and  C_17
REMARK   10  A    between atoms: C_19  and  C_22
REMARK   11  A    between atoms: C_22  and  C_23
REMARK   12  A    between atoms: C_22  and  C_24
REMARK   13  A    between atoms: C_22  and  C_25
REMARK                            x       y       z     vdW  Elec       q    Type
REMARK                         _______ _______ _______ _____ _____    ______ ____
ROOT
ATOM      1  N   UNL     1       2.916  -0.920   4.913  0.00  0.00    -0.312 N 
ATOM      2  C   UNL     1       4.259  -1.030   4.898  0.00  0.00    +0.214 C 
ATOM      3  O   UNL     1       4.881  -0.728   3.902  0.00  0.00    -0.276 OA
ATOM      4  H   UNL     1       2.352  -1.194   5.817  0.00  0.00    +0.149 HD
ENDROOT
BRANCH   1   8
ATOM      5  C   UNL     1       0.011   1.072   2.506  0.00  0.00    -0.005 C 
ATOM      6  C   UNL     1       1.446   1.602   2.495  0.00  0.00    +0.006 C 
ATOM      7  C   UNL     1       2.187   1.095   3.735  0.00  0.00    +0.022 C 
ATOM      8  C   UNL     1       2.207  -0.435   3.727  0.00  0.00    +0.073 C 
ATOM      9  C   UNL     1       0.772  -0.964   3.737  0.00  0.00    +0.022 C 
ATOM     10  C   UNL     1       0.032  -0.457   2.498  0.00  0.00    +0.006 C 
BRANCH   5  11
ATOM     11  C   UNL     1      -0.729   1.579   1.267  0.00  0.00    -0.032 C 
ATOM     12  C   UNL     1      -0.013   1.086   0.008  0.00  0.00    +0.011 C 
ATOM     13  C   UNL     1      -2.164   1.050   1.278  0.00  0.00    +0.011 C 
BRANCH  11  15
ATOM     14  C   UNL     1      -1.490   3.616   0.036  0.00  0.00    +0.004 C 
ATOM     15  C   UNL     1      -0.750   3.109   1.275  0.00  0.00    +0.003 C 
ENDBRANCH  11  15
ENDBRANCH   5  11
ENDBRANCH   1   8
BRANCH   2  16
ATOM     16  C   UNL     1       4.988  -1.530   6.119  0.00  0.00    +0.105 C 
BRANCH  16  17
ATOM     17  C   UNL     1       6.492  -1.559   5.839  0.00  0.00    +0.108 C 
BRANCH  17  18
ATOM     18  C   UNL     1       7.221  -2.058   7.060  0.00  0.00    +0.228 A 
ATOM     19  N   UNL     1       7.508  -3.306   7.342  0.00  0.00    -0.196 NA
ATOM     20  C   UNL     1       8.159  -3.271   8.518  0.00  0.00    +0.177 A 
ATOM     21  N   UNL     1       8.225  -2.027   8.889  0.00  0.00    -0.061 NA
ATOM     22  O   UNL     1       7.692  -1.315   8.065  0.00  0.00    -0.338 OA
BRANCH  20  23
ATOM     23  C   UNL     1       8.705  -4.456   9.272  0.00  0.00    +0.025 C 
ATOM     24  C   UNL     1       9.364  -3.978  10.566  0.00  0.00    +0.019 C 
ATOM     25  C   UNL     1       7.563  -5.418   9.606  0.00  0.00    +0.019 C 
ATOM     26  C   UNL     1       9.741  -5.176   8.407  0.00  0.00    +0.019 C 
ENDBRANCH  20  23
ENDBRANCH  17  18
ENDBRANCH  16  17
ENDBRANCH   2  16
TORSDOF 7
