REMARK  Name = ZINC63806828
REMARK  9 active torsions:
REMARK  status: ('A' for Active; 'I' for Inactive)
REMARK    1  A    between atoms: C_1  and  C_2
REMARK    2  A    between atoms: C_3  and  C_13
REMARK    3  A    between atoms: C_5  and  C_7
REMARK    4  A    between atoms: N_15  and  N_16
REMARK    5  A    between atoms: C_17  and  C_19
REMARK    6  A    between atoms: C_19  and  C_21
REMARK    7  A    between atoms: C_19  and  N_31
REMARK    8  A    between atoms: C_21  and  C_22
REMARK    9  A    between atoms: C_32  and  C_34
REMARK                            x       y       z     vdW  Elec       q    Type
REMARK                         _______ _______ _______ _____ _____    ______ ____
ROOT
ATOM      1  N   UNL     1      -0.014  -0.694  -4.911  0.00  0.00    -0.233 N 
ATOM      2  C   UNL     1      -0.007  -1.581  -5.925  0.00  0.00    +0.250 C 
ATOM      3  O   UNL     1       0.011  -2.771  -5.689  0.00  0.00    -0.272 OA
ATOM      4  H   UNL     1      -0.029   0.258  -5.099  0.00  0.00    +0.173 HD
ENDROOT
BRANCH   1   7
ATOM      5  C   UNL     1      -0.008  -0.258  -2.570  0.00  0.00    +0.269 C 
ATOM      6  O   UNL     1      -0.026   0.936  -2.807  0.00  0.00    -0.268 OA
ATOM      7  N   UNL     1      -0.001  -1.145  -3.584  0.00  0.00    -0.230 N 
ATOM      8  H   UNL     1       0.014  -2.097  -3.396  0.00  0.00    +0.173 HD
BRANCH   5  11
ATOM      9  C   UNL     1      -0.018   1.503   0.010  0.00  0.00    +0.067 C 
ATOM     10  C   UNL     1       0.002  -0.004   0.002  0.00  0.00    +0.058 A 
ATOM     11  C   UNL     1       0.006  -0.730  -1.183  0.00  0.00    +0.098 A 
ATOM     12  S   UNL     1       0.033  -2.398  -0.546  0.00  0.00    -0.062 S 
ATOM     13  C   UNL     1       0.036  -2.021   1.095  0.00  0.00    +0.109 A 
ATOM     14  N   UNL     1       0.022  -0.699   1.109  0.00  0.00    -0.243 NA
BRANCH  13  15
ATOM     15  C   UNL     1       0.054  -2.948   2.246  0.00  0.00    +0.007 A 
ATOM     16  C   UNL     1       0.048  -2.447   3.549  0.00  0.00    +0.010 A 
ATOM     17  C   UNL     1       0.064  -3.318   4.619  0.00  0.00    +0.001 A 
ATOM     18  C   UNL     1       0.088  -4.684   4.403  0.00  0.00    +0.000 A 
ATOM     19  C   UNL     1       0.094  -5.187   3.114  0.00  0.00    +0.001 A 
ATOM     20  C   UNL     1       0.072  -4.328   2.035  0.00  0.00    +0.010 A 
ENDBRANCH  13  15
ENDBRANCH   5  11
ENDBRANCH   1   7
BRANCH   2  21
ATOM     21  C   UNL     1      -0.021  -1.096  -7.351  0.00  0.00    +0.164 C 
BRANCH  21  22
ATOM     22  N   UNL     1      -0.483  -2.174  -8.229  0.00  0.00    -0.304 N 
ATOM     23  C   UNL     1       0.199  -3.334  -8.288  0.00  0.00    +0.211 C 
ATOM     24  O   UNL     1       1.196  -3.487  -7.613  0.00  0.00    -0.276 OA
ATOM     25  C   UNL     1      -0.276  -4.443  -9.191  0.00  0.00    +0.109 C 
ATOM     26  H   UNL     1      -1.280  -2.052  -8.769  0.00  0.00    +0.149 HD
ENDBRANCH  21  22
BRANCH  21  27
ATOM     27  C   UNL     1       1.391  -0.674  -7.761  0.00  0.00    +0.065 C 
BRANCH  27  28
ATOM     28  C   UNL     1       1.356  -0.075  -9.143  0.00  0.00    -0.039 C 
ATOM     29  C   UNL     1       1.268   1.238  -9.458  0.00  0.00    -0.001 A 
ATOM     30  C   UNL     1       1.181   2.453  -8.640  0.00  0.00    +0.010 A 
ATOM     31  C   UNL     1       1.102   3.655  -9.256  0.00  0.00    +0.001 A 
ATOM     32  C   UNL     1       1.099   3.768 -10.653  0.00  0.00    +0.002 A 
ATOM     33  C   UNL     1       1.176   2.697 -11.472  0.00  0.00    +0.026 A 
ATOM     34  C   UNL     1       1.264   1.384 -10.931  0.00  0.00    +0.043 A 
ATOM     35  N   UNL     1       1.346   0.208 -11.505  0.00  0.00    -0.380 N 
ATOM     36  C   UNL     1       1.417  -0.818 -10.459  0.00  0.00    +0.144 C 
ATOM     37  H   UNL     1       1.361   0.044 -12.460  0.00  0.00    +0.160 HD
ENDBRANCH  27  28
ENDBRANCH  21  27
ENDBRANCH   2  21
TORSDOF 7
