REMARK  Name = ZINC05000301
REMARK  7 active torsions:
REMARK  status: ('A' for Active; 'I' for Inactive)
REMARK    1  A    between atoms: C_4  and  C_7
REMARK    2  A    between atoms: C_7  and  C_8
REMARK    3  A    between atoms: C_8  and  N_48
REMARK    4  A    between atoms: C_9  and  C_10
REMARK    5  A    between atoms: C_9  and  N_48
REMARK    6  A    between atoms: C_19  and  C_20
REMARK    7  A    between atoms: C_19  and  N_48
REMARK                            x       y       z     vdW  Elec       q    Type
REMARK                         _______ _______ _______ _____ _____    ______ ____
ROOT
ATOM      1  N   UNL     1       0.065  -0.572   1.476  0.00  0.00    +0.387 N 
ATOM      2  H   UNL     1       0.769  -0.032   1.993  0.00  0.00    -0.081 HD
ENDROOT
BRANCH   1   3
ATOM      3  C   UNL     1       0.363  -2.012   1.619  0.00  0.00    -0.073 C 
BRANCH   3   4
ATOM      4  C   UNL     1       0.657  -2.310   3.091  0.00  0.00    +0.016 C 
BRANCH   4   8
ATOM      5  C   UNL     1       1.931  -6.367   3.498  0.00  0.00    +0.000 A 
ATOM      6  C   UNL     1       2.862  -5.369   3.275  0.00  0.00    +0.000 A 
ATOM      7  C   UNL     1       2.449  -4.056   3.143  0.00  0.00    +0.003 A 
ATOM      8  C   UNL     1       1.106  -3.741   3.235  0.00  0.00    -0.049 A 
ATOM      9  C   UNL     1       0.177  -4.738   3.463  0.00  0.00    +0.003 A 
ATOM     10  C   UNL     1       0.589  -6.051   3.590  0.00  0.00    +0.000 A 
ENDBRANCH   4   8
ENDBRANCH   3   4
ENDBRANCH   1   3
BRANCH   1  11
ATOM     11  C   UNL     1       0.115  -0.185   0.051  0.00  0.00    -0.024 C 
BRANCH  11  12
ATOM     12  C   UNL     1       0.177   1.318  -0.041  0.00  0.00    +0.001 A 
ATOM     13  C   UNL     1       1.304   2.048  -0.147  0.00  0.00    +0.036 A 
ATOM     14  C   UNL     1       0.931   3.394  -0.206  0.00  0.00    +0.037 A 
ATOM     15  C   UNL     1      -0.458   3.479  -0.133  0.00  0.00    +0.054 A 
ATOM     16  N   UNL     1      -0.900   2.157  -0.035  0.00  0.00    -0.359 N 
ATOM     17  H   UNL     1      -1.827   1.879   0.029  0.00  0.00    +0.166 HD
ATOM     18  C   UNL     1      -0.998   4.774  -0.180  0.00  0.00    +0.034 A 
ATOM     19  C   UNL     1      -0.181   5.842  -0.288  0.00  0.00    +0.048 A 
ATOM     20  S   UNL     1       1.437   5.089  -0.335  0.00  0.00    -0.095 S 
ENDBRANCH  11  12
ENDBRANCH   1  11
BRANCH   1  21
ATOM     21  C   UNL     1      -1.271  -0.275   2.034  0.00  0.00    -0.024 C 
BRANCH  21  22
ATOM     22  C   UNL     1      -2.326  -1.106   1.349  0.00  0.00    +0.001 A 
ATOM     23  C   UNL     1      -2.801  -2.285   1.794  0.00  0.00    +0.036 A 
ATOM     24  C   UNL     1      -3.760  -2.726   0.878  0.00  0.00    +0.037 A 
ATOM     25  C   UNL     1      -3.868  -1.789  -0.147  0.00  0.00    +0.054 A 
ATOM     26  N   UNL     1      -2.956  -0.782   0.183  0.00  0.00    -0.359 N 
ATOM     27  H   UNL     1      -2.796   0.021  -0.338  0.00  0.00    +0.166 HD
ATOM     28  C   UNL     1      -4.797  -2.086  -1.156  0.00  0.00    +0.034 A 
ATOM     29  C   UNL     1      -5.520  -3.222  -1.095  0.00  0.00    +0.048 A 
ATOM     30  S   UNL     1      -4.936  -3.972   0.416  0.00  0.00    -0.095 S 
ENDBRANCH  21  22
ENDBRANCH   1  21
TORSDOF 7
