REMARK  Name = ZINC13453789
REMARK  15 active torsions:
REMARK  status: ('A' for Active; 'I' for Inactive)
REMARK    1  A    between atoms: C_1  and  C_2
REMARK    2  A    between atoms: C_2  and  C_3
REMARK    3  A    between atoms: C_3  and  N_4
REMARK    4  A    between atoms: N_4  and  C_5
REMARK    5  A    between atoms: C_8  and  S_24
REMARK    6  A    between atoms: C_10  and  N_11
REMARK    7  A    between atoms: N_11  and  S_12
REMARK    8  A    between atoms: S_12  and  C_15
REMARK    9  A    between atoms: C_18  and  O_23
REMARK   10  A    between atoms: C_19  and  C_21
REMARK   11  A    between atoms: S_24  and  N_27
REMARK   12  A    between atoms: N_27  and  C_28
REMARK   13  A    between atoms: N_27  and  C_30
REMARK   14  A    between atoms: C_28  and  C_29
REMARK   15  A    between atoms: C_30  and  C_31
REMARK                            x       y       z     vdW  Elec       q    Type
REMARK                         _______ _______ _______ _____ _____    ______ ____
ROOT
ATOM      1  C   UNL     1       2.294   1.192  -0.701  0.00  0.00    +0.050 A 
ATOM      2  C   UNL     1       3.480   1.909  -0.710  0.00  0.00    +0.027 A 
ATOM      3  C   UNL     1       3.572   3.101  -0.015  0.00  0.00    +0.030 A 
ATOM      4  C   UNL     1       2.482   3.585   0.684  0.00  0.00    +0.107 A 
ATOM      5  C   UNL     1       1.293   2.879   0.693  0.00  0.00    +0.055 A 
ATOM      6  C   UNL     1       1.192   1.682  -0.000  0.00  0.00    +0.071 A 
ENDROOT
BRANCH   4   7
ATOM      7  S   UNL     1       2.608   5.104   1.567  0.00  0.00    +0.061 S 
ATOM      8  O   UNL     1       3.655   5.845   0.954  0.00  0.00    -0.153 OA
ATOM      9  O   UNL     1       1.286   5.613   1.691  0.00  0.00    -0.153 OA
BRANCH   7  10
ATOM     10  N   UNL     1       3.120   4.740   3.099  0.00  0.00    -0.177 NA
BRANCH  10  11
ATOM     11  C   UNL     1       4.552   4.697   3.402  0.00  0.00    +0.106 C 
ATOM     12  C   UNL     1       4.995   6.047   3.969  0.00  0.00    +0.022 C 
ENDBRANCH  10  11
BRANCH  10  13
ATOM     13  C   UNL     1       2.140   4.461   4.152  0.00  0.00    +0.106 C 
ATOM     14  C   UNL     1       1.922   2.950   4.258  0.00  0.00    +0.022 C 
ENDBRANCH  10  13
ENDBRANCH   7  10
ENDBRANCH   4   7
BRANCH   1  15
ATOM     15  N   UNL     1       2.200  -0.018  -1.399  0.00  0.00    -0.342 N 
ATOM     16  H   UNL     1       1.368  -0.517  -1.395  0.00  0.00    +0.146 HD
BRANCH  15  17
ATOM     17  C   UNL     1       3.359  -0.532  -2.134  0.00  0.00    +0.101 C 
BRANCH  17  19
ATOM     18  C   UNL     1       4.202  -2.394  -3.570  0.00  0.00    +0.005 C 
ATOM     19  C   UNL     1       2.992  -1.859  -2.802  0.00  0.00    +0.015 C 
ENDBRANCH  17  19
ENDBRANCH  15  17
ENDBRANCH   1  15
BRANCH   6  20
ATOM     20  N   UNL     1      -0.011   0.966   0.007  0.00  0.00    -0.214 N 
ATOM     21  H   UNL     1       0.002  -0.004   0.002  0.00  0.00    +0.174 HD
BRANCH  20  22
ATOM     22  S   UNL     1      -1.456   1.774   0.019  0.00  0.00    +0.072 S 
ATOM     23  O   UNL     1      -2.475   0.784  -0.009  0.00  0.00    -0.150 OA
ATOM     24  O   UNL     1      -1.369   2.749   1.049  0.00  0.00    -0.150 OA
BRANCH  22  25
ATOM     25  C   UNL     1      -1.571   2.658  -1.502  0.00  0.00    +0.110 A 
ATOM     26  C   UNL     1      -1.087   3.953  -1.584  0.00  0.00    +0.032 A 
ATOM     27  C   UNL     1      -1.166   4.654  -2.771  0.00  0.00    +0.048 A 
ATOM     28  C   UNL     1      -1.743   4.068  -3.888  0.00  0.00    +0.131 A 
ATOM     29  C   UNL     1      -2.239   2.759  -3.807  0.00  0.00    +0.106 A 
ATOM     30  C   UNL     1      -2.147   2.059  -2.601  0.00  0.00    +0.047 A 
BRANCH  29  31
ATOM     31  C   UNL     1      -2.853   2.124  -4.987  0.00  0.00    +0.390 C 
ATOM     32  O   UNL     1      -2.931   2.736  -6.034  0.00  0.00    -0.240 OA
ATOM     33  O   UNL     1      -3.328   0.866  -4.905  0.00  0.00    -0.240 OA
ENDBRANCH  29  31
BRANCH  28  34
ATOM     34  O   UNL     1      -1.826   4.757  -5.053  0.00  0.00    -0.506 OA
ATOM     35  H   UNL     1      -2.640   5.271  -5.148  0.00  0.00    +0.292 HD
ENDBRANCH  28  34
ENDBRANCH  22  25
ENDBRANCH  20  22
ENDBRANCH   6  20
TORSDOF 12
