REMARK  Name = ZINC37281729
REMARK  5 active torsions:
REMARK  status: ('A' for Active; 'I' for Inactive)
REMARK    1  A    between atoms: C_1  and  O_2
REMARK    2  A    between atoms: O_2  and  C_3
REMARK    3  A    between atoms: C_9  and  N_11
REMARK    4  A    between atoms: N_11  and  C_12
REMARK    5  A    between atoms: C_15  and  N_19
REMARK                            x       y       z     vdW  Elec       q    Type
REMARK                         _______ _______ _______ _____ _____    ______ ____
ROOT
ATOM      1  N   UNL     1       2.251  -1.703  -0.372  0.00  0.00    -0.337 N 
ATOM      2  H   UNL     1       2.678  -0.838  -0.476  0.00  0.00    +0.146 HD
ENDROOT
BRANCH   1   3
ATOM      3  C   UNL     1       2.552  -2.741  -1.258  0.00  0.00    +0.046 A 
ATOM      4  C   UNL     1       1.937  -3.978  -1.115  0.00  0.00    +0.026 A 
ATOM      5  C   UNL     1       2.236  -5.002  -1.992  0.00  0.00    +0.034 A 
ATOM      6  C   UNL     1       3.147  -4.798  -3.012  0.00  0.00    +0.128 A 
ATOM      7  C   UNL     1       3.761  -3.567  -3.159  0.00  0.00    +0.054 A 
ATOM      8  C   UNL     1       3.462  -2.537  -2.288  0.00  0.00    +0.064 A 
ATOM      9 CL   UNL     1       4.229  -0.990  -2.476  0.00  0.00    -0.082 Cl
BRANCH   6  10
ATOM     10  N   UNL     1       3.465  -5.898  -3.950  0.00  0.00    +0.056 N 
ATOM     11  O   UNL     1       2.929  -6.974  -3.823  0.00  0.00    -0.126 OA
ATOM     12  O   UNL     1       4.261  -5.721  -4.842  0.00  0.00    -0.126 OA
ENDBRANCH   6  10
ENDBRANCH   1   3
BRANCH   1  18
ATOM     13  C   UNL     1       0.673  -0.582   1.123  0.00  0.00    +0.138 C 
ATOM     14  C   UNL     1      -0.329  -0.810   2.256  0.00  0.00    +0.033 C 
ATOM     15  C   UNL     1       0.390  -1.429   3.457  0.00  0.00    +0.003 C 
ATOM     16  C   UNL     1       1.008  -2.767   3.046  0.00  0.00    +0.002 C 
ATOM     17  C   UNL     1       2.010  -2.540   1.913  0.00  0.00    +0.025 C 
ATOM     18  C   UNL     1       1.291  -1.921   0.713  0.00  0.00    +0.099 C 
BRANCH  13  20
ATOM     19  C   UNL     1      -0.017   1.425   0.010  0.00  0.00    +0.194 C 
ATOM     20  O   UNL     1       0.002  -0.004   0.002  0.00  0.00    -0.378 OA
ENDBRANCH  13  20
ENDBRANCH   1  18
TORSDOF 4
