REMARK  Name = ZINC39012290
REMARK  8 active torsions:
REMARK  status: ('A' for Active; 'I' for Inactive)
REMARK    1  A    between atoms: C_1  and  C_2
REMARK    2  A    between atoms: C_2  and  C_3
REMARK    3  A    between atoms: C_3  and  C_4
REMARK    4  A    between atoms: C_3  and  C_5
REMARK    5  A    between atoms: C_3  and  C_6
REMARK    6  A    between atoms: C_13  and  C_17
REMARK    7  A    between atoms: N_19  and  N_20
REMARK    8  A    between atoms: C_21  and  C_22
REMARK                            x       y       z     vdW  Elec       q    Type
REMARK                         _______ _______ _______ _____ _____    ______ ____
ROOT
ATOM      1  C   UNL     1       1.017  -5.118  -4.472  0.00  0.00    +0.263 C 
ATOM      2  O   UNL     1       0.219  -6.030  -4.429  0.00  0.00    -0.271 OA
ATOM      3  N   UNL     1       0.941  -4.202  -5.457  0.00  0.00    -0.205 N 
ATOM      4  H   UNL     1       1.579  -3.472  -5.492  0.00  0.00    +0.177 HD
ENDROOT
BRANCH   1  11
ATOM      5  C   UNL     1       0.739  -2.027  -1.265  0.00  0.00    -0.001 C 
ATOM      6  C   UNL     1       1.482  -2.536  -0.026  0.00  0.00    +0.010 C 
ATOM      7  C   UNL     1       1.304  -4.053   0.096  0.00  0.00    +0.057 C 
ATOM      8  C   UNL     1       1.654  -4.686  -1.233  0.00  0.00    +0.065 C 
ATOM      9  C   UNL     1       1.718  -3.994  -2.375  0.00  0.00    -0.012 C 
ATOM     10  C   UNL     1       1.460  -2.524  -2.526  0.00  0.00    +0.039 C 
ATOM     11  C   UNL     1       2.094  -5.009  -3.423  0.00  0.00    +0.243 C 
ATOM     12  N   UNL     1       2.197  -6.257  -2.642  0.00  0.00    -0.170 NA
ATOM     13  N   UNL     1       1.942  -5.987  -1.464  0.00  0.00    -0.158 NA
BRANCH   5  14
ATOM     14  C   UNL     1       0.718  -0.497  -1.257  0.00  0.00    -0.032 C 
ATOM     15  C   UNL     1      -0.022   0.009  -2.496  0.00  0.00    +0.011 C 
ATOM     16  C   UNL     1       2.154   0.032  -1.268  0.00  0.00    +0.011 C 
BRANCH  14  18
ATOM     17  C   UNL     1      -0.019   1.526   0.010  0.00  0.00    +0.004 C 
ATOM     18  C   UNL     1       0.002  -0.004   0.002  0.00  0.00    +0.003 C 
ENDBRANCH  14  18
ENDBRANCH   5  14
ENDBRANCH   1  11
BRANCH   3  19
ATOM     19  N   UNL     1      -0.060  -4.303  -6.432  0.00  0.00    -0.188 NA
ATOM     20  C   UNL     1      -0.134  -3.413  -7.390  0.00  0.00    +0.136 C 
BRANCH  20  21
ATOM     21  C   UNL     1      -1.136  -3.514  -8.366  0.00  0.00    +0.000 C 
ATOM     22  C   UNL     1      -1.349  -2.661  -9.446  0.00  0.00    +0.004 A 
ATOM     23  C   UNL     1      -0.682  -1.498  -9.889  0.00  0.00    +0.010 A 
ATOM     24  C   UNL     1      -1.119  -0.854 -11.000  0.00  0.00    +0.001 A 
ATOM     25  C   UNL     1      -2.222  -1.313 -11.727  0.00  0.00    +0.002 A 
ATOM     26  C   UNL     1      -2.909  -2.421 -11.361  0.00  0.00    +0.026 A 
ATOM     27  C   UNL     1      -2.512  -3.149 -10.208  0.00  0.00    +0.043 A 
ATOM     28  N   UNL     1      -3.003  -4.236  -9.652  0.00  0.00    -0.380 N 
ATOM     29  C   UNL     1      -2.208  -4.577  -8.469  0.00  0.00    +0.150 C 
ATOM     30  H   UNL     1      -3.769  -4.736  -9.977  0.00  0.00    +0.160 HD
ENDBRANCH  20  21
ENDBRANCH   3  19
TORSDOF 5
