REMARK  Name = ZINC13165367
REMARK  4 active torsions:
REMARK  status: ('A' for Active; 'I' for Inactive)
REMARK    1  A    between atoms: C_6  and  N_11
REMARK    2  A    between atoms: C_7  and  C_8
REMARK    3  A    between atoms: C_12  and  C_14
REMARK    4  A    between atoms: C_14  and  N_15
REMARK                            x       y       z     vdW  Elec       q    Type
REMARK                         _______ _______ _______ _____ _____    ______ ____
ROOT
ATOM      1  N   UNL     1       4.812  -1.439   2.296  0.00  0.00    -0.278 N 
ATOM      2  C   UNL     1       4.833  -2.727   2.694  0.00  0.00    +0.235 C 
ATOM      3  O   UNL     1       3.857  -3.428   2.528  0.00  0.00    -0.274 OA
ATOM      4  H   UNL     1       5.593  -0.878   2.428  0.00  0.00    +0.155 HD
ENDROOT
BRANCH   1  10
ATOM      5  C   UNL     1      -0.019   1.541   0.011  0.00  0.00    +0.010 C 
ATOM      6  C   UNL     1       1.486   1.876  -0.002  0.00  0.00    +0.037 C 
ATOM      7  C   UNL     1       2.176   0.671   0.633  0.00  0.00    -0.023 A 
ATOM      8  C   UNL     1       1.324  -0.370   0.621  0.00  0.00    -0.004 A 
ATOM      9  S   UNL     1       2.228  -1.698   1.373  0.00  0.00    -0.077 S 
ATOM     10  C   UNL     1       3.676  -0.916   1.697  0.00  0.00    +0.084 A 
ATOM     11  C   UNL     1       3.477   0.369   1.229  0.00  0.00    +0.068 A 
ATOM     12  C   UNL     1       0.002  -0.004   0.002  0.00  0.00    +0.043 C 
BRANCH  11  13
ATOM     13  C   UNL     1       4.527   1.388   1.326  0.00  0.00    +0.244 C 
ATOM     14  O   UNL     1       4.596   2.098   2.312  0.00  0.00    -0.270 OA
ATOM     15  N   UNL     1       5.415   1.538   0.324  0.00  0.00    -0.325 N 
ATOM     16  H   UNL     1       5.360   0.972  -0.462  0.00  0.00    +0.145 HD
ATOM     17  H   UNL     1       6.110   2.212   0.388  0.00  0.00    +0.145 HD
ENDBRANCH  11  13
ENDBRANCH   1  10
BRANCH   2  18
ATOM     18  C   UNL     1       6.067  -3.295   3.345  0.00  0.00    +0.212 C 
BRANCH  18  19
ATOM     19  N   UNL     1       5.838  -4.702   3.682  0.00  0.00    -0.233 N 
ATOM     20  C   UNL     1       5.325  -5.101   4.862  0.00  0.00    +0.226 C 
ATOM     21  O   UNL     1       4.807  -4.391   5.698  0.00  0.00    -0.275 OA
ATOM     22  C   UNL     1       5.518  -6.624   4.951  0.00  0.00    +0.091 C 
ATOM     23  C   UNL     1       6.905  -6.806   5.574  0.00  0.00    +0.040 C 
ATOM     24  C   UNL     1       7.635  -7.994   5.051  0.00  0.00    -0.030 C 
ATOM     25  C   UNL     1       7.343  -8.620   3.960  0.00  0.00    -0.030 C 
ATOM     26  C   UNL     1       6.181  -8.255   3.090  0.00  0.00    +0.040 C 
ATOM     27  C   UNL     1       5.525  -6.954   3.450  0.00  0.00    +0.091 C 
ATOM     28  C   UNL     1       6.117  -5.718   2.836  0.00  0.00    +0.226 C 
ATOM     29  O   UNL     1       6.725  -5.648   1.790  0.00  0.00    -0.275 OA
ENDBRANCH  18  19
ENDBRANCH   2  18
TORSDOF 4
