REMARK  Name = ZINC67544518
REMARK  9 active torsions:
REMARK  status: ('A' for Active; 'I' for Inactive)
REMARK    1  A    between atoms: C_1  and  C_2
REMARK    2  A    between atoms: C_6  and  C_24
REMARK    3  A    between atoms: C_7  and  N_8
REMARK    4  A    between atoms: N_11  and  C_12
REMARK    5  A    between atoms: C_12  and  C_13
REMARK    6  A    between atoms: C_13  and  C_15
REMARK    7  A    between atoms: C_13  and  O_23
REMARK    8  A    between atoms: C_15  and  N_16
REMARK    9  A    between atoms: C_19  and  C_22
REMARK                            x       y       z     vdW  Elec       q    Type
REMARK                         _______ _______ _______ _____ _____    ______ ____
ROOT
ATOM      1  N   UNL     1      -0.507   0.013   2.393  0.00  0.00    -0.269 N 
ATOM      2  C   UNL     1      -0.575  -0.665   3.555  0.00  0.00    +0.304 C 
ATOM      3  O   UNL     1      -0.562  -1.881   3.551  0.00  0.00    -0.253 OA
ATOM      4  N   UNL     1      -0.656   0.004   4.722  0.00  0.00    -0.297 N 
ATOM      5  H   UNL     1      -0.571   0.981   2.391  0.00  0.00    +0.156 HD
ATOM      6  H   UNL     1      -0.666   0.974   4.725  0.00  0.00    +0.150 HD
ENDROOT
BRANCH   1  13
ATOM      7  C   UNL     1       1.680  -1.792   2.163  0.00  0.00    +0.046 C 
ATOM      8  C   UNL     1       0.710  -1.570   1.032  0.00  0.00    -0.028 A 
ATOM      9  C   UNL     1       0.864  -2.256  -0.156  0.00  0.00    +0.020 A 
ATOM     10  C   UNL     1      -0.027  -2.052  -1.195  0.00  0.00    +0.018 A 
ATOM     11  C   UNL     1      -1.075  -1.160  -1.046  0.00  0.00    +0.020 A 
ATOM     12  C   UNL     1      -1.233  -0.471   0.140  0.00  0.00    -0.028 A 
ATOM     13  C   UNL     1      -0.344  -0.679   1.187  0.00  0.00    +0.041 A 
ATOM     14  C   UNL     1      -2.374   0.500   0.301  0.00  0.00    +0.046 C 
ATOM     15 BR   UNL     1       0.188  -2.993  -2.821  0.00  0.00    -0.050 Br
ENDBRANCH   1  13
BRANCH   4  16
ATOM     16  C   UNL     1      -0.730  -0.733   5.986  0.00  0.00    +0.135 C 
BRANCH  16  17
ATOM     17  C   UNL     1      -0.815   0.257   7.150  0.00  0.00    +0.115 C 
BRANCH  17  18
ATOM     18  O   UNL     1      -2.040   0.986   7.066  0.00  0.00    -0.392 OA
ATOM     19  H   UNL     1      -2.832   0.432   7.104  0.00  0.00    +0.210 HD
ENDBRANCH  17  18
BRANCH  17  20
ATOM     20  C   UNL     1      -0.766  -0.508   8.474  0.00  0.00    -0.046 C 
BRANCH  20  21
ATOM     21  N   UNL     1      -0.864   0.441   9.591  0.00  0.00    +0.381 N 
ATOM     22  C   UNL     1      -0.977  -0.301  10.853  0.00  0.00    -0.078 C 
ATOM     23  C   UNL     1      -1.161   0.681  12.011  0.00  0.00    -0.016 C 
ATOM     24  C   UNL     1       0.048   1.619  12.075  0.00  0.00    -0.018 C 
ATOM     25  C   UNL     1       0.200   2.332  10.729  0.00  0.00    -0.016 C 
ATOM     26  C   UNL     1       0.333   1.289   9.617  0.00  0.00    -0.078 C 
ATOM     27  C   UNL     1      -0.166   2.655  13.181  0.00  0.00    +0.007 C 
ATOM     28  H   UNL     1      -1.682   1.019   9.469  0.00  0.00    -0.082 HD
ENDBRANCH  20  21
ENDBRANCH  17  20
ENDBRANCH  16  17
ENDBRANCH   4  16
TORSDOF 6
