REMARK  Name = ZINC21475780
REMARK  9 active torsions:
REMARK  status: ('A' for Active; 'I' for Inactive)
REMARK    1  A    between atoms: C_1  and  C_2
REMARK    2  A    between atoms: C_4  and  C_8
REMARK    3  A    between atoms: C_5  and  C_7
REMARK    4  A    between atoms: C_10  and  C_20
REMARK    5  A    between atoms: N_14  and  C_17
REMARK    6  A    between atoms: C_17  and  C_18
REMARK    7  A    between atoms: C_17  and  C_19
REMARK    8  A    between atoms: N_22  and  C_23
REMARK    9  A    between atoms: C_32  and  C_35
REMARK                            x       y       z     vdW  Elec       q    Type
REMARK                         _______ _______ _______ _____ _____    ______ ____
ROOT
ATOM      1  C   UNL     1       2.378   0.175  -0.007  0.00  0.00    +0.077 A 
ATOM      2  C   UNL     1       1.221  -0.611   0.001  0.00  0.00    +0.042 A 
ATOM      3  C   UNL     1      -0.017   0.000  -0.159  0.00  0.00    +0.051 A 
ATOM      4  C   UNL     1      -0.046   1.405  -0.325  0.00  0.00    +0.051 A 
ATOM      5  C   UNL     1      -1.083   2.343  -0.514  0.00  0.00    +0.145 A 
ATOM      6  N   UNL     1      -0.556   3.531  -0.609  0.00  0.00    -0.177 NA
ATOM      7  N   UNL     1       0.837   3.441  -0.498  0.00  0.00    -0.244 N 
ATOM      8  C   UNL     1       1.167   2.122  -0.321  0.00  0.00    +0.160 A 
ATOM      9  N   UNL     1       2.319   1.487  -0.163  0.00  0.00    -0.227 NA
ENDROOT
BRANCH   1  13
ATOM     10  C   UNL     1       6.045  -3.320   0.663  0.00  0.00    +0.086 C 
ATOM     11  C   UNL     1       5.296  -2.028   0.459  0.00  0.00    +0.103 A 
ATOM     12  C   UNL     1       3.963  -1.908   0.349  0.00  0.00    +0.054 A 
ATOM     13  C   UNL     1       3.699  -0.476   0.164  0.00  0.00    +0.041 A 
ATOM     14  C   UNL     1       4.916   0.128   0.176  0.00  0.00    +0.111 A 
ATOM     15  O   UNL     1       5.854  -0.812   0.359  0.00  0.00    -0.464 OA
ATOM     16  C   UNL     1       5.169   1.605   0.015  0.00  0.00    +0.087 C 
ENDBRANCH   1  13
BRANCH   3  17
ATOM     17  C   UNL     1      -1.264  -0.793  -0.158  0.00  0.00    +0.249 C 
ATOM     18  O   UNL     1      -2.337  -0.239  -0.300  0.00  0.00    -0.270 OA
ATOM     19  N   UNL     1      -1.212  -2.130   0.002  0.00  0.00    -0.281 N 
ATOM     20  H   UNL     1      -0.239  -2.642   0.043  0.00  0.00    +0.155 HD
BRANCH  19  21
ATOM     21  C   UNL     1      -2.396  -2.868   0.114  0.00  0.00    +0.036 A 
ATOM     22  C   UNL     1      -2.460  -4.160  -0.394  0.00  0.00    +0.027 A 
ATOM     23  C   UNL     1      -3.627  -4.892  -0.284  0.00  0.00    +0.049 A 
ATOM     24  C   UNL     1      -4.736  -4.339   0.333  0.00  0.00    +0.143 A 
ATOM     25  C   UNL     1      -4.675  -3.043   0.843  0.00  0.00    +0.077 A 
ATOM     26  C   UNL     1      -3.505  -2.311   0.739  0.00  0.00    +0.050 A 
ATOM     27  N   UNL     1      -5.808  -2.497   1.464  0.00  0.00    -0.279 N 
ATOM     28  C   UNL     1      -6.812  -3.320   1.836  0.00  0.00    +0.258 C 
ATOM     29  O   UNL     1      -7.813  -2.866   2.348  0.00  0.00    -0.271 OA
ATOM     30  C   UNL     1      -6.682  -4.806   1.614  0.00  0.00    +0.256 C 
ATOM     31  O   UNL     1      -5.891  -5.050   0.448  0.00  0.00    -0.478 OA
ATOM     32  C   UNL     1      -6.008  -5.445   2.830  0.00  0.00    +0.062 C 
ATOM     33  H   UNL     1      -5.869  -1.413   1.641  0.00  0.00    +0.155 HD
ENDBRANCH  19  21
ENDBRANCH   3  17
BRANCH   7  34
ATOM     34  C   UNL     1       1.778   4.562  -0.560  0.00  0.00    +0.103 C 
ATOM     35  C   UNL     1       1.645   5.265  -1.912  0.00  0.00    +0.032 C 
ATOM     36  C   UNL     1       1.466   5.553   0.564  0.00  0.00    +0.032 C 
ENDBRANCH   7  34
TORSDOF 4
