REMARK  Name = ZINC04802756
REMARK  8 active torsions:
REMARK  status: ('A' for Active; 'I' for Inactive)
REMARK    1  A    between atoms: C_1  and  N_2
REMARK    2  A    between atoms: N_11  and  C_28
REMARK    3  A    between atoms: C_19  and  C_20
REMARK    4  A    between atoms: C_19  and  N_59
REMARK    5  A    between atoms: C_21  and  C_22
REMARK    6  A    between atoms: C_28  and  C_29
REMARK    7  A    between atoms: C_29  and  O_30
REMARK    8  A    between atoms: O_30  and  C_31
REMARK                            x       y       z     vdW  Elec       q    Type
REMARK                         _______ _______ _______ _____ _____    ______ ____
ROOT
ATOM      1  C   UNL     1       8.133  -0.917   5.098  0.00  0.00    +0.155 C 
ATOM      2  N   UNL     1       7.235  -0.266   6.056  0.00  0.00    -0.280 N 
ATOM      3  C   UNL     1       6.123   0.425   5.603  0.00  0.00    +0.170 A 
ATOM      4  C   UNL     1       5.287   1.033   6.533  0.00  0.00    +0.153 A 
ATOM      5  C   UNL     1       5.593   0.930   7.902  0.00  0.00    +0.280 A 
ATOM      6  O   UNL     1       4.874   1.454   8.734  0.00  0.00    -0.265 OA
ATOM      7  N   UNL     1       6.690   0.244   8.283  0.00  0.00    -0.273 N 
ATOM      8  H   UNL     1       6.910   0.168   9.256  0.00  0.00    +0.173 HD
ATOM      9  C   UNL     1       7.492  -0.341   7.376  0.00  0.00    +0.331 A 
ATOM     10  O   UNL     1       8.472  -0.951   7.756  0.00  0.00    -0.246 OA
ATOM     11  N   UNL     1       4.275   1.647   5.807  0.00  0.00    -0.304 N 
ATOM     12  C   UNL     1       4.522   1.387   4.496  0.00  0.00    +0.201 A 
ATOM     13  N   UNL     1       5.620   0.667   4.391  0.00  0.00    -0.196 NA
ATOM     14  N   UNL     1       3.749   1.816   3.441  0.00  0.00    -0.304 N 
ATOM     15  C   UNL     1       4.583   2.147   2.277  0.00  0.00    +0.089 C 
ATOM     16  C   UNL     1       3.695   2.693   1.156  0.00  0.00    -0.059 C 
ATOM     17  C   UNL     1       1.847   1.359   1.970  0.00  0.00    -0.059 C 
ATOM     18  C   UNL     1       2.734   0.813   3.090  0.00  0.00    +0.089 C 
ATOM     19  N   UNL     1       2.694   1.666   0.798  0.00  0.00    +0.384 N 
ATOM     20  H   UNL     1       3.182   0.812   0.506  0.00  0.00    -0.081 HD
ENDROOT
BRANCH  19  21
ATOM     21  C   UNL     1       1.855   2.147  -0.320  0.00  0.00    -0.051 C 
BRANCH  21  22
ATOM     22  C   UNL     1       0.997   1.009  -0.810  0.00  0.00    -0.045 C 
ATOM     23  C   UNL     1      -0.318   1.156  -0.889  0.00  0.00    +0.002 C 
BRANCH  23  24
ATOM     24  C   UNL     1      -1.159   0.042  -1.375  0.00  0.00    -0.025 A 
ATOM     25  C   UNL     1      -0.571  -1.165  -1.756  0.00  0.00    +0.008 A 
ATOM     26  C   UNL     1      -1.362  -2.204  -2.203  0.00  0.00    +0.001 A 
ATOM     27  C   UNL     1      -2.733  -2.046  -2.285  0.00  0.00    +0.000 A 
ATOM     28  C   UNL     1      -3.322  -0.850  -1.914  0.00  0.00    +0.001 A 
ATOM     29  C   UNL     1      -2.543   0.194  -1.460  0.00  0.00    +0.008 A 
ENDBRANCH  23  24
ENDBRANCH  21  22
ENDBRANCH  19  21
BRANCH  11  30
ATOM     30  C   UNL     1       3.156   2.421   6.349  0.00  0.00    +0.153 C 
BRANCH  30  31
ATOM     31  C   UNL     1       2.032   1.469   6.766  0.00  0.00    +0.181 C 
BRANCH  31  32
ATOM     32  O   UNL     1       0.897   2.228   7.186  0.00  0.00    -0.381 OA
ATOM     33  C   UNL     1      -0.215   1.431   7.598  0.00  0.00    +0.194 C 
ENDBRANCH  31  32
ENDBRANCH  30  31
ENDBRANCH  11  30
TORSDOF 6
