REMARK  Name = ZINC00638326
REMARK  15 active torsions:
REMARK  status: ('A' for Active; 'I' for Inactive)
REMARK    1  A    between atoms: C_1  and  C_2
REMARK    2  A    between atoms: C_2  and  O_3
REMARK    3  A    between atoms: O_3  and  C_4
REMARK    4  A    between atoms: C_4  and  C_6
REMARK    5  A    between atoms: C_7  and  C_39
REMARK    6  A    between atoms: C_14  and  C_15
REMARK    7  A    between atoms: C_18  and  N_21
REMARK    8  A    between atoms: N_21  and  C_22
REMARK    9  A    between atoms: N_21  and  C_23
REMARK   10  A    between atoms: C_25  and  C_27
REMARK   11  A    between atoms: C_30  and  O_35
REMARK   12  A    between atoms: C_31  and  O_33
REMARK   13  A    between atoms: O_33  and  C_34
REMARK   14  A    between atoms: O_35  and  C_36
REMARK   15  A    between atoms: C_36  and  C_38
REMARK                            x       y       z     vdW  Elec       q    Type
REMARK                         _______ _______ _______ _____ _____    ______ ____
ROOT
ATOM      1  C   UNL     1       5.874   0.882  -1.198  0.00  0.00    +0.085 C 
ATOM      2  C   UNL     1       7.056   1.568  -1.206  0.00  0.00    +0.053 C 
ATOM      3  N   UNL     1       7.492   2.173  -0.108  0.00  0.00    -0.228 NA
ATOM      4  C   UNL     1       6.866   2.175   1.042  0.00  0.00    +0.178 A 
ATOM      5  N   UNL     1       5.664   1.544   1.266  0.00  0.00    -0.275 N 
ATOM      6  C   UNL     1       5.119   1.615   2.488  0.00  0.00    +0.268 A 
ATOM      7  O   UNL     1       4.057   1.073   2.733  0.00  0.00    -0.266 OA
ATOM      8  C   UNL     1       5.841   2.367   3.523  0.00  0.00    +0.081 A 
ATOM      9  C   UNL     1       5.508   2.586   4.822  0.00  0.00    +0.028 C 
ATOM     10  S   UNL     1       7.276   2.914   2.611  0.00  0.00    -0.046 S 
ATOM     11  C   UNL     1       5.087   0.833   0.091  0.00  0.00    +0.162 C 
ATOM     12  C   UNL     1       7.871   1.640  -2.472  0.00  0.00    +0.066 C 
ENDROOT
BRANCH   9  13
ATOM     13  C   UNL     1       6.461   3.243   5.723  0.00  0.00    -0.024 A 
ATOM     14  C   UNL     1       7.836   3.178   5.460  0.00  0.00    +0.010 A 
ATOM     15  C   UNL     1       8.723   3.797   6.303  0.00  0.00    +0.023 A 
ATOM     16  C   UNL     1       8.260   4.481   7.423  0.00  0.00    +0.029 A 
ATOM     17  C   UNL     1       6.895   4.545   7.691  0.00  0.00    +0.023 A 
ATOM     18  C   UNL     1       6.000   3.933   6.852  0.00  0.00    +0.010 A 
BRANCH  16  19
ATOM     19  N   UNL     1       9.164   5.104   8.279  0.00  0.00    -0.336 N 
ATOM     20  C   UNL     1       8.695   5.704   9.530  0.00  0.00    +0.129 C 
ATOM     21  C   UNL     1      10.585   5.160   7.927  0.00  0.00    +0.129 C 
ENDBRANCH  16  19
ENDBRANCH   9  13
BRANCH  11  22
ATOM     22  C   UNL     1       3.722   1.412  -0.177  0.00  0.00    -0.016 A 
ATOM     23  C   UNL     1       2.621   0.579  -0.246  0.00  0.00    +0.010 A 
ATOM     24  C   UNL     1       1.367   1.105  -0.493  0.00  0.00    +0.050 A 
ATOM     25  C   UNL     1       1.210   2.471  -0.665  0.00  0.00    +0.173 A 
ATOM     26  C   UNL     1       2.319   3.309  -0.601  0.00  0.00    +0.163 A 
ATOM     27  C   UNL     1       3.574   2.775  -0.354  0.00  0.00    +0.055 A 
BRANCH  26  28
ATOM     28  O   UNL     1       2.171   4.650  -0.775  0.00  0.00    -0.491 OA
ATOM     29  C   UNL     1       3.365   5.434  -0.814  0.00  0.00    +0.277 C 
ENDBRANCH  26  28
BRANCH  25  30
ATOM     30  O   UNL     1      -0.025   2.991  -0.901  0.00  0.00    -0.422 OA
BRANCH  30  31
ATOM     31  C   UNL     1      -0.342   3.251  -2.179  0.00  0.00    +0.309 C 
ATOM     32  O   UNL     1       0.415   2.933  -3.066  0.00  0.00    -0.251 OA
ATOM     33  C   UNL     1      -1.642   3.939  -2.508  0.00  0.00    +0.136 C 
ENDBRANCH  30  31
ENDBRANCH  25  30
ENDBRANCH  11  22
BRANCH   1  34
ATOM     34  C   UNL     1       5.405   0.240  -2.356  0.00  0.00    +0.339 C 
ATOM     35  O   UNL     1       6.082   0.241  -3.369  0.00  0.00    -0.245 OA
BRANCH  34  36
ATOM     36  O   UNL     1       4.205  -0.379  -2.346  0.00  0.00    -0.462 OA
BRANCH  36  38
ATOM     37  C   UNL     1       2.518  -1.837  -3.277  0.00  0.00    +0.048 C 
ATOM     38  C   UNL     1       3.842  -1.110  -3.519  0.00  0.00    +0.229 C 
ENDBRANCH  36  38
ENDBRANCH  34  36
ENDBRANCH   1  34
TORSDOF 9
