REMARK  Name = ZINC17195728
REMARK  6 active torsions:
REMARK  status: ('A' for Active; 'I' for Inactive)
REMARK    1  A    between atoms: C_1  and  O_2
REMARK    2  A    between atoms: O_2  and  C_3
REMARK    3  A    between atoms: C_8  and  O_9
REMARK    4  A    between atoms: O_9  and  C_10
REMARK    5  A    between atoms: C_11  and  C_16
REMARK    6  A    between atoms: N_21  and  C_24
REMARK                            x       y       z     vdW  Elec       q    Type
REMARK                         _______ _______ _______ _____ _____    ______ ____
ROOT
ATOM      1  C   UNL     1       1.248   1.963  -0.489  0.00  0.00    +0.072 A 
ATOM      2  C   UNL     1       2.370   1.361  -0.001  0.00  0.00    +0.258 A 
ATOM      3  N   UNL     1       2.292   0.080   0.484  0.00  0.00    -0.302 N 
ATOM      4  C   UNL     1       1.120  -0.581   0.479  0.00  0.00    +0.168 A 
ATOM      5  S   UNL     1       1.051  -2.179   1.089  0.00  0.00    -0.012 S 
ATOM      6  N   UNL     1       0.002  -0.004   0.002  0.00  0.00    -0.256 N 
ATOM      7  C   UNL     1       0.034   1.253  -0.483  0.00  0.00    +0.265 A 
ATOM      8  O   UNL     1      -0.980   1.769  -0.919  0.00  0.00    -0.267 OA
ATOM      9  O   UNL     1       3.548   2.021   0.006  0.00  0.00    -0.267 OA
ATOM     10  H   UNL     1       3.192  -0.413   0.880  0.00  0.00    +0.171 HD
ENDROOT
BRANCH   1  17
ATOM     11  C   UNL     1      -1.019   5.897   1.528  0.00  0.00    +0.162 A 
ATOM     12  C   UNL     1      -1.095   6.053   0.155  0.00  0.00    +0.053 A 
ATOM     13  C   UNL     1      -0.350   5.239  -0.685  0.00  0.00    -0.044 A 
ATOM     14  C   UNL     1       0.476   4.272  -0.153  0.00  0.00    -0.050 A 
ATOM     15  C   UNL     1       0.555   4.112   1.223  0.00  0.00    +0.052 A 
ATOM     16  C   UNL     1      -0.188   4.919   2.066  0.00  0.00    +0.162 A 
ATOM     17  C   UNL     1       1.308   3.369  -1.027  0.00  0.00    +0.001 C 
ATOM     18  N   UNL     1       0.806   3.382  -2.404  0.00  0.00    +0.387 N 
ATOM     19  C   UNL     1       0.693   4.766  -2.892  0.00  0.00    -0.077 C 
ATOM     20  C   UNL     1      -0.476   5.441  -2.174  0.00  0.00    +0.016 C 
ATOM     21  H   UNL     1       1.500   2.828  -3.053  0.00  0.00    -0.085 HD
ATOM     22  H   UNL     1      -0.186   2.908  -2.438  0.00  0.00    -0.085 HD
BRANCH  11  24
ATOM     23  C   UNL     1      -2.582   7.679   1.725  0.00  0.00    +0.277 C 
ATOM     24  O   UNL     1      -1.752   6.697   2.348  0.00  0.00    -0.491 OA
ENDBRANCH  11  24
BRANCH  16  25
ATOM     25  O   UNL     1      -0.107   4.757   3.413  0.00  0.00    -0.491 OA
ATOM     26  C   UNL     1       0.766   3.732   3.892  0.00  0.00    +0.277 C 
ENDBRANCH  16  25
ENDBRANCH   1  17
BRANCH   6  27
ATOM     27  C   UNL     1      -1.204  -0.716   0.009  0.00  0.00    +0.053 A 
ATOM     28  C   UNL     1      -2.049  -0.642   1.109  0.00  0.00    +0.026 A 
ATOM     29  C   UNL     1      -3.240  -1.341   1.112  0.00  0.00    +0.003 A 
ATOM     30  C   UNL     1      -3.588  -2.122   0.025  0.00  0.00    +0.020 A 
ATOM     31  C   UNL     1      -2.747  -2.202  -1.070  0.00  0.00    +0.043 A 
ATOM     32  C   UNL     1      -1.555  -1.500  -1.081  0.00  0.00    +0.046 A 
ATOM     33 CL   UNL     1      -3.187  -3.183  -2.433  0.00  0.00    -0.083 Cl
ENDBRANCH   6  27
TORSDOF 4
