REMARK  Name = ZINC56636421
REMARK  7 active torsions:
REMARK  status: ('A' for Active; 'I' for Inactive)
REMARK    1  A    between atoms: C_1  and  N_2
REMARK    2  A    between atoms: N_2  and  C_3
REMARK    3  A    between atoms: C_3  and  C_4
REMARK    4  A    between atoms: C_8  and  C_10
REMARK    5  A    between atoms: N_15  and  C_16
REMARK    6  A    between atoms: C_21  and  S_22
REMARK    7  A    between atoms: S_22  and  C_23
REMARK                            x       y       z     vdW  Elec       q    Type
REMARK                         _______ _______ _______ _____ _____    ______ ____
ROOT
ATOM      1  C   UNL     1      -0.040   1.460   0.011  0.00  0.00    +0.134 C 
ATOM      2  N   UNL     1      -0.015  -0.005   0.002  0.00  0.00    -0.284 N 
ATOM      3  C   UNL     1      -0.006  -0.672  -1.169  0.00  0.00    +0.307 C 
ATOM      4  O   UNL     1       0.015  -1.888  -1.176  0.00  0.00    -0.252 OA
ATOM      5  N   UNL     1      -0.020   0.009  -2.332  0.00  0.00    -0.268 N 
ATOM      6  H   UNL     1      -0.102   0.975  -2.328  0.00  0.00    +0.156 HD
ENDROOT
BRANCH   5   7
ATOM      7  C   UNL     1       0.084  -0.680  -3.549  0.00  0.00    +0.048 A 
ATOM      8  C   UNL     1      -0.491  -1.934  -3.689  0.00  0.00    +0.024 A 
ATOM      9  C   UNL     1      -0.387  -2.612  -4.889  0.00  0.00    +0.002 A 
ATOM     10  C   UNL     1       0.289  -2.044  -5.953  0.00  0.00    +0.001 A 
ATOM     11  C   UNL     1       0.864  -0.794  -5.823  0.00  0.00    +0.017 A 
ATOM     12  C   UNL     1       0.760  -0.104  -4.624  0.00  0.00    +0.037 A 
BRANCH  12  13
ATOM     13  S   UNL     1       1.486   1.493  -4.457  0.00  0.00    -0.014 S 
BRANCH  13  14
ATOM     14  C   UNL     1       2.233   1.807  -6.080  0.00  0.00    +0.448 C 
ATOM     15  F   UNL     1       1.239   1.780  -7.064  0.00  0.00    -0.160 F 
ATOM     16  F   UNL     1       2.850   3.063  -6.074  0.00  0.00    -0.160 F 
ATOM     17  F   UNL     1       3.187   0.820  -6.353  0.00  0.00    -0.160 F 
ENDBRANCH  13  14
ENDBRANCH  12  13
ENDBRANCH   5   7
BRANCH   2  18
ATOM     18  C   UNL     1      -0.000  -0.745   1.266  0.00  0.00    +0.144 C 
BRANCH  18  19
ATOM     19  C   UNL     1      -1.415  -1.023   1.703  0.00  0.00    -0.029 A 
ATOM     20  C   UNL     1      -2.082  -0.113   2.504  0.00  0.00    +0.005 A 
ATOM     21  C   UNL     1      -3.382  -0.360   2.909  0.00  0.00    +0.001 A 
ATOM     22  C   UNL     1      -4.022  -1.518   2.515  0.00  0.00    +0.013 A 
ATOM     23  C   UNL     1      -3.355  -2.440   1.708  0.00  0.00    +0.037 A 
ATOM     24  C   UNL     1      -2.045  -2.182   1.298  0.00  0.00    +0.018 A 
BRANCH  23  25
ATOM     25  C   UNL     1      -4.034  -3.683   1.283  0.00  0.00    +0.242 C 
ATOM     26  O   UNL     1      -3.450  -4.484   0.580  0.00  0.00    -0.270 OA
ATOM     27  N   UNL     1      -5.300  -3.927   1.677  0.00  0.00    -0.325 N 
ATOM     28  H   UNL     1      -5.765  -3.288   2.238  0.00  0.00    +0.145 HD
ATOM     29  H   UNL     1      -5.745  -4.743   1.398  0.00  0.00    +0.145 HD
ENDBRANCH  23  25
ENDBRANCH  18  19
ENDBRANCH   2  18
TORSDOF 6
