REMARK  Name = ZINC02520324
REMARK  8 active torsions:
REMARK  status: ('A' for Active; 'I' for Inactive)
REMARK    1  A    between atoms: C_1  and  C_2
REMARK    2  A    between atoms: C_6  and  N_8
REMARK    3  A    between atoms: C_9  and  C_11
REMARK    4  A    between atoms: C_16  and  N_17
REMARK    5  A    between atoms: C_18  and  C_20
REMARK    6  A    between atoms: N_22  and  N_23
REMARK    7  A    between atoms: C_24  and  C_25
REMARK    8  A    between atoms: C_30  and  O_31
REMARK                            x       y       z     vdW  Elec       q    Type
REMARK                         _______ _______ _______ _____ _____    ______ ____
ROOT
ATOM      1  N   UNL     1      -0.006  -6.986   2.464  0.00  0.00    -0.277 N 
ATOM      2  C   UNL     1      -0.474  -8.247   2.377  0.00  0.00    +0.305 C 
ATOM      3  O   UNL     1      -1.069  -8.740   3.314  0.00  0.00    -0.265 OA
ATOM      4  H   UNL     1       0.396  -6.564   1.689  0.00  0.00    +0.155 HD
ENDROOT
BRANCH   1  10
ATOM      5  C   UNL     1      -0.124  -4.887   3.667  0.00  0.00    +0.058 A 
ATOM      6  C   UNL     1      -0.225  -4.201   4.879  0.00  0.00    +0.015 A 
ATOM      7  C   UNL     1      -0.295  -4.903   6.063  0.00  0.00    +0.001 A 
ATOM      8  C   UNL     1      -0.266  -6.288   6.058  0.00  0.00    +0.002 A 
ATOM      9  C   UNL     1      -0.167  -6.981   4.868  0.00  0.00    +0.024 A 
ATOM     10  C   UNL     1      -0.101  -6.290   3.665  0.00  0.00    +0.046 A 
BRANCH   5  12
ATOM     11  N   UNL     1       0.036  -2.797   2.408  0.00  0.00    -0.281 N 
ATOM     12  C   UNL     1      -0.050  -4.142   2.396  0.00  0.00    +0.250 C 
ATOM     13  O   UNL     1      -0.064  -4.741   1.338  0.00  0.00    -0.270 OA
ATOM     14  H   UNL     1       0.131  -2.324   3.249  0.00  0.00    +0.155 HD
BRANCH  11  20
ATOM     15  C   UNL     1       1.178   1.229  -0.172  0.00  0.00    +0.044 C 
ATOM     16  C   UNL     1       0.532  -0.129  -0.072  0.00  0.00    -0.049 A 
ATOM     17  C   UNL     1      -0.112  -0.670  -1.170  0.00  0.00    +0.003 A 
ATOM     18  C   UNL     1      -0.707  -1.915  -1.083  0.00  0.00    +0.002 A 
ATOM     19  C   UNL     1      -0.660  -2.623   0.102  0.00  0.00    +0.023 A 
ATOM     20  C   UNL     1      -0.014  -2.083   1.206  0.00  0.00    +0.034 A 
ATOM     21  C   UNL     1       0.588  -0.834   1.114  0.00  0.00    +0.026 A 
ENDBRANCH  11  20
ENDBRANCH   5  12
ENDBRANCH   1  10
BRANCH   2  22
ATOM     22  C   UNL     1      -0.259  -9.038   1.132  0.00  0.00    +0.318 C 
ATOM     23  O   UNL     1       0.337  -8.546   0.195  0.00  0.00    -0.263 OA
ATOM     24  N   UNL     1      -0.727 -10.299   1.045  0.00  0.00    -0.199 N 
ATOM     25  H   UNL     1      -1.203 -10.692   1.793  0.00  0.00    +0.178 HD
BRANCH  24  26
ATOM     26  N   UNL     1      -0.526 -11.042  -0.126  0.00  0.00    -0.187 NA
ATOM     27  C   UNL     1      -0.976 -12.258  -0.209  0.00  0.00    +0.142 C 
BRANCH  27  28
ATOM     28  C   UNL     1      -0.765 -13.039  -1.440  0.00  0.00    +0.037 A 
ATOM     29  C   UNL     1      -1.253 -14.345  -1.536  0.00  0.00    +0.028 A 
ATOM     30  C   UNL     1      -1.051 -15.070  -2.691  0.00  0.00    +0.019 A 
ATOM     31  C   UNL     1      -0.365 -14.510  -3.757  0.00  0.00    +0.019 A 
ATOM     32  C   UNL     1       0.122 -13.220  -3.674  0.00  0.00    +0.047 A 
ATOM     33  C   UNL     1      -0.077 -12.474  -2.523  0.00  0.00    +0.126 A 
ATOM     34 BR   UNL     1      -1.711 -16.838  -2.821  0.00  0.00    -0.050 Br
BRANCH  33  35
ATOM     35  O   UNL     1       0.397 -11.204  -2.443  0.00  0.00    -0.506 OA
ATOM     36  H   UNL     1       1.296 -11.141  -2.095  0.00  0.00    +0.292 HD
ENDBRANCH  33  35
ENDBRANCH  27  28
ENDBRANCH  24  26
ENDBRANCH   2  22
TORSDOF 7
