REMARK  Name = ZINC67186246
REMARK  7 active torsions:
REMARK  status: ('A' for Active; 'I' for Inactive)
REMARK    1  A    between atoms: C_8  and  C_10
REMARK    2  A    between atoms: C_11  and  C_16
REMARK    3  A    between atoms: C_16  and  N_17
REMARK    4  A    between atoms: N_17  and  C_18
REMARK    5  A    between atoms: C_18  and  C_19
REMARK    6  A    between atoms: C_22  and  C_25
REMARK    7  A    between atoms: C_25  and  N_26
REMARK                            x       y       z     vdW  Elec       q    Type
REMARK                         _______ _______ _______ _____ _____    ______ ____
ROOT
ATOM      1  C   UNL     1       5.737  -2.438  -1.534  0.00  0.00    -0.042 C 
ENDROOT
BRANCH   1   3
ATOM      2  C   UNL     1       3.796  -3.333  -0.053  0.00  0.00    +0.129 A 
ATOM      3  C   UNL     1       5.032  -3.488  -0.715  0.00  0.00    -0.016 A 
ATOM      4  C   UNL     1       5.470  -4.744  -0.485  0.00  0.00    +0.107 A 
ATOM      5  N   UNL     1       4.557  -5.370   0.291  0.00  0.00    -0.284 N 
ATOM      6  H   UNL     1       4.614  -6.283   0.612  0.00  0.00    +0.188 HD
ATOM      7  N   UNL     1       3.518  -4.469   0.556  0.00  0.00    -0.171 NA
BRANCH   2  15
ATOM      8  C   UNL     1      -0.017   1.363   0.009  0.00  0.00    +0.001 A 
ATOM      9  C   UNL     1       1.170   2.082   0.002  0.00  0.00    +0.004 A 
ATOM     10  C   UNL     1       2.387   1.432  -0.013  0.00  0.00    +0.047 A 
ATOM     11  C   UNL     1       2.429   0.044  -0.021  0.00  0.00    +0.136 A 
ATOM     12  C   UNL     1       1.223  -0.679  -0.013  0.00  0.00    +0.021 A 
ATOM     13  C   UNL     1       0.002  -0.004   0.002  0.00  0.00    +0.011 A 
ATOM     14  C   UNL     1       1.610  -2.092  -0.025  0.00  0.00    +0.060 A 
ATOM     15  C   UNL     1       2.964  -2.111  -0.038  0.00  0.00    +0.156 A 
ATOM     16  O   UNL     1       3.439  -0.850  -0.036  0.00  0.00    -0.453 OA
ENDBRANCH   2  15
ENDBRANCH   1   3
BRANCH   1  17
ATOM     17  N   UNL     1       6.441  -1.510  -0.639  0.00  0.00    +0.384 N 
ATOM     18  H   UNL     1       5.776  -1.066  -0.024  0.00  0.00    -0.085 HD
ATOM     19  H   UNL     1       7.117  -2.020  -0.090  0.00  0.00    -0.085 HD
BRANCH  17  20
ATOM     20  C   UNL     1       7.129  -0.487  -1.437  0.00  0.00    -0.046 C 
BRANCH  20  21
ATOM     21  C   UNL     1       7.851   0.465  -0.519  0.00  0.00    -0.064 A 
ATOM     22  C   UNL     1       7.205   1.592  -0.046  0.00  0.00    +0.002 A 
ATOM     23  C   UNL     1       7.867   2.466   0.797  0.00  0.00    +0.005 A 
ATOM     24  C   UNL     1       9.175   2.212   1.166  0.00  0.00    -0.026 A 
ATOM     25  C   UNL     1       9.821   1.085   0.693  0.00  0.00    +0.005 A 
ATOM     26  C   UNL     1       9.157   0.209  -0.146  0.00  0.00    +0.002 A 
BRANCH  24  27
ATOM     27  C   UNL     1       9.898   3.165   2.083  0.00  0.00    +0.180 C 
BRANCH  27  28
ATOM     28  N   UNL     1       9.684   2.759   3.475  0.00  0.00    -0.248 N 
ATOM     29  C   UNL     1      10.632   2.507   4.395  0.00  0.00    +0.219 A 
ATOM     30  N   UNL     1      10.035   2.176   5.511  0.00  0.00    -0.223 NA
ATOM     31  C   UNL     1       8.714   2.205   5.344  0.00  0.00    +0.245 A 
ATOM     32  N   UNL     1       8.450   2.562   4.114  0.00  0.00    -0.158 NA
ENDBRANCH  27  28
ENDBRANCH  24  27
ENDBRANCH  20  21
ENDBRANCH  17  20
ENDBRANCH   1  17
TORSDOF 7
