REMARK  Name = ZINC26677608
REMARK  9 active torsions:
REMARK  status: ('A' for Active; 'I' for Inactive)
REMARK    1  A    between atoms: C_1  and  C_2
REMARK    2  A    between atoms: C_2  and  C_3
REMARK    3  A    between atoms: C_3  and  N_4
REMARK    4  A    between atoms: N_4  and  C_5
REMARK    5  A    between atoms: C_5  and  N_7
REMARK    6  A    between atoms: N_7  and  N_8
REMARK    7  A    between atoms: C_9  and  C_11
REMARK    8  A    between atoms: C_11  and  N_12
REMARK    9  A    between atoms: C_13  and  C_15
REMARK                            x       y       z     vdW  Elec       q    Type
REMARK                         _______ _______ _______ _____ _____    ______ ____
ROOT
ATOM      1  C   UNL     1       3.782   8.786   0.015  0.00  0.00    +0.202 C 
ENDROOT
BRANCH   1   3
ATOM      2  N   UNL     1       3.848  11.258   0.028  0.00  0.00    -0.234 N 
ATOM      3  C   UNL     1       3.107  10.133   0.029  0.00  0.00    +0.246 C 
ATOM      4  O   UNL     1       1.896  10.204   0.041  0.00  0.00    -0.273 OA
ATOM      5  H   UNL     1       4.946  11.194   0.017  0.00  0.00    +0.173 HD
BRANCH   2   6
ATOM      6  N   UNL     1       3.220  12.511   0.041  0.00  0.00    -0.246 N 
ATOM      7  H   UNL     1       2.122  12.575   0.052  0.00  0.00    +0.172 HD
BRANCH   6   8
ATOM      8  C   UNL     1       3.962  13.636   0.040  0.00  0.00    +0.147 C 
ATOM      9  S   UNL     1       3.194  15.167   0.057  0.00  0.00    -0.017 S 
BRANCH   8  10
ATOM     10  N   UNL     1       5.307  13.557   0.027  0.00  0.00    -0.325 N 
ATOM     11  H   UNL     1       5.800  12.574   0.016  0.00  0.00    +0.148 HD
BRANCH  10  12
ATOM     12  C   UNL     1       6.113  14.781   0.026  0.00  0.00    +0.103 C 
BRANCH  12  14
ATOM     13  C   UNL     1       8.439  15.691   0.008  0.00  0.00    +0.005 C 
ATOM     14  C   UNL     1       7.598  14.413   0.009  0.00  0.00    +0.015 C 
ENDBRANCH  12  14
ENDBRANCH  10  12
ENDBRANCH   8  10
ENDBRANCH   6   8
ENDBRANCH   2   6
ENDBRANCH   1   3
BRANCH   1  15
ATOM     15  N   UNL     1       2.767   7.730   0.019  0.00  0.00    -0.302 N 
ATOM     16  C   UNL     1       3.140   6.435   0.008  0.00  0.00    +0.253 C 
ATOM     17  O   UNL     1       4.321   6.143  -0.006  0.00  0.00    -0.270 OA
ATOM     18  H   UNL     1       1.699   7.994   0.031  0.00  0.00    +0.150 HD
BRANCH  16  19
ATOM     19  C   UNL     1       2.122   5.377   0.011  0.00  0.00    +0.093 A 
ATOM     20  C   UNL     1       2.301   4.028   0.002  0.00  0.00    +0.068 A 
ATOM     21  C   UNL     1       1.184   3.173   0.008  0.00  0.00    +0.008 A 
ATOM     22  C   UNL     1       1.164   1.754   0.000  0.00  0.00    +0.010 A 
ATOM     23  C   UNL     1      -0.013   1.076   0.008  0.00  0.00    +0.001 A 
ATOM     24  C   UNL     1      -1.235   1.737   0.017  0.00  0.00    +0.001 A 
ATOM     25  C   UNL     1      -1.261   3.117   0.030  0.00  0.00    +0.016 A 
ATOM     26  C   UNL     1      -0.075   3.819   0.023  0.00  0.00    +0.021 A 
ATOM     27  S   UNL     1       0.346   5.544   0.029  0.00  0.00    -0.082 S 
ATOM     28 CL   UNL     1       3.905   3.364  -0.017  0.00  0.00    -0.082 Cl
ENDBRANCH  16  19
ENDBRANCH   1  15
TORSDOF 8
