REMARK  Name = ZINC05102077
REMARK  4 active torsions:
REMARK  status: ('A' for Active; 'I' for Inactive)
REMARK    1  A    between atoms: N_6  and  C_7
REMARK    2  A    between atoms: C_7  and  C_9
REMARK    3  A    between atoms: C_7  and  C_16
REMARK    4  A    between atoms: C_25  and  O_26
REMARK                            x       y       z     vdW  Elec       q    Type
REMARK                         _______ _______ _______ _____ _____    ______ ____
ROOT
ATOM      1  C   UNL     1       4.782  -0.086  -0.044  0.00  0.00    +0.136 C 
ENDROOT
BRANCH   1   2
ATOM      2  C   UNL     1       5.848  -1.026  -0.546  0.00  0.00    +0.021 A 
ATOM      3  C   UNL     1       5.582  -2.392  -0.611  0.00  0.00    +0.010 A 
ATOM      4  C   UNL     1       6.523  -3.267  -1.060  0.00  0.00    +0.010 A 
ATOM      5  C   UNL     1       7.781  -2.791  -1.465  0.00  0.00    +0.004 A 
ATOM      6  C   UNL     1       8.779  -3.666  -1.935  0.00  0.00    +0.011 A 
ATOM      7  C   UNL     1       9.979  -3.131  -2.311  0.00  0.00    +0.020 A 
ATOM      8  C   UNL     1      10.185  -1.756  -2.224  0.00  0.00    +0.111 A 
ATOM      9  N   UNL     1       9.253  -0.946  -1.785  0.00  0.00    -0.251 NA
ATOM     10  C   UNL     1       8.058  -1.404  -1.401  0.00  0.00    +0.113 A 
ATOM     11  C   UNL     1       7.057  -0.526  -0.935  0.00  0.00    +0.148 A 
BRANCH  11  12
ATOM     12  O   UNL     1       7.296   0.810  -0.870  0.00  0.00    -0.504 OA
ATOM     13  H   UNL     1       7.670   1.102  -0.027  0.00  0.00    +0.292 HD
ENDBRANCH  11  12
ENDBRANCH   1   2
BRANCH   1  19
ATOM     14  C   UNL     1       1.392   2.361  -0.389  0.00  0.00    +0.005 A 
ATOM     15  C   UNL     1       0.160   1.771  -0.641  0.00  0.00    +0.018 A 
ATOM     16  C   UNL     1       0.082   0.400  -0.772  0.00  0.00    +0.084 A 
ATOM     17  C   UNL     1       2.351   0.171  -0.420  0.00  0.00    +0.097 A 
ATOM     18  C   UNL     1       2.504   1.547  -0.277  0.00  0.00    +0.041 A 
ATOM     19  N   UNL     1       3.460  -0.660  -0.310  0.00  0.00    -0.320 N 
ATOM     20  H   UNL     1       3.359  -1.619  -0.409  0.00  0.00    +0.148 HD
ATOM     21  N   UNL     1       1.153  -0.432  -0.668  0.00  0.00    -0.350 N 
ATOM     22  H   UNL     1       1.065  -1.450  -0.769  0.00  0.00    +0.166 HD
ENDBRANCH   1  19
BRANCH   1  23
ATOM     23  C   UNL     1       4.952   0.120   1.439  0.00  0.00    -0.023 A 
ATOM     24  C   UNL     1       4.477  -0.828   2.326  0.00  0.00    +0.007 A 
ATOM     25  C   UNL     1       4.637  -0.642   3.687  0.00  0.00    +0.015 A 
ATOM     26  C   UNL     1       5.262   0.498   4.160  0.00  0.00    +0.018 A 
ATOM     27  C   UNL     1       5.731   1.448   3.272  0.00  0.00    +0.015 A 
ATOM     28  C   UNL     1       5.576   1.259   1.911  0.00  0.00    +0.007 A 
ATOM     29 BR   UNL     1       5.473   0.757   6.021  0.00  0.00    -0.050 Br
ENDBRANCH   1  23
TORSDOF 4
