REMARK  Name = ZINC01705233
REMARK  5 active torsions:
REMARK  status: ('A' for Active; 'I' for Inactive)
REMARK    1  A    between atoms: C_1  and  C_2
REMARK    2  A    between atoms: C_4  and  C_10
REMARK    3  A    between atoms: C_4  and  C_11
REMARK    4  A    between atoms: P_6  and  O_8
REMARK    5  A    between atoms: O_8  and  C_9
REMARK                            x       y       z     vdW  Elec       q    Type
REMARK                         _______ _______ _______ _____ _____    ______ ____
ROOT
ATOM      1  C   UNL     1       2.312   4.466  -2.924  0.00  0.00    +0.041 C 
ATOM      2  C   UNL     1       2.344   3.843  -1.527  0.00  0.00    +0.156 C 
ATOM      3  C   UNL     1       1.503   4.687  -0.558  0.00  0.00    +0.099 C 
ATOM      4  O   UNL     1       0.884   3.832   0.417  0.00  0.00    -0.303 OA
ATOM      5  P   UNL     1       1.321   2.320   0.002  0.00  0.00    +0.335 P 
ATOM      6  O   UNL     1       1.751   2.522  -1.560  0.00  0.00    -0.306 OA
ATOM      7  C   UNL     1       0.421   5.433  -1.340  0.00  0.00    +0.044 C 
ATOM      8  C   UNL     1       2.407   5.697   0.151  0.00  0.00    +0.044 C 
ENDROOT
BRANCH   5   9
ATOM      9  O   UNL     1      -0.017   1.425   0.010  0.00  0.00    -0.315 OA
ATOM     10  C   UNL     1       0.002  -0.004   0.002  0.00  0.00    +0.204 C 
ENDBRANCH   5   9
TORSDOF 1
