REMARK  Name = ZINC60102792
REMARK  10 active torsions:
REMARK  status: ('A' for Active; 'I' for Inactive)
REMARK    1  A    between atoms: C_1  and  C_2
REMARK    2  A    between atoms: C_2  and  C_3
REMARK    3  A    between atoms: C_2  and  C_4
REMARK    4  A    between atoms: C_2  and  C_5
REMARK    5  A    between atoms: N_7  and  C_8
REMARK    6  A    between atoms: C_8  and  C_9
REMARK    7  A    between atoms: C_9  and  C_10
REMARK    8  A    between atoms: N_12  and  C_13
REMARK    9  A    between atoms: C_18  and  N_19
REMARK   10  A    between atoms: N_19  and  C_20
REMARK                            x       y       z     vdW  Elec       q    Type
REMARK                         _______ _______ _______ _____ _____    ______ ____
ROOT
ATOM      1  C   UNL     1       2.979  -6.026  -5.346  0.00  0.00    +0.054 A 
ATOM      2  C   UNL     1       3.472  -5.079  -6.231  0.00  0.00    +0.025 A 
ATOM      3  C   UNL     1       4.025  -5.478  -7.434  0.00  0.00    +0.002 A 
ATOM      4  C   UNL     1       4.089  -6.821  -7.758  0.00  0.00    +0.002 A 
ATOM      5  C   UNL     1       3.601  -7.772  -6.882  0.00  0.00    +0.025 A 
ATOM      6  C   UNL     1       3.049  -7.381  -5.671  0.00  0.00    +0.049 A 
ENDROOT
BRANCH   1   9
ATOM      7  C   UNL     1       2.779  -4.448  -3.574  0.00  0.00    +0.219 C 
ATOM      8  O   UNL     1       3.658  -3.784  -4.081  0.00  0.00    -0.275 OA
ATOM      9  N   UNL     1       2.418  -5.623  -4.127  0.00  0.00    -0.284 N 
ATOM     10  H   UNL     1       1.769  -6.190  -3.681  0.00  0.00    +0.155 HD
BRANCH   7  11
ATOM     11  C   UNL     1       2.090  -3.960  -2.326  0.00  0.00    +0.115 C 
BRANCH  11  12
ATOM     12  C   UNL     1       2.684  -2.612  -1.910  0.00  0.00    +0.113 C 
BRANCH  12  15
ATOM     13  C   UNL     1       2.376  -0.962  -0.144  0.00  0.00    +0.218 C 
ATOM     14  O   UNL     1       3.255  -0.298  -0.651  0.00  0.00    -0.275 OA
ATOM     15  N   UNL     1       2.015  -2.137  -0.697  0.00  0.00    -0.314 N 
ATOM     16  H   UNL     1       1.312  -2.669  -0.291  0.00  0.00    +0.149 HD
BRANCH  13  18
ATOM     17  C   UNL     1       2.281   0.874   1.520  0.00  0.00    +0.020 C 
ATOM     18  C   UNL     1       1.687  -0.474   1.105  0.00  0.00    +0.039 C 
ATOM     19  C   UNL     1       1.891  -1.490   2.230  0.00  0.00    +0.020 C 
ATOM     20  C   UNL     1       0.191  -0.309   0.831  0.00  0.00    +0.020 C 
ENDBRANCH  13  18
ENDBRANCH  12  15
ENDBRANCH  11  12
ENDBRANCH   7  11
ENDBRANCH   1   9
BRANCH   6  21
ATOM     21  N   UNL     1       2.559  -8.341  -4.780  0.00  0.00    -0.337 N 
ATOM     22  H   UNL     1       2.102  -8.064  -3.970  0.00  0.00    +0.147 HD
BRANCH  21  23
ATOM     23  C   UNL     1       2.736  -9.767  -5.069  0.00  0.00    +0.033 C 
ATOM     24  C   UNL     1       4.222 -10.063  -5.282  0.00  0.00    +0.029 C 
ATOM     25  C   UNL     1       4.407 -11.552  -5.584  0.00  0.00    -0.008 C 
ATOM     26  C   UNL     1       3.885 -12.380  -4.408  0.00  0.00    +0.007 C 
ATOM     27  C   UNL     1       2.399 -12.083  -4.196  0.00  0.00    -0.008 C 
ATOM     28  C   UNL     1       2.214 -10.595  -3.893  0.00  0.00    +0.029 C 
ATOM     29  C   UNL     1       1.620 -12.447  -5.461  0.00  0.00    +0.007 C 
ATOM     30  C   UNL     1       2.142 -11.619  -6.637  0.00  0.00    -0.008 C 
ATOM     31  C   UNL     1       3.628 -11.915  -6.850  0.00  0.00    +0.007 C 
ATOM     32  C   UNL     1       1.958 -10.130  -6.335  0.00  0.00    +0.029 C 
ENDBRANCH  21  23
ENDBRANCH   6  21
TORSDOF 7
