REMARK  Name = ZINC12820476
REMARK  4 active torsions:
REMARK  status: ('A' for Active; 'I' for Inactive)
REMARK    1  A    between atoms: N_11  and  C_14
REMARK    2  A    between atoms: C_14  and  C_15
REMARK    3  A    between atoms: C_15  and  C_16
REMARK    4  A    between atoms: N_21  and  C_22
REMARK                            x       y       z     vdW  Elec       q    Type
REMARK                         _______ _______ _______ _____ _____    ______ ____
ROOT
ATOM      1  C   UNL     1       1.185  -4.127  -1.473  0.00  0.00    +0.222 C 
ATOM      2  O   UNL     1       1.199  -4.738  -0.426  0.00  0.00    -0.275 OA
ATOM      3  N   UNL     1       1.177  -4.795  -2.643  0.00  0.00    -0.240 N 
ATOM      4  C   UNL     1       1.184  -6.142  -2.650  0.00  0.00    +0.306 C 
ATOM      5  O   UNL     1       1.197  -6.755  -1.601  0.00  0.00    -0.252 OA
ATOM      6  N   UNL     1       1.176  -6.810  -3.821  0.00  0.00    -0.294 N 
ATOM      7  H   UNL     1       1.167  -4.305  -3.481  0.00  0.00    +0.159 HD
ATOM      8  H   UNL     1       1.165  -6.321  -4.658  0.00  0.00    +0.151 HD
ENDROOT
BRANCH   6   9
ATOM      9  C   UNL     1       1.183  -8.275  -3.828  0.00  0.00    +0.037 C 
ATOM     10  C   UNL     1       2.441  -8.783  -3.122  0.00  0.00    +0.029 C 
ATOM     11  C   UNL     1       2.449 -10.313  -3.130  0.00  0.00    -0.008 C 
ATOM     12  C   UNL     1       2.437 -10.816  -4.574  0.00  0.00    +0.007 C 
ATOM     13  C   UNL     1       1.178 -10.308  -5.281  0.00  0.00    -0.008 C 
ATOM     14  C   UNL     1       1.171  -8.778  -5.273  0.00  0.00    +0.029 C 
ATOM     15  C   UNL     1      -0.061 -10.828  -4.550  0.00  0.00    +0.007 C 
ATOM     16  C   UNL     1      -0.050 -10.325  -3.105  0.00  0.00    -0.008 C 
ATOM     17  C   UNL     1       1.209 -10.832  -2.399  0.00  0.00    +0.007 C 
ATOM     18  C   UNL     1      -0.057  -8.795  -3.098  0.00  0.00    +0.029 C 
ENDBRANCH   6   9
BRANCH   1  19
ATOM     19  C   UNL     1       1.178  -2.620  -1.465  0.00  0.00    +0.119 C 
BRANCH  19  20
ATOM     20  C   UNL     1       1.190  -2.117  -0.020  0.00  0.00    +0.154 C 
BRANCH  20  31
ATOM     21  C   UNL     1       0.082   4.156   0.024  0.00  0.00    +0.131 A 
ATOM     22  C   UNL     1      -1.130   3.476   0.032  0.00  0.00    +0.131 A 
ATOM     23  N   UNL     1      -1.156   2.156   0.030  0.00  0.00    -0.246 NA
ATOM     24  C   UNL     1      -0.018   1.479   0.010  0.00  0.00    +0.160 A 
ATOM     25  C   UNL     1       1.207   2.167   0.002  0.00  0.00    +0.160 A 
ATOM     26  N   UNL     1       1.222   3.491   0.010  0.00  0.00    -0.246 NA
ATOM     27  C   UNL     1       2.462   1.377  -0.015  0.00  0.00    +0.291 A 
ATOM     28  O   UNL     1       3.539   1.939  -0.022  0.00  0.00    -0.264 OA
ATOM     29  N   UNL     1       2.400   0.031  -0.021  0.00  0.00    -0.259 N 
ATOM     30  H   UNL     1       3.225  -0.478  -0.031  0.00  0.00    +0.190 HD
ATOM     31  N   UNL     1       1.183  -0.652  -0.013  0.00  0.00    -0.247 N 
ATOM     32  C   UNL     1       0.002  -0.004   0.002  0.00  0.00    +0.293 A 
ATOM     33  O   UNL     1      -1.039  -0.630   0.008  0.00  0.00    -0.264 OA
ENDBRANCH  20  31
ENDBRANCH  19  20
ENDBRANCH   1  19
TORSDOF 4
