REMARK  Name = ZINC59016336
REMARK  11 active torsions:
REMARK  status: ('A' for Active; 'I' for Inactive)
REMARK    1  A    between atoms: C_1  and  C_2
REMARK    2  A    between atoms: C_2  and  C_3
REMARK    3  A    between atoms: C_3  and  S_4
REMARK    4  A    between atoms: S_4  and  C_5
REMARK    5  A    between atoms: C_10  and  N_11
REMARK    6  A    between atoms: C_12  and  C_14
REMARK    7  A    between atoms: C_14  and  S_15
REMARK    8  A    between atoms: S_15  and  C_16
REMARK    9  A    between atoms: N_21  and  N_22
REMARK   10  A    between atoms: C_23  and  C_24
REMARK   11  A    between atoms: C_25  and  C_26
REMARK                            x       y       z     vdW  Elec       q    Type
REMARK                         _______ _______ _______ _____ _____    ______ ____
ROOT
ATOM      1  C   UNL     1       0.413 -10.222  -1.475  0.00  0.00    +0.211 A 
ATOM      2  N   UNL     1       0.398 -11.549  -1.637  0.00  0.00    -0.186 NA
ATOM      3  C   UNL     1      -0.246 -12.110  -0.635  0.00  0.00    +0.232 A 
ATOM      4  N   UNL     1      -0.659 -11.130   0.196  0.00  0.00    -0.245 N 
ATOM      5  N   UNL     1      -0.217  -9.921  -0.365  0.00  0.00    -0.144 NA
ATOM      6  N   UNL     1      -0.463 -13.465  -0.464  0.00  0.00    -0.205 N 
ATOM      7  H   UNL     1      -0.951 -13.784   0.310  0.00  0.00    +0.177 HD
ATOM      8  H   UNL     1      -1.160 -11.239   1.020  0.00  0.00    +0.192 HD
ENDROOT
BRANCH   6   9
ATOM      9  N   UNL     1       0.024 -14.377  -1.410  0.00  0.00    -0.188 NA
ATOM     10  C   UNL     1      -0.179 -15.654  -1.250  0.00  0.00    +0.130 C 
BRANCH  10  11
ATOM     11  C   UNL     1       0.314 -16.576  -2.206  0.00  0.00    +0.022 C 
ATOM     12  C   UNL     1       0.103 -17.898  -2.040  0.00  0.00    +0.009 C 
BRANCH  12  13
ATOM     13  C   UNL     1       0.614 -18.856  -3.034  0.00  0.00    -0.025 A 
ATOM     14  C   UNL     1       1.324 -18.399  -4.149  0.00  0.00    +0.008 A 
ATOM     15  C   UNL     1       1.801 -19.303  -5.075  0.00  0.00    +0.001 A 
ATOM     16  C   UNL     1       1.578 -20.658  -4.903  0.00  0.00    +0.000 A 
ATOM     17  C   UNL     1       0.876 -21.117  -3.802  0.00  0.00    +0.001 A 
ATOM     18  C   UNL     1       0.398 -20.227  -2.865  0.00  0.00    +0.008 A 
ENDBRANCH  12  13
ENDBRANCH  10  11
ENDBRANCH   6   9
BRANCH   1  19
ATOM     19  S   UNL     1       1.164  -9.066  -2.572  0.00  0.00    -0.075 S 
BRANCH  19  20
ATOM     20  C   UNL     1       0.848  -7.456  -1.797  0.00  0.00    +0.173 C 
BRANCH  20  22
ATOM     21  N   UNL     1       1.334  -5.076  -2.263  0.00  0.00    -0.284 N 
ATOM     22  C   UNL     1       1.446  -6.364  -2.645  0.00  0.00    +0.228 C 
ATOM     23  O   UNL     1       2.029  -6.644  -3.671  0.00  0.00    -0.275 OA
ATOM     24  H   UNL     1       0.939  -4.858  -1.405  0.00  0.00    +0.155 HD
BRANCH  21  30
ATOM     25  C   UNL     1       2.156  -2.818  -2.573  0.00  0.00    +0.029 A 
ATOM     26  C   UNL     1       2.609  -1.811  -3.414  0.00  0.00    +0.016 A 
ATOM     27  C   UNL     1       2.689  -2.032  -4.776  0.00  0.00    +0.001 A 
ATOM     28  C   UNL     1       2.319  -3.255  -5.305  0.00  0.00    +0.002 A 
ATOM     29  C   UNL     1       1.866  -4.264  -4.475  0.00  0.00    +0.024 A 
ATOM     30  C   UNL     1       1.788  -4.053  -3.107  0.00  0.00    +0.047 A 
BRANCH  25  31
ATOM     31  S   UNL     1       2.053  -2.540  -0.836  0.00  0.00    -0.123 S 
BRANCH  31  32
ATOM     32  C   UNL     1       2.624  -0.830  -0.631  0.00  0.00    +0.074 C 
BRANCH  32  34
ATOM     33  C   UNL     1       3.066   0.988   1.024  0.00  0.00    +0.004 C 
ATOM     34  C   UNL     1       2.584  -0.454   0.851  0.00  0.00    +0.008 C 
ENDBRANCH  32  34
ENDBRANCH  31  32
ENDBRANCH  25  31
ENDBRANCH  21  30
ENDBRANCH  20  22
ENDBRANCH  19  20
ENDBRANCH   1  19
TORSDOF 10
