REMARK  Name = ZINC40783594
REMARK  4 active torsions:
REMARK  status: ('A' for Active; 'I' for Inactive)
REMARK    1  A    between atoms: C_1  and  C_2
REMARK    2  A    between atoms: C_13  and  N_27
REMARK    3  A    between atoms: C_14  and  N_18
REMARK    4  A    between atoms: N_18  and  C_19
REMARK                            x       y       z     vdW  Elec       q    Type
REMARK                         _______ _______ _______ _____ _____    ______ ____
ROOT
ATOM      1  C   UNL     1       2.975   1.170   0.012  0.00  0.00    +0.044 C 
ATOM      2  C   UNL     1       2.625  -0.296   0.003  0.00  0.00    -0.049 A 
ATOM      3  C   UNL     1       2.433  -0.964  -1.198  0.00  0.00    +0.005 A 
ATOM      4  C   UNL     1       2.114  -2.296  -1.233  0.00  0.00    +0.029 A 
ATOM      5  C   UNL     1       1.969  -3.037  -0.037  0.00  0.00    +0.080 A 
ATOM      6  C   UNL     1       2.172  -2.324   1.166  0.00  0.00    +0.041 A 
ATOM      7  C   UNL     1       2.497  -0.991   1.192  0.00  0.00    +0.020 A 
ATOM      8  S   UNL     1       1.908  -3.577   2.398  0.00  0.00    -0.052 S 
ATOM      9  C   UNL     1       1.556  -4.923   1.276  0.00  0.00    +0.165 A 
ATOM     10  N   UNL     1       1.662  -4.345   0.102  0.00  0.00    -0.225 NA
ATOM     11  N   UNL     1       1.252  -6.239   1.570  0.00  0.00    -0.277 N 
ATOM     12  C   UNL     1       1.008  -7.143   0.541  0.00  0.00    +0.150 A 
ATOM     13  C   UNL     1       0.694  -8.473   0.825  0.00  0.00    +0.106 A 
ATOM     14  C   UNL     1       0.458  -9.338  -0.245  0.00  0.00    +0.149 A 
ATOM     15  N   UNL     1       0.542  -8.866  -1.487  0.00  0.00    -0.219 NA
ATOM     16  C   UNL     1       0.842  -7.603  -1.711  0.00  0.00    +0.225 A 
ATOM     17  N   UNL     1       1.066  -6.752  -0.730  0.00  0.00    -0.219 NA
ATOM     18  H   UNL     1       1.208  -6.532   2.494  0.00  0.00    +0.156 HD
ENDROOT
BRANCH  13  19
ATOM     19  N   UNL     1       0.617  -8.928   2.151  0.00  0.00    -0.353 N 
ATOM     20  H   UNL     1       0.783  -8.316   2.884  0.00  0.00    +0.143 HD
ATOM     21  H   UNL     1       0.397  -9.855   2.333  0.00  0.00    +0.143 HD
ENDBRANCH  13  19
BRANCH  14  22
ATOM     22  N   UNL     1       0.142 -10.673  -0.018  0.00  0.00    -0.296 N 
ATOM     23  H   UNL     1      -0.011 -10.988   0.887  0.00  0.00    +0.154 HD
BRANCH  22  24
ATOM     24  C   UNL     1       0.044 -11.562  -1.094  0.00  0.00    +0.068 A 
ATOM     25  C   UNL     1       0.629 -11.246  -2.313  0.00  0.00    +0.027 A 
ATOM     26  C   UNL     1       0.530 -12.125  -3.374  0.00  0.00    +0.017 A 
ATOM     27  C   UNL     1      -0.151 -13.320  -3.224  0.00  0.00    +0.021 A 
ATOM     28  C   UNL     1      -0.735 -13.639  -2.011  0.00  0.00    +0.055 A 
ATOM     29  C   UNL     1      -0.635 -12.766  -0.944  0.00  0.00    +0.145 A 
ATOM     30  F   UNL     1      -1.200 -13.081   0.243  0.00  0.00    -0.204 F 
ATOM     31 BR   UNL     1      -0.283 -14.520  -4.680  0.00  0.00    -0.050 Br
ENDBRANCH  22  24
ENDBRANCH  14  22
TORSDOF 3
