REMARK  Name = ZINC67066888
REMARK  12 active torsions:
REMARK  status: ('A' for Active; 'I' for Inactive)
REMARK    1  A    between atoms: C_1  and  C_2
REMARK    2  A    between atoms: C_2  and  N_3
REMARK    3  A    between atoms: N_3  and  C_4
REMARK    4  A    between atoms: N_3  and  C_6
REMARK    5  A    between atoms: C_4  and  C_5
REMARK    6  A    between atoms: C_6  and  C_8
REMARK    7  A    between atoms: C_6  and  C_15
REMARK    8  A    between atoms: C_8  and  C_9
REMARK    9  A    between atoms: C_15  and  N_16
REMARK   10  A    between atoms: N_19  and  N_20
REMARK   11  A    between atoms: C_21  and  C_23
REMARK   12  A    between atoms: C_24  and  C_28
REMARK                            x       y       z     vdW  Elec       q    Type
REMARK                         _______ _______ _______ _____ _____    ______ ____
ROOT
ATOM      1  N   UNL     1      -3.433  -2.236   1.637  0.00  0.00    -0.300 N 
ATOM      2  C   UNL     1      -4.470  -3.077   1.455  0.00  0.00    +0.316 C 
ATOM      3  O   UNL     1      -5.577  -2.634   1.214  0.00  0.00    -0.251 OA
ATOM      4  N   UNL     1      -4.281  -4.409   1.540  0.00  0.00    -0.218 N 
ATOM      5  H   UNL     1      -2.537  -2.589   1.757  0.00  0.00    +0.150 HD
ATOM      6  H   UNL     1      -5.010  -5.016   1.338  0.00  0.00    +0.174 HD
ENDROOT
BRANCH   4   7
ATOM      7  N   UNL     1      -3.032  -4.916   1.922  0.00  0.00    -0.229 N 
ATOM      8  C   UNL     1      -2.870  -6.241   2.106  0.00  0.00    +0.267 C 
ATOM      9  O   UNL     1      -3.810  -6.998   1.940  0.00  0.00    -0.268 OA
ATOM     10  H   UNL     1      -2.284  -4.313   2.053  0.00  0.00    +0.173 HD
BRANCH   8  11
ATOM     11  C   UNL     1      -1.564  -6.772   2.504  0.00  0.00    +0.078 A 
ATOM     12  C   UNL     1      -1.188  -8.086   2.737  0.00  0.00    -0.031 A 
ATOM     13  C   UNL     1       0.123  -8.277   3.102  0.00  0.00    +0.011 A 
ATOM     14  C   UNL     1       0.941  -7.200   3.207  0.00  0.00    +0.046 A 
ATOM     15  S   UNL     1      -0.041  -5.897   2.809  0.00  0.00    -0.092 S 
ATOM     16  C   UNL     1      -2.156  -9.233   2.599  0.00  0.00    +0.045 C 
ENDBRANCH   8  11
ENDBRANCH   4   7
BRANCH   1  17
ATOM     17  C   UNL     1      -3.658  -0.789   1.654  0.00  0.00    +0.091 C 
BRANCH  17  18
ATOM     18  C   UNL     1      -2.312  -0.065   1.738  0.00  0.00    -0.047 C 
BRANCH  18  19
ATOM     19  N   UNL     1      -1.426  -0.553   0.673  0.00  0.00    +0.382 N 
ATOM     20  H   UNL     1      -1.559  -1.546   0.554  0.00  0.00    -0.081 HD
BRANCH  19  22
ATOM     21  C   UNL     1      -2.759  -0.688  -1.377  0.00  0.00    -0.017 C 
ATOM     22  C   UNL     1      -1.744   0.138  -0.584  0.00  0.00    -0.082 C 
ENDBRANCH  19  22
BRANCH  19  23
ATOM     23  C   UNL     1      -0.028  -0.286   1.038  0.00  0.00    -0.082 C 
ATOM     24  C   UNL     1       0.353  -1.138   2.251  0.00  0.00    -0.017 C 
ENDBRANCH  19  23
ENDBRANCH  18  19
BRANCH  18  25
ATOM     25  C   UNL     1      -2.531   1.440   1.569  0.00  0.00    +0.021 C 
BRANCH  25  26
ATOM     26  C   UNL     1      -1.204   2.151   1.630  0.00  0.00    -0.049 A 
ATOM     27  C   UNL     1      -0.590   2.365   2.850  0.00  0.00    +0.003 A 
ATOM     28  C   UNL     1       0.627   3.018   2.906  0.00  0.00    +0.000 A 
ATOM     29  C   UNL     1       1.231   3.455   1.742  0.00  0.00    +0.000 A 
ATOM     30  C   UNL     1       0.618   3.240   0.522  0.00  0.00    +0.000 A 
ATOM     31  C   UNL     1      -0.598   2.584   0.466  0.00  0.00    +0.003 A 
ENDBRANCH  25  26
ENDBRANCH  18  25
ENDBRANCH  17  18
ENDBRANCH   1  17
TORSDOF 9
