REMARK  Name = ZINC09435279
REMARK  4 active torsions:
REMARK  status: ('A' for Active; 'I' for Inactive)
REMARK    1  A    between atoms: C_6  and  C_7
REMARK    2  A    between atoms: C_10  and  C_29
REMARK    3  A    between atoms: C_15  and  C_17
REMARK    4  A    between atoms: C_22  and  C_25
REMARK                            x       y       z     vdW  Elec       q    Type
REMARK                         _______ _______ _______ _____ _____    ______ ____
ROOT
ATOM      1  C   UNL     1       2.784  -2.968  -7.306  0.00  0.00    +0.104 C 
ATOM      2  C   UNL     1       4.063  -2.876  -6.467  0.00  0.00    +0.063 C 
ATOM      3  C   UNL     1       3.941  -1.734  -5.452  0.00  0.00    +0.215 C 
ATOM      4  N   UNL     1       2.669  -1.871  -4.735  0.00  0.00    -0.238 N 
ATOM      5  C   UNL     1       1.615  -2.607  -5.196  0.00  0.00    +0.119 A 
ATOM      6  C   UNL     1       0.617  -2.521  -4.295  0.00  0.00    +0.078 A 
ATOM      7  C   UNL     1       1.067  -1.699  -3.236  0.00  0.00    +0.149 A 
ATOM      8  N   UNL     1       2.299  -1.309  -3.514  0.00  0.00    -0.164 NA
ATOM      9  N   UNL     1       1.657  -3.298  -6.410  0.00  0.00    -0.322 N 
ATOM     10  H   UNL     1       0.987  -3.957  -6.650  0.00  0.00    +0.148 HD
ENDROOT
BRANCH   1  16
ATOM     11  C   UNL     1       2.784  -5.374  -7.990  0.00  0.00    +0.009 A 
ATOM     12  C   UNL     1       2.918  -6.368  -8.942  0.00  0.00    +0.050 A 
ATOM     13  C   UNL     1       3.217  -6.037 -10.253  0.00  0.00    +0.166 A 
ATOM     14  C   UNL     1       3.376  -4.699 -10.610  0.00  0.00    +0.167 A 
ATOM     15  C   UNL     1       3.235  -3.709  -9.653  0.00  0.00    +0.055 A 
ATOM     16  C   UNL     1       2.937  -4.047  -8.346  0.00  0.00    -0.024 A 
ATOM     17  O   UNL     1       3.663  -4.636 -11.943  0.00  0.00    -0.453 OA
ATOM     18  C   UNL     1       3.276  -5.914 -12.482  0.00  0.00    +0.466 C 
ATOM     19  O   UNL     1       3.405  -6.810 -11.362  0.00  0.00    -0.453 OA
ENDBRANCH   1  16
BRANCH   7  20
ATOM     20  C   UNL     1       0.293  -1.335  -2.032  0.00  0.00    +0.267 C 
ATOM     21  O   UNL     1      -0.877  -1.652  -1.943  0.00  0.00    -0.268 OA
ATOM     22  N   UNL     1       0.884  -0.651  -1.033  0.00  0.00    -0.296 N 
ATOM     23  C   UNL     1       0.100  -0.178   0.117  0.00  0.00    +0.109 C 
ATOM     24  C   UNL     1       0.333   1.327   0.287  0.00  0.00    +0.032 C 
ATOM     25  C   UNL     1       1.835   1.597   0.397  0.00  0.00    +0.078 C 
ATOM     26  C   UNL     1       2.532   1.143  -0.888  0.00  0.00    +0.032 C 
ATOM     27  C   UNL     1       2.325  -0.364  -1.071  0.00  0.00    +0.109 C 
BRANCH  25  28
ATOM     28  C   UNL     1       2.066   3.073   0.598  0.00  0.00    +0.214 C 
ATOM     29  O   UNL     1       1.122   3.833   0.649  0.00  0.00    -0.276 OA
ATOM     30  N   UNL     1       3.321   3.548   0.722  0.00  0.00    -0.329 N 
ATOM     31  H   UNL     1       4.076   2.940   0.681  0.00  0.00    +0.145 HD
ATOM     32  H   UNL     1       3.470   4.497   0.852  0.00  0.00    +0.145 HD
ENDBRANCH  25  28
ENDBRANCH   7  20
BRANCH   3  33
ATOM     33  C   UNL     1       5.100  -1.807  -4.456  0.00  0.00    +0.412 C 
ATOM     34  F   UNL     1       6.313  -1.690  -5.144  0.00  0.00    -0.168 F 
ATOM     35  F   UNL     1       4.987  -0.764  -3.531  0.00  0.00    -0.168 F 
ATOM     36  F   UNL     1       5.062  -3.033  -3.784  0.00  0.00    -0.168 F 
ENDBRANCH   3  33
TORSDOF 4
