REMARK  Name = ZINC54144648
REMARK  6 active torsions:
REMARK  status: ('A' for Active; 'I' for Inactive)
REMARK    1  A    between atoms: C_1  and  O_2
REMARK    2  A    between atoms: O_2  and  C_3
REMARK    3  A    between atoms: C_7  and  C_10
REMARK    4  A    between atoms: C_8  and  O_9
REMARK    5  A    between atoms: N_12  and  N_13
REMARK    6  A    between atoms: C_14  and  C_16
REMARK                            x       y       z     vdW  Elec       q    Type
REMARK                         _______ _______ _______ _____ _____    ______ ____
ROOT
ATOM      1  N   UNL     1       1.993  -6.066  -3.454  0.00  0.00    -0.230 N 
ATOM      2  C   UNL     1       2.594  -6.653  -4.508  0.00  0.00    +0.267 C 
ATOM      3  O   UNL     1       3.088  -5.969  -5.386  0.00  0.00    -0.268 OA
ATOM      4  H   UNL     1       1.599  -6.611  -2.755  0.00  0.00    +0.173 HD
ENDROOT
BRANCH   2   5
ATOM      5  C   UNL     1       2.649  -8.067  -4.595  0.00  0.00    +0.079 A 
ATOM      6  C   UNL     1       3.218  -8.853  -5.580  0.00  0.00    +0.049 A 
ATOM      7  C   UNL     1       3.159 -10.232  -5.466  0.00  0.00    +0.082 A 
ATOM      8  C   UNL     1       2.512 -10.743  -4.335  0.00  0.00    +0.128 A 
ATOM      9  S   UNL     1       2.010  -9.284  -3.455  0.00  0.00    -0.062 S 
ATOM     10  N   UNL     1       2.540 -12.068  -4.375  0.00  0.00    -0.214 NA
ATOM     11  C   UNL     1       3.162 -12.453  -5.457  0.00  0.00    +0.179 A 
ATOM     12  N   UNL     1       3.581 -11.378  -6.193  0.00  0.00    -0.293 N 
ATOM     13  C   UNL     1       4.254 -11.644  -7.364  0.00  0.00    +0.101 A 
ATOM     14  C   UNL     1       4.480 -12.899  -7.750  0.00  0.00    +0.067 A 
ATOM     15  S   UNL     1       3.725 -13.833  -6.428  0.00  0.00    -0.058 S 
ENDBRANCH   2   5
BRANCH   1  18
ATOM     16  C   UNL     1       1.337  -4.081  -2.314  0.00  0.00    +0.264 C 
ATOM     17  O   UNL     1       0.844  -4.764  -1.438  0.00  0.00    -0.269 OA
ATOM     18  N   UNL     1       1.938  -4.669  -3.368  0.00  0.00    -0.230 N 
ATOM     19  H   UNL     1       2.332  -4.124  -4.067  0.00  0.00    +0.173 HD
BRANCH  16  24
ATOM     20  C   UNL     1       0.606  -0.608  -1.056  0.00  0.00    +0.162 A 
ATOM     21  C   UNL     1       1.172   0.160  -2.061  0.00  0.00    +0.049 A 
ATOM     22  C   UNL     1       1.789  -0.448  -3.142  0.00  0.00    +0.005 A 
ATOM     23  C   UNL     1       1.846  -1.821  -3.229  0.00  0.00    +0.017 A 
ATOM     24  C   UNL     1       1.279  -2.610  -2.224  0.00  0.00    +0.083 A 
ATOM     25  C   UNL     1       0.661  -1.996  -1.128  0.00  0.00    +0.171 A 
BRANCH  20  27
ATOM     26  C   UNL     1      -0.017   1.425   0.010  0.00  0.00    +0.277 C 
ATOM     27  O   UNL     1       0.002  -0.004   0.002  0.00  0.00    -0.491 OA
ENDBRANCH  20  27
BRANCH  25  28
ATOM     28  O   UNL     1       0.112  -2.752  -0.142  0.00  0.00    -0.503 OA
ATOM     29  H   UNL     1      -0.816  -2.979  -0.291  0.00  0.00    +0.292 HD
ENDBRANCH  25  28
ENDBRANCH  16  24
ENDBRANCH   1  18
TORSDOF 5
