REMARK  Name = ZINC62063542
REMARK  5 active torsions:
REMARK  status: ('A' for Active; 'I' for Inactive)
REMARK    1  A    between atoms: C_1  and  C_2
REMARK    2  A    between atoms: C_2  and  C_3
REMARK    3  A    between atoms: C_3  and  C_5
REMARK    4  A    between atoms: C_3  and  N_6
REMARK    5  A    between atoms: N_9  and  C_10
REMARK                            x       y       z     vdW  Elec       q    Type
REMARK                         _______ _______ _______ _____ _____    ______ ____
ROOT
ATOM      1  N   UNL     1      -0.055  -0.114  -2.441  0.00  0.00    -0.297 N 
ATOM      2  C   UNL     1       0.561   0.028  -3.631  0.00  0.00    +0.300 C 
ATOM      3  O   UNL     1       1.758  -0.163  -3.722  0.00  0.00    -0.253 OA
ATOM      4  N   UNL     1      -0.150   0.381  -4.720  0.00  0.00    -0.296 N 
ATOM      5  H   UNL     1      -1.010   0.038  -2.368  0.00  0.00    +0.151 HD
ATOM      6  H   UNL     1      -1.105   0.533  -4.647  0.00  0.00    +0.151 HD
ENDROOT
BRANCH   4   7
ATOM      7  C   UNL     1       0.519   0.535  -6.014  0.00  0.00    +0.079 C 
ATOM      8  C   UNL     1       1.097   1.949  -6.127  0.00  0.00    +0.050 C 
ATOM      9  C   UNL     1       1.725   2.126  -7.512  0.00  0.00    +0.161 C 
ATOM     10  O   UNL     1       0.739   1.879  -8.516  0.00  0.00    -0.380 OA
ATOM     11  C   UNL     1       0.198   0.557  -8.489  0.00  0.00    +0.161 C 
ATOM     12  C   UNL     1      -0.492   0.316  -7.143  0.00  0.00    +0.050 C 
ENDBRANCH   4   7
BRANCH   1  13
ATOM     13  C   UNL     1       0.718  -0.497  -1.257  0.00  0.00    +0.071 C 
ATOM     14  C   UNL     1       0.849  -2.021  -1.205  0.00  0.00    +0.028 C 
BRANCH  13  16
ATOM     15  C   UNL     1      -0.019   1.526   0.010  0.00  0.00    +0.005 C 
ATOM     16  C   UNL     1       0.002  -0.004   0.002  0.00  0.00    +0.019 C 
ENDBRANCH  13  16
ENDBRANCH   1  13
TORSDOF 3
