REMARK  Name = ZINC03978776
REMARK  16 active torsions:
REMARK  status: ('A' for Active; 'I' for Inactive)
REMARK    1  A    between atoms: C_1  and  C_2
REMARK    2  A    between atoms: C_3  and  O_31
REMARK    3  A    between atoms: C_6  and  O_30
REMARK    4  A    between atoms: C_7  and  C_29
REMARK    5  A    between atoms: C_8  and  O_28
REMARK    6  A    between atoms: C_9  and  C_22
REMARK    7  A    between atoms: C_13  and  C_16
REMARK    8  A    between atoms: C_14  and  O_15
REMARK    9  A    between atoms: C_16  and  C_18
REMARK   10  A    between atoms: C_18  and  C_19
REMARK   11  A    between atoms: C_19  and  C_20
REMARK   12  A    between atoms: C_19  and  C_21
REMARK   13  A    between atoms: C_22  and  C_24
REMARK   14  A    between atoms: C_24  and  C_25
REMARK   15  A    between atoms: C_25  and  C_26
REMARK   16  A    between atoms: C_25  and  C_27
REMARK                            x       y       z     vdW  Elec       q    Type
REMARK                         _______ _______ _______ _____ _____    ______ ____
ROOT
ATOM      1  C   UNL     1      -0.018   1.503   0.010  0.00  0.00    +0.051 C 
ATOM      2  C   UNL     1       0.002  -0.004   0.002  0.00  0.00    +0.034 A 
ATOM      3  C   UNL     1       0.006  -0.688  -1.204  0.00  0.00    +0.135 A 
ATOM      4  C   UNL     1       0.024  -2.086  -1.218  0.00  0.00    +0.074 A 
ATOM      5  C   UNL     1       0.032  -3.098  -2.292  0.00  0.00    +0.074 A 
ATOM      6  C   UNL     1       0.025  -3.028  -3.689  0.00  0.00    +0.135 A 
ATOM      7  C   UNL     1       0.037  -4.190  -4.445  0.00  0.00    +0.034 A 
ATOM      8  C   UNL     1       0.056  -5.426  -3.822  0.00  0.00    +0.137 A 
ATOM      9  C   UNL     1       0.064  -5.514  -2.419  0.00  0.00    +0.102 A 
ATOM     10  C   UNL     1       0.052  -4.335  -1.645  0.00  0.00    +0.154 A 
ATOM     11  O   UNL     1       0.056  -4.123  -0.314  0.00  0.00    -0.453 OA
ATOM     12  C   UNL     1       0.040  -2.807  -0.022  0.00  0.00    +0.154 A 
ATOM     13  C   UNL     1       0.037  -2.106   1.202  0.00  0.00    +0.102 A 
ATOM     14  C   UNL     1       0.023  -0.700   1.199  0.00  0.00    +0.137 A 
ATOM     15  C   UNL     1       0.029  -4.107  -5.949  0.00  0.00    +0.051 C 
ENDROOT
BRANCH  14  16
ATOM     16  O   UNL     1       0.025  -0.023   2.374  0.00  0.00    -0.506 OA
ATOM     17  H   UNL     1      -0.857   0.162   2.723  0.00  0.00    +0.292 HD
ENDBRANCH  14  16
BRANCH  13  18
ATOM     18  C   UNL     1       0.052  -2.816   2.429  0.00  0.00    +0.170 C 
ATOM     19  O   UNL     1       0.067  -4.029   2.429  0.00  0.00    -0.292 OA
BRANCH  18  20
ATOM     20  C   UNL     1       0.049  -2.063   3.735  0.00  0.00    +0.083 C 
BRANCH  20  21
ATOM     21  C   UNL     1       0.067  -3.058   4.897  0.00  0.00    -0.010 C 
ATOM     22  C   UNL     1       0.190  -2.296   6.219  0.00  0.00    +0.007 C 
ATOM     23  C   UNL     1      -1.230  -3.869   4.895  0.00  0.00    +0.007 C 
ENDBRANCH  20  21
ENDBRANCH  18  20
ENDBRANCH  13  18
BRANCH   9  24
ATOM     24  C   UNL     1       0.082  -6.782  -1.784  0.00  0.00    +0.170 C 
ATOM     25  O   UNL     1       0.089  -6.855  -0.573  0.00  0.00    -0.292 OA
BRANCH  24  26
ATOM     26  C   UNL     1       0.095  -8.040  -2.615  0.00  0.00    +0.083 C 
BRANCH  26  27
ATOM     27  C   UNL     1       0.114  -9.260  -1.692  0.00  0.00    -0.010 C 
ATOM     28  C   UNL     1       0.001 -10.535  -2.529  0.00  0.00    +0.007 C 
ATOM     29  C   UNL     1       1.425  -9.283  -0.904  0.00  0.00    +0.007 C 
ENDBRANCH  26  27
ENDBRANCH  24  26
ENDBRANCH   9  24
BRANCH   8  30
ATOM     30  O   UNL     1       0.067  -6.558  -4.569  0.00  0.00    -0.506 OA
ATOM     31  H   UNL     1       0.953  -6.875  -4.790  0.00  0.00    +0.292 HD
ENDBRANCH   8  30
BRANCH   6  32
ATOM     32  O   UNL     1       0.006  -1.820  -4.306  0.00  0.00    -0.506 OA
ATOM     33  H   UNL     1       0.883  -1.458  -4.489  0.00  0.00    +0.292 HD
ENDBRANCH   6  32
BRANCH   3  34
ATOM     34  O   UNL     1      -0.009   0.001  -2.372  0.00  0.00    -0.506 OA
ATOM     35  H   UNL     1       0.870   0.212  -2.715  0.00  0.00    +0.292 HD
ENDBRANCH   3  34
TORSDOF 10
