REMARK  Name = ZINC41962539
REMARK  10 active torsions:
REMARK  status: ('A' for Active; 'I' for Inactive)
REMARK    1  A    between atoms: C_1  and  C_2
REMARK    2  A    between atoms: C_5  and  C_29
REMARK    3  A    between atoms: N_8  and  C_10
REMARK    4  A    between atoms: C_13  and  C_19
REMARK    5  A    between atoms: C_15  and  N_16
REMARK    6  A    between atoms: N_21  and  N_22
REMARK    7  A    between atoms: N_22  and  C_23
REMARK    8  A    between atoms: C_23  and  N_25
REMARK    9  A    between atoms: N_25  and  C_26
REMARK   10  A    between atoms: C_26  and  C_27
REMARK                            x       y       z     vdW  Elec       q    Type
REMARK                         _______ _______ _______ _____ _____    ______ ____
ROOT
ATOM      1  C   UNL     1       1.781  -2.764   1.398  0.00  0.00    +0.060 A 
ATOM      2  C   UNL     1       2.441  -3.195   0.251  0.00  0.00    +0.026 A 
ATOM      3  C   UNL     1       3.571  -3.972   0.356  0.00  0.00    +0.015 A 
ATOM      4  C   UNL     1       4.056  -4.330   1.617  0.00  0.00    +0.040 A 
ATOM      5  C   UNL     1       3.391  -3.896   2.768  0.00  0.00    +0.047 A 
ATOM      6  C   UNL     1       2.264  -3.114   2.656  0.00  0.00    +0.148 A 
ENDROOT
BRANCH   1  12
ATOM      7  C   UNL     1      -0.019   1.526   0.010  0.00  0.00    +0.009 C 
ATOM      8  C   UNL     1       0.002  -0.004   0.002  0.00  0.00    +0.003 C 
ATOM      9  C   UNL     1      -1.433  -0.534   0.015  0.00  0.00    +0.009 C 
ATOM     10  C   UNL     1      -1.414  -2.064  -0.027  0.00  0.00    +0.003 C 
ATOM     11  C   UNL     1      -0.692  -2.596   1.215  0.00  0.00    +0.108 C 
ATOM     12  N   UNL     1       0.639  -1.977   1.288  0.00  0.00    -0.328 N 
ATOM     13  C   UNL     1       0.742  -0.512   1.244  0.00  0.00    +0.108 C 
ATOM     14  C   UNL     1      -0.680  -2.532  -1.285  0.00  0.00    +0.009 C 
ENDBRANCH   1  12
BRANCH   4  15
ATOM     15  C   UNL     1       5.267  -5.164   1.734  0.00  0.00    +0.260 C 
ATOM     16  O   UNL     1       5.688  -5.475   2.832  0.00  0.00    -0.269 OA
ATOM     17  N   UNL     1       5.907  -5.582   0.624  0.00  0.00    -0.231 N 
ATOM     18  H   UNL     1       5.571  -5.335  -0.252  0.00  0.00    +0.173 HD
BRANCH  17  19
ATOM     19  N   UNL     1       7.057  -6.375   0.735  0.00  0.00    -0.246 N 
ATOM     20  H   UNL     1       7.393  -6.622   1.611  0.00  0.00    +0.172 HD
BRANCH  19  21
ATOM     21  C   UNL     1       7.697  -6.793  -0.375  0.00  0.00    +0.147 C 
ATOM     22  S   UNL     1       9.102  -7.761  -0.240  0.00  0.00    -0.017 S 
BRANCH  21  23
ATOM     23  N   UNL     1       7.230  -6.449  -1.592  0.00  0.00    -0.322 N 
ATOM     24  H   UNL     1       6.434  -5.900  -1.669  0.00  0.00    +0.148 HD
BRANCH  23  25
ATOM     25  C   UNL     1       7.926  -6.903  -2.799  0.00  0.00    +0.130 C 
BRANCH  25  26
ATOM     26  C   UNL     1       7.207  -6.386  -4.018  0.00  0.00    -0.016 C 
ATOM     27  C   UNL     1       7.857  -5.688  -4.915  0.00  0.00    +0.005 C 
ENDBRANCH  25  26
ENDBRANCH  23  25
ENDBRANCH  21  23
ENDBRANCH  19  21
ENDBRANCH  17  19
ENDBRANCH   4  15
BRANCH   6  28
ATOM     28  N   UNL     1       1.563  -2.648   3.873  0.00  0.00    +0.058 N 
ATOM     29  O   UNL     1       1.983  -2.952   4.966  0.00  0.00    -0.126 OA
ATOM     30  O   UNL     1       0.571  -1.965   3.776  0.00  0.00    -0.126 OA
ENDBRANCH   6  28
TORSDOF 8
