REMARK  Name = ZINC47257376
REMARK  7 active torsions:
REMARK  status: ('A' for Active; 'I' for Inactive)
REMARK    1  A    between atoms: C_1  and  C_2
REMARK    2  A    between atoms: C_8  and  C_10
REMARK    3  A    between atoms: C_10  and  C_12
REMARK    4  A    between atoms: C_10  and  N_13
REMARK    5  A    between atoms: C_16  and  C_19
REMARK    6  A    between atoms: C_26  and  O_29
REMARK    7  A    between atoms: O_29  and  C_30
REMARK                            x       y       z     vdW  Elec       q    Type
REMARK                         _______ _______ _______ _____ _____    ______ ____
ROOT
ATOM      1  N   UNL     1      -5.059  -3.987   0.003  0.00  0.00    +0.390 N 
ATOM      2  C   UNL     1      -5.911  -5.187  -0.011  0.00  0.00    -0.073 C 
ATOM      3  C   UNL     1      -7.357  -4.762   0.260  0.00  0.00    +0.017 C 
ATOM      4  C   UNL     1      -7.726  -3.622  -0.649  0.00  0.00    -0.046 C 
ATOM      5  C   UNL     1      -6.822  -2.915  -1.295  0.00  0.00    -0.041 C 
ATOM      6  C   UNL     1      -5.348  -3.181  -1.188  0.00  0.00    -0.050 C 
ATOM      7  H   UNL     1      -5.250  -3.445   0.833  0.00  0.00    -0.080 HD
ENDROOT
BRANCH   4   8
ATOM      8  C   UNL     1      -9.152  -3.285  -0.825  0.00  0.00    +0.003 A 
ATOM      9  C   UNL     1     -10.066  -3.978  -1.552  0.00  0.00    +0.091 A 
ATOM     10  N   UNL     1     -11.279  -3.360  -1.477  0.00  0.00    -0.360 N 
ATOM     11  H   UNL     1     -12.088  -3.669  -1.915  0.00  0.00    +0.165 HD
ATOM     12  C   UNL     1     -11.191  -2.231  -0.688  0.00  0.00    +0.047 A 
ATOM     13  C   UNL     1      -9.862  -2.135  -0.240  0.00  0.00    +0.010 A 
ATOM     14  C   UNL     1      -9.479  -1.082   0.589  0.00  0.00    +0.056 A 
ATOM     15  C   UNL     1     -10.412  -0.138   0.969  0.00  0.00    +0.121 A 
ATOM     16  C   UNL     1     -11.729  -0.236   0.528  0.00  0.00    +0.047 A 
ATOM     17  C   UNL     1     -12.116  -1.268  -0.298  0.00  0.00    +0.030 A 
BRANCH  15  18
ATOM     18  O   UNL     1     -10.044   0.891   1.779  0.00  0.00    -0.495 OA
ATOM     19  C   UNL     1     -11.059   1.833   2.134  0.00  0.00    +0.277 C 
ENDBRANCH  15  18
ENDBRANCH   4   8
BRANCH   1  20
ATOM     20  C   UNL     1      -3.646  -4.389  -0.006  0.00  0.00    +0.017 C 
ATOM     21  C   UNL     1      -3.346  -5.229   1.237  0.00  0.00    -0.004 C 
BRANCH  20  29
ATOM     22  C   UNL     1      -0.018   1.503   0.010  0.00  0.00    +0.089 C 
ATOM     23  C   UNL     1       0.002  -0.004   0.002  0.00  0.00    +0.136 A 
ATOM     24  C   UNL     1      -1.076  -0.808   0.003  0.00  0.00    +0.091 A 
ATOM     25  C   UNL     1      -0.625  -2.147  -0.007  0.00  0.00    +0.168 A 
ATOM     26  N   UNL     1       0.683  -2.130  -0.013  0.00  0.00    -0.063 NA
ATOM     27  O   UNL     1       1.100  -0.776  -0.013  0.00  0.00    -0.358 OA
ATOM     28  N   UNL     1      -1.432  -3.285  -0.010  0.00  0.00    -0.269 N 
ATOM     29  C   UNL     1      -2.774  -3.159  -0.003  0.00  0.00    +0.205 C 
ATOM     30  O   UNL     1      -3.280  -2.057   0.006  0.00  0.00    -0.277 OA
ATOM     31  H   UNL     1      -1.027  -4.166  -0.017  0.00  0.00    +0.156 HD
ENDBRANCH  20  29
ENDBRANCH   1  20
TORSDOF 4
