REMARK  Name = ZINC50224228
REMARK  5 active torsions:
REMARK  status: ('A' for Active; 'I' for Inactive)
REMARK    1  A    between atoms: C_5  and  N_8
REMARK    2  A    between atoms: C_9  and  C_11
REMARK    3  A    between atoms: C_11  and  N_12
REMARK    4  A    between atoms: C_14  and  C_17
REMARK    5  A    between atoms: C_17  and  N_18
REMARK                            x       y       z     vdW  Elec       q    Type
REMARK                         _______ _______ _______ _____ _____    ______ ____
ROOT
ATOM      1  N   UNL     1       1.238  -2.081  -0.021  0.00  0.00    -0.282 N 
ATOM      2  C   UNL     1       0.155  -2.774   0.384  0.00  0.00    +0.239 C 
ATOM      3  O   UNL     1      -0.868  -2.189   0.670  0.00  0.00    -0.273 OA
ATOM      4  H   UNL     1       2.032  -2.552  -0.319  0.00  0.00    +0.155 HD
ENDROOT
BRANCH   1   9
ATOM      5  C   UNL     1       0.782   1.397  -1.131  0.00  0.00    +0.032 A 
ATOM      6  C   UNL     1       1.172   2.087   0.003  0.00  0.00    +0.020 A 
ATOM      7  C   UNL     1       1.584   1.397   1.129  0.00  0.00    +0.032 A 
ATOM      8  C   UNL     1       1.607   0.015   1.124  0.00  0.00    +0.041 A 
ATOM      9  C   UNL     1       1.215  -0.681  -0.013  0.00  0.00    +0.062 A 
ATOM     10  C   UNL     1       0.802   0.016  -1.142  0.00  0.00    +0.041 A 
ATOM     11 BR   UNL     1       0.268  -0.926  -2.692  0.00  0.00    -0.048 Br
ATOM     12 BR   UNL     1       2.170  -0.928   2.663  0.00  0.00    -0.048 Br
ATOM     13 BR   UNL     1       1.143   3.978   0.014  0.00  0.00    -0.050 Br
ENDBRANCH   1   9
BRANCH   2  14
ATOM     14  C   UNL     1       0.217  -4.277   0.483  0.00  0.00    +0.241 C 
BRANCH  14  15
ATOM     15  N   UNL     1      -1.076  -4.790   0.943  0.00  0.00    -0.243 N 
ATOM     16  C   UNL     1      -1.826  -5.725   0.317  0.00  0.00    +0.132 A 
ATOM     17  C   UNL     1      -2.930  -5.897   1.081  0.00  0.00    +0.066 A 
ATOM     18  N   UNL     1      -2.803  -5.069   2.124  0.00  0.00    -0.136 NA
ATOM     19  N   UNL     1      -1.691  -4.431   2.015  0.00  0.00    -0.065 NA
BRANCH  17  20
ATOM     20  C   UNL     1      -4.077  -6.837   0.810  0.00  0.00    -0.027 C 
BRANCH  20  21
ATOM     21  N   UNL     1      -3.858  -8.097   1.532  0.00  0.00    +0.382 N 
ATOM     22  H   UNL     1      -2.997  -8.519   1.219  0.00  0.00    -0.090 HD
ATOM     23  H   UNL     1      -3.802  -7.912   2.522  0.00  0.00    -0.090 HD
ATOM     24  H   UNL     1      -4.627  -8.726   1.350  0.00  0.00    -0.090 HD
ENDBRANCH  20  21
ENDBRANCH  17  20
ENDBRANCH  14  15
ENDBRANCH   2  14
TORSDOF 5
