REMARK  Name = ZINC35455572
REMARK  14 active torsions:
REMARK  status: ('A' for Active; 'I' for Inactive)
REMARK    1  A    between atoms: C_1  and  C_2
REMARK    2  A    between atoms: C_2  and  C_3
REMARK    3  A    between atoms: C_2  and  C_4
REMARK    4  A    between atoms: C_8  and  C_40
REMARK    5  A    between atoms: C_9  and  O_39
REMARK    6  A    between atoms: C_17  and  O_19
REMARK    7  A    between atoms: O_19  and  C_20
REMARK    8  A    between atoms: C_22  and  O_38
REMARK    9  A    between atoms: C_24  and  O_37
REMARK   10  A    between atoms: C_26  and  O_36
REMARK   11  A    between atoms: C_28  and  C_31
REMARK   12  A    between atoms: C_31  and  O_32
REMARK   13  A    between atoms: O_32  and  C_33
REMARK   14  A    between atoms: C_33  and  C_35
REMARK                            x       y       z     vdW  Elec       q    Type
REMARK                         _______ _______ _______ _____ _____    ______ ____
ROOT
ATOM      1  O   UNL     1      -1.096  -1.208  -1.653  0.00  0.00    -0.345 OA
ENDROOT
BRANCH   1  12
ATOM      2  C   UNL     1      -1.805  -1.605   0.625  0.00  0.00    +0.021 C 
ATOM      3  C   UNL     1      -2.103  -3.071   0.312  0.00  0.00    +0.007 C 
ATOM      4  C   UNL     1      -3.539  -3.213  -0.202  0.00  0.00    +0.010 C 
ATOM      5  C   UNL     1      -3.701  -2.368  -1.465  0.00  0.00    +0.003 C 
ATOM      6  C   UNL     1      -5.112  -2.505  -2.032  0.00  0.00    +0.121 C 
ATOM      7  C   UNL     1      -5.207  -1.735  -3.352  0.00  0.00    +0.036 C 
ATOM      8  C   UNL     1      -4.968  -0.243  -3.102  0.00  0.00    +0.033 C 
ATOM      9  C   UNL     1      -3.655  -0.074  -2.368  0.00  0.00    -0.070 C 
ATOM     10  C   UNL     1      -2.741   0.760  -2.799  0.00  0.00    +0.008 C 
ATOM     11  C   UNL     1      -3.433  -0.899  -1.122  0.00  0.00    +0.052 C 
ATOM     12  C   UNL     1      -1.992  -0.756  -0.636  0.00  0.00    +0.132 C 
ATOM     13  C   UNL     1      -2.694  -2.834  -2.519  0.00  0.00    +0.014 C 
BRANCH   2  15
ATOM     14  C   UNL     1      -0.066  -0.008   1.442  0.00  0.00    +0.007 C 
ATOM     15  C   UNL     1      -0.362  -1.473   1.117  0.00  0.00    -0.012 C 
ATOM     16  C   UNL     1      -0.173  -2.323   2.375  0.00  0.00    +0.007 C 
ENDBRANCH   2  15
BRANCH   6  17
ATOM     17  O   UNL     1      -5.401  -3.885  -2.263  0.00  0.00    -0.391 OA
ATOM     18  H   UNL     1      -6.283  -4.047  -2.624  0.00  0.00    +0.210 HD
ENDBRANCH   6  17
ENDBRANCH   1  12
BRANCH   1  19
ATOM     19  C   UNL     1      -0.005  -0.319  -1.904  0.00  0.00    +0.282 C 
ATOM     20  C   UNL     1       0.408  -0.421  -3.375  0.00  0.00    +0.201 C 
ATOM     21  C   UNL     1       1.615   0.489  -3.622  0.00  0.00    +0.179 C 
ATOM     22  C   UNL     1       2.747   0.088  -2.670  0.00  0.00    +0.178 C 
ATOM     23  C   UNL     1       2.242   0.171  -1.227  0.00  0.00    +0.190 C 
ATOM     24  O   UNL     1       1.101  -0.675  -1.073  0.00  0.00    -0.339 OA
BRANCH  22  25
ATOM     25  O   UNL     1       3.161  -1.249  -2.957  0.00  0.00    -0.386 OA
ATOM     26  H   UNL     1       3.488  -1.375  -3.858  0.00  0.00    +0.210 HD
ENDBRANCH  22  25
BRANCH  21  27
ATOM     27  O   UNL     1       2.053   0.346  -4.974  0.00  0.00    -0.386 OA
ATOM     28  H   UNL     1       1.382   0.578  -5.631  0.00  0.00    +0.210 HD
ENDBRANCH  21  27
BRANCH  20  29
ATOM     29  O   UNL     1       0.758  -1.773  -3.680  0.00  0.00    -0.384 OA
ATOM     30  H   UNL     1       0.040  -2.405  -3.541  0.00  0.00    +0.210 HD
ENDBRANCH  20  29
BRANCH  23  31
ATOM     31  C   UNL     1       3.348  -0.286  -0.273  0.00  0.00    +0.266 C 
BRANCH  31  32
ATOM     32  O   UNL     1       2.920  -0.099   1.077  0.00  0.00    -0.462 OA
BRANCH  32  33
ATOM     33  C   UNL     1       3.780  -0.453   2.044  0.00  0.00    +0.304 C 
ATOM     34  O   UNL     1       4.862  -0.906   1.754  0.00  0.00    -0.251 OA
ATOM     35  C   UNL     1       3.398  -0.285   3.492  0.00  0.00    +0.136 C 
ENDBRANCH  32  33
ENDBRANCH  31  32
ENDBRANCH  23  31
ENDBRANCH   1  19
TORSDOF 10
