REMARK  Name = ZINC59595919
REMARK  9 active torsions:
REMARK  status: ('A' for Active; 'I' for Inactive)
REMARK    1  A    between atoms: C_1  and  C_2
REMARK    2  A    between atoms: C_5  and  C_8
REMARK    3  A    between atoms: C_8  and  N_9
REMARK    4  A    between atoms: C_11  and  C_18
REMARK    5  A    between atoms: N_25  and  C_28
REMARK    6  A    between atoms: C_31  and  O_36
REMARK    7  A    between atoms: C_33  and  O_34
REMARK    8  A    between atoms: O_34  and  C_35
REMARK    9  A    between atoms: O_36  and  C_37
REMARK                            x       y       z     vdW  Elec       q    Type
REMARK                         _______ _______ _______ _____ _____    ______ ____
ROOT
ATOM      1  C   UNL     1       4.437  -5.894  -1.663  0.00  0.00    +0.028 C 
ATOM      2  C   UNL     1       4.441  -5.467  -2.987  0.00  0.00    +0.102 C 
ATOM      3  C   UNL     1       3.463  -4.490  -3.482  0.00  0.00    +0.274 C 
ATOM      4  O   UNL     1       2.524  -3.975  -2.658  0.00  0.00    -0.268 OA
ATOM      5  N   UNL     1       3.521  -4.126  -4.752  0.00  0.00    -0.153 NA
ATOM      6  C   UNL     1       4.434  -4.616  -5.585  0.00  0.00    +0.171 C 
ATOM      7  S   UNL     1       4.421  -4.075  -7.210  0.00  0.00    -0.016 S 
ATOM      8  N   UNL     1       5.365  -5.510  -5.222  0.00  0.00    -0.212 N 
ATOM      9  C   UNL     1       5.432  -5.971  -3.955  0.00  0.00    +0.262 C 
ATOM     10  O   UNL     1       6.280  -6.779  -3.624  0.00  0.00    -0.269 OA
ENDROOT
BRANCH   1  13
ATOM     11  N   UNL     1       1.292  -5.235  -0.052  0.00  0.00    -0.342 N 
ATOM     12  C   UNL     1       2.011  -5.648  -1.111  0.00  0.00    +0.095 A 
ATOM     13  C   UNL     1       3.362  -5.556  -0.818  0.00  0.00    +0.001 A 
ATOM     14  C   UNL     1       3.447  -5.032   0.561  0.00  0.00    +0.007 A 
ATOM     15  C   UNL     1       2.121  -4.846   0.983  0.00  0.00    +0.050 A 
ATOM     16  C   UNL     1       1.876  -4.350   2.258  0.00  0.00    +0.026 A 
ATOM     17  C   UNL     1       2.930  -4.043   3.092  0.00  0.00    +0.002 A 
ATOM     18  C   UNL     1       4.238  -4.224   2.672  0.00  0.00    +0.001 A 
ATOM     19  C   UNL     1       4.501  -4.723   1.414  0.00  0.00    +0.010 A 
BRANCH  11  20
ATOM     20  C   UNL     1      -0.172  -5.195  -0.004  0.00  0.00    +0.157 C 
BRANCH  20  25
ATOM     21  C   UNL     1      -2.008   0.088  -1.457  0.00  0.00    +0.044 C 
ATOM     22  C   UNL     1      -1.529  -1.290  -1.078  0.00  0.00    -0.050 A 
ATOM     23  C   UNL     1      -1.355  -2.253  -2.054  0.00  0.00    +0.004 A 
ATOM     24  C   UNL     1      -0.915  -3.517  -1.706  0.00  0.00    +0.005 A 
ATOM     25  C   UNL     1      -0.650  -3.817  -0.383  0.00  0.00    -0.028 A 
ATOM     26  C   UNL     1      -0.823  -2.853   0.592  0.00  0.00    +0.005 A 
ATOM     27  C   UNL     1      -1.258  -1.588   0.244  0.00  0.00    +0.004 A 
ENDBRANCH  20  25
ENDBRANCH  11  20
ENDBRANCH   1  13
BRANCH   8  28
ATOM     28  C   UNL     1       6.289  -5.971  -6.174  0.00  0.00    +0.085 A 
ATOM     29  C   UNL     1       7.494  -5.307  -6.350  0.00  0.00    +0.031 A 
ATOM     30  C   UNL     1       8.402  -5.760  -7.287  0.00  0.00    +0.048 A 
ATOM     31  C   UNL     1       8.112  -6.880  -8.054  0.00  0.00    +0.124 A 
ATOM     32  C   UNL     1       6.908  -7.546  -7.882  0.00  0.00    +0.093 A 
ATOM     33  C   UNL     1       5.998  -7.098  -6.939  0.00  0.00    +0.145 A 
BRANCH  33  34
ATOM     34  O   UNL     1       4.819  -7.753  -6.765  0.00  0.00    -0.493 OA
ATOM     35  C   UNL     1       4.588  -8.901  -7.584  0.00  0.00    +0.277 C 
ENDBRANCH  33  34
BRANCH  31  36
ATOM     36  O   UNL     1       9.008  -7.323  -8.975  0.00  0.00    -0.495 OA
ATOM     37  C   UNL     1      10.227  -6.588  -9.100  0.00  0.00    +0.277 C 
ENDBRANCH  31  36
ENDBRANCH   8  28
TORSDOF 6
