REMARK  Name = ZINC59293045
REMARK  10 active torsions:
REMARK  status: ('A' for Active; 'I' for Inactive)
REMARK    1  A    between atoms: C_1  and  C_2
REMARK    2  A    between atoms: C_7  and  N_29
REMARK    3  A    between atoms: C_8  and  C_25
REMARK    4  A    between atoms: C_9  and  C_18
REMARK    5  A    between atoms: C_11  and  C_14
REMARK    6  A    between atoms: C_14  and  O_16
REMARK    7  A    between atoms: O_16  and  C_17
REMARK    8  A    between atoms: C_21  and  O_24
REMARK    9  A    between atoms: C_25  and  O_27
REMARK   10  A    between atoms: O_27  and  C_28
REMARK                            x       y       z     vdW  Elec       q    Type
REMARK                         _______ _______ _______ _____ _____    ______ ____
ROOT
ATOM      1  C   UNL     1      -0.178   1.260  -0.594  0.00  0.00    +0.029 C 
ATOM      2  C   UNL     1      -0.110  -0.254  -0.384  0.00  0.00    +0.136 C 
ATOM      3  C   UNL     1      -1.495  -0.845  -0.163  0.00  0.00    +0.239 C 
ATOM      4  O   UNL     1      -2.392  -0.682  -0.962  0.00  0.00    -0.274 OA
ATOM      5  N   UNL     1      -1.671  -1.550   0.954  0.00  0.00    -0.220 N 
ATOM      6  C   UNL     1      -2.922  -2.021   1.389  0.00  0.00    +0.106 C 
ATOM      7  C   UNL     1      -2.963  -3.004   2.327  0.00  0.00    +0.084 C 
ATOM      8  C   UNL     1      -1.736  -3.667   2.885  0.00  0.00    +0.098 C 
ATOM      9  C   UNL     1      -0.529  -2.765   2.735  0.00  0.00    +0.077 C 
ATOM     10  C   UNL     1      -0.570  -1.823   1.770  0.00  0.00    +0.088 C 
ATOM     11  S   UNL     1       0.672  -0.674   1.234  0.00  0.00    -0.096 S 
ENDROOT
BRANCH   8  12
ATOM     12  C   UNL     1      -1.488  -4.956   2.145  0.00  0.00    -0.035 A 
ATOM     13  C   UNL     1      -1.264  -4.936   0.780  0.00  0.00    +0.008 A 
ATOM     14  C   UNL     1      -1.037  -6.117   0.100  0.00  0.00    +0.046 A 
ATOM     15  C   UNL     1      -1.032  -7.322   0.786  0.00  0.00    +0.117 A 
ATOM     16  C   UNL     1      -1.256  -7.339   2.155  0.00  0.00    +0.046 A 
ATOM     17  C   UNL     1      -1.478  -6.155   2.832  0.00  0.00    +0.008 A 
BRANCH  15  18
ATOM     18  O   UNL     1      -0.808  -8.485   0.119  0.00  0.00    -0.507 OA
ATOM     19  H   UNL     1       0.124  -8.736   0.068  0.00  0.00    +0.292 HD
ENDBRANCH  15  18
ENDBRANCH   8  12
BRANCH   6  20
ATOM     20  N   UNL     1      -4.080  -1.497   0.877  0.00  0.00    -0.345 N 
ATOM     21  H   UNL     1      -4.047  -0.719   0.299  0.00  0.00    +0.143 HD
ATOM     22  H   UNL     1      -4.933  -1.906   1.091  0.00  0.00    +0.143 HD
ENDBRANCH   6  20
BRANCH   9  23
ATOM     23  C   UNL     1       0.590  -2.905   3.569  0.00  0.00    +0.338 C 
ATOM     24  O   UNL     1       1.550  -2.167   3.429  0.00  0.00    -0.245 OA
BRANCH  23  25
ATOM     25  O   UNL     1       0.604  -3.857   4.527  0.00  0.00    -0.465 OA
ATOM     26  C   UNL     1       1.777  -3.942   5.339  0.00  0.00    +0.280 C 
ENDBRANCH  23  25
ENDBRANCH   9  23
BRANCH   7  27
ATOM     27  C   UNL     1      -4.217  -3.422   2.798  0.00  0.00    +0.339 C 
ATOM     28  O   UNL     1      -4.625  -3.025   3.875  0.00  0.00    -0.245 OA
BRANCH  27  29
ATOM     29  O   UNL     1      -4.971  -4.263   2.058  0.00  0.00    -0.465 OA
ATOM     30  C   UNL     1      -6.236  -4.647   2.600  0.00  0.00    +0.280 C 
ENDBRANCH  27  29
ENDBRANCH   7  27
TORSDOF 7
