REMARK  Name = ZINC58439604
REMARK  10 active torsions:
REMARK  status: ('A' for Active; 'I' for Inactive)
REMARK    1  A    between atoms: C_1  and  C_2
REMARK    2  A    between atoms: C_2  and  N_3
REMARK    3  A    between atoms: N_6  and  C_9
REMARK    4  A    between atoms: C_14  and  C_15
REMARK    5  A    between atoms: C_15  and  C_17
REMARK    6  A    between atoms: C_15  and  N_18
REMARK    7  A    between atoms: C_19  and  C_21
REMARK    8  A    between atoms: C_24  and  O_27
REMARK    9  A    between atoms: O_27  and  C_28
REMARK   10  A    between atoms: C_28  and  C_29
REMARK                            x       y       z     vdW  Elec       q    Type
REMARK                         _______ _______ _______ _____ _____    ______ ____
ROOT
ATOM      1  C   UNL     1       3.096  -2.345   5.507  0.00  0.00    +0.102 C 
ATOM      2  C   UNL     1       2.991  -0.953   6.133  0.00  0.00    +0.033 C 
ENDROOT
BRANCH   1   8
ATOM      3  C   UNL     1       0.799  -2.814   4.613  0.00  0.00    +0.035 A 
ATOM      4  C   UNL     1      -0.430  -3.457   4.691  0.00  0.00    +0.026 A 
ATOM      5  C   UNL     1      -0.696  -4.311   5.743  0.00  0.00    +0.040 A 
ATOM      6  C   UNL     1       0.261  -4.527   6.720  0.00  0.00    +0.124 A 
ATOM      7  C   UNL     1       1.486  -3.887   6.645  0.00  0.00    +0.045 A 
ATOM      8  C   UNL     1       1.759  -3.036   5.592  0.00  0.00    -0.004 A 
ATOM      9  F   UNL     1      -0.002  -5.362   7.749  0.00  0.00    -0.205 F 
BRANCH   3  13
ATOM     10  N   UNL     1       0.713  -0.491   1.192  0.00  0.00    +0.382 N 
ATOM     11  C   UNL     1      -0.035  -0.109   2.397  0.00  0.00    -0.060 C 
ATOM     12  C   UNL     1       0.761  -0.515   3.641  0.00  0.00    +0.086 C 
ATOM     13  N   UNL     1       1.071  -1.950   3.549  0.00  0.00    -0.333 N 
ATOM     14  C   UNL     1       1.676  -2.450   2.304  0.00  0.00    +0.086 C 
ATOM     15  C   UNL     1       0.836  -1.952   1.123  0.00  0.00    -0.060 C 
ATOM     16  H   UNL     1       1.633  -0.078   1.225  0.00  0.00    -0.082 HD
BRANCH  10  18
ATOM     17  C   UNL     1      -0.019   1.526   0.010  0.00  0.00    -0.017 C 
ATOM     18  C   UNL     1       0.002  -0.004   0.002  0.00  0.00    -0.082 C 
ENDBRANCH  10  18
ENDBRANCH   3  13
ENDBRANCH   1   8
BRANCH   1  19
ATOM     19  N   UNL     1       4.099  -3.132   6.230  0.00  0.00    -0.305 N 
ATOM     20  C   UNL     1       5.402  -3.027   5.901  0.00  0.00    +0.245 C 
ATOM     21  O   UNL     1       5.745  -2.281   5.005  0.00  0.00    -0.270 OA
ATOM     22  H   UNL     1       3.825  -3.728   6.944  0.00  0.00    +0.150 HD
BRANCH  20  23
ATOM     23  C   UNL     1       6.412  -3.820   6.629  0.00  0.00    +0.037 A 
ATOM     24  C   UNL     1       6.019  -4.683   7.655  0.00  0.00    +0.016 A 
ATOM     25  C   UNL     1       6.965  -5.421   8.332  0.00  0.00    +0.046 A 
ATOM     26  C   UNL     1       8.309  -5.308   7.996  0.00  0.00    +0.121 A 
ATOM     27  C   UNL     1       8.704  -4.450   6.975  0.00  0.00    +0.046 A 
ATOM     28  C   UNL     1       7.763  -3.713   6.290  0.00  0.00    +0.016 A 
BRANCH  26  29
ATOM     29  O   UNL     1       9.238  -6.036   8.665  0.00  0.00    -0.483 OA
BRANCH  29  30
ATOM     30  C   UNL     1      10.601  -5.871   8.268  0.00  0.00    +0.324 C 
BRANCH  30  31
ATOM     31  C   UNL     1      11.481  -6.752   9.117  0.00  0.00    +0.248 C 
ATOM     32  O   UNL     1      10.989  -7.452   9.977  0.00  0.00    -0.272 OA
ATOM     33  N   UNL     1      12.814  -6.762   8.920  0.00  0.00    -0.327 N 
ATOM     34  H   UNL     1      13.207  -6.202   8.232  0.00  0.00    +0.145 HD
ATOM     35  H   UNL     1      13.380  -7.329   9.466  0.00  0.00    +0.145 HD
ENDBRANCH  30  31
ENDBRANCH  29  30
ENDBRANCH  26  29
ENDBRANCH  20  23
ENDBRANCH   1  19
TORSDOF 8
