REMARK  Name = ZINC61541843
REMARK  5 active torsions:
REMARK  status: ('A' for Active; 'I' for Inactive)
REMARK    1  A    between atoms: C_1  and  C_2
REMARK    2  A    between atoms: C_2  and  C_3
REMARK    3  A    between atoms: C_2  and  O_4
REMARK    4  A    between atoms: O_4  and  C_5
REMARK    5  A    between atoms: N_12  and  C_13
REMARK                            x       y       z     vdW  Elec       q    Type
REMARK                         _______ _______ _______ _____ _____    ______ ____
ROOT
ATOM      1  C   UNL     1      -0.048  -0.698   2.270  0.00  0.00    +0.324 A 
ATOM      2  N   UNL     1       0.534  -1.133   3.381  0.00  0.00    -0.161 NA
ATOM      3  C   UNL     1      -0.197  -1.349   4.470  0.00  0.00    +0.223 A 
ATOM      4  N   UNL     1      -1.509  -1.129   4.443  0.00  0.00    -0.184 NA
ATOM      5  C   UNL     1      -2.085  -0.696   3.334  0.00  0.00    +0.230 A 
ATOM      6  N   UNL     1      -1.357  -0.475   2.250  0.00  0.00    -0.164 NA
ATOM      7 CL   UNL     1      -3.797  -0.409   3.302  0.00  0.00    -0.041 Cl
ATOM      8  N   UNL     1       0.405  -1.802   5.626  0.00  0.00    -0.302 N 
ATOM      9  H   UNL     1       1.361  -1.962   5.645  0.00  0.00    +0.150 HD
ENDROOT
BRANCH   8  10
ATOM     10  C   UNL     1      -0.402  -2.040   6.826  0.00  0.00    +0.159 C 
ATOM     11  C   UNL     1       0.297  -3.075   7.711  0.00  0.00    +0.033 C 
ATOM     12  C   UNL     1      -0.409  -3.105   9.072  0.00  0.00    +0.021 C 
ATOM     13  C   UNL     1      -0.156  -1.776   9.785  0.00  0.00    +0.104 C 
ATOM     14  N   UNL     1      -0.474  -0.657   8.907  0.00  0.00    -0.314 N 
ATOM     15  C   UNL     1      -0.565  -0.752   7.581  0.00  0.00    +0.233 C 
ATOM     16  O   UNL     1      -0.794   0.258   6.949  0.00  0.00    -0.274 OA
ATOM     17  H   UNL     1      -0.628   0.210   9.313  0.00  0.00    +0.149 HD
ENDBRANCH   8  10
BRANCH   1  18
ATOM     18  O   UNL     1       0.693  -0.477   1.160  0.00  0.00    -0.460 OA
BRANCH  18  20
ATOM     19  C   UNL     1      -0.019   1.526   0.010  0.00  0.00    +0.052 C 
ATOM     20  C   UNL     1       0.002  -0.004   0.002  0.00  0.00    +0.171 C 
ATOM     21  C   UNL     1       0.718  -0.497  -1.257  0.00  0.00    +0.052 C 
ENDBRANCH  18  20
ENDBRANCH   1  18
TORSDOF 3
