REMARK  Name = ZINC65181839
REMARK  8 active torsions:
REMARK  status: ('A' for Active; 'I' for Inactive)
REMARK    1  A    between atoms: C_1  and  N_2
REMARK    2  A    between atoms: N_2  and  C_3
REMARK    3  A    between atoms: C_3  and  C_4
REMARK    4  A    between atoms: C_4  and  C_5
REMARK    5  A    between atoms: C_8  and  C_11
REMARK    6  A    between atoms: C_17  and  O_21
REMARK    7  A    between atoms: O_21  and  C_22
REMARK    8  A    between atoms: C_23  and  C_25
REMARK                            x       y       z     vdW  Elec       q    Type
REMARK                         _______ _______ _______ _____ _____    ______ ____
ROOT
ATOM      1  C   UNL     1      -0.615  -1.520   3.279  0.00  0.00    +0.139 C 
ATOM      2  N   UNL     1       0.425  -2.198   3.602  0.00  0.00    -0.072 NA
ATOM      3  O   UNL     1       0.248  -2.833   4.855  0.00  0.00    -0.367 OA
ATOM      4  C   UNL     1      -1.066  -2.472   5.308  0.00  0.00    +0.318 C 
ATOM      5  N   UNL     1      -1.593  -1.604   4.243  0.00  0.00    -0.291 N 
ATOM      6  H   UNL     1      -2.462  -1.175   4.223  0.00  0.00    +0.151 HD
ENDROOT
BRANCH   4   7
ATOM      7  C   UNL     1      -1.937  -3.719   5.472  0.00  0.00    +0.165 C 
ATOM      8  C   UNL     1      -1.988  -4.494   4.175  0.00  0.00    +0.012 C 
ATOM      9  C   UNL     1      -1.464  -5.710   4.443  0.00  0.00    -0.004 A 
ATOM     10  C   UNL     1      -1.240  -6.899   3.610  0.00  0.00    +0.013 A 
ATOM     11  C   UNL     1      -0.686  -7.997   4.169  0.00  0.00    +0.046 A 
ATOM     12  C   UNL     1      -0.319  -8.028   5.528  0.00  0.00    +0.122 A 
ATOM     13  C   UNL     1      -0.497  -6.968   6.356  0.00  0.00    +0.071 A 
ATOM     14  C   UNL     1      -1.071  -5.767   5.869  0.00  0.00    +0.046 A 
ATOM     15  N   UNL     1      -1.342  -4.625   6.461  0.00  0.00    -0.373 N 
ATOM     16  H   UNL     1      -1.177  -4.416   7.394  0.00  0.00    +0.160 HD
BRANCH  12  17
ATOM     17  O   UNL     1       0.233  -9.161   6.029  0.00  0.00    -0.495 OA
ATOM     18  C   UNL     1       0.403 -10.254   5.124  0.00  0.00    +0.277 C 
ENDBRANCH  12  17
ENDBRANCH   4   7
BRANCH   1  19
ATOM     19  C   UNL     1      -0.747  -0.725   2.005  0.00  0.00    +0.094 C 
BRANCH  19  20
ATOM     20  C   UNL     1       0.534  -0.867   1.181  0.00  0.00    +0.115 C 
BRANCH  20  22
ATOM     21  C   UNL     1       0.830   1.308  -0.093  0.00  0.00    +0.132 C 
ATOM     22  N   UNL     1       0.406  -0.094  -0.057  0.00  0.00    -0.300 N 
ATOM     23  C   UNL     1      -0.102  -0.673  -1.163  0.00  0.00    +0.248 C 
ATOM     24  O   UNL     1      -0.541  -1.805  -1.110  0.00  0.00    -0.270 OA
BRANCH  23  25
ATOM     25  C   UNL     1      -0.124   0.068  -2.442  0.00  0.00    +0.058 A 
ATOM     26  C   UNL     1       0.997   0.793  -2.851  0.00  0.00    +0.052 A 
ATOM     27  C   UNL     1       0.969   1.483  -4.047  0.00  0.00    +0.124 A 
ATOM     28  C   UNL     1      -0.168   1.458  -4.839  0.00  0.00    +0.040 A 
ATOM     29  C   UNL     1      -1.281   0.743  -4.438  0.00  0.00    +0.023 A 
ATOM     30  C   UNL     1      -1.265   0.043  -3.247  0.00  0.00    +0.053 A 
ATOM     31 CL   UNL     1      -2.661  -0.861  -2.750  0.00  0.00    -0.083 Cl
ATOM     32  F   UNL     1       2.053   2.185  -4.446  0.00  0.00    -0.205 F 
ENDBRANCH  23  25
ENDBRANCH  20  22
ENDBRANCH  19  20
ENDBRANCH   1  19
TORSDOF 6
