REMARK  Name = ZINC29003511
REMARK  7 active torsions:
REMARK  status: ('A' for Active; 'I' for Inactive)
REMARK    1  A    between atoms: C_3  and  N_22
REMARK    2  A    between atoms: C_6  and  C_7
REMARK    3  A    between atoms: C_7  and  C_9
REMARK    4  A    between atoms: C_7  and  O_21
REMARK    5  A    between atoms: C_9  and  N_10
REMARK    6  A    between atoms: C_11  and  C_13
REMARK    7  A    between atoms: C_18  and  O_19
REMARK                            x       y       z     vdW  Elec       q    Type
REMARK                         _______ _______ _______ _____ _____    ______ ____
ROOT
ATOM      1  C   UNL     1      -0.228  -0.525   1.422  0.00  0.00    +0.140 C 
ENDROOT
BRANCH   1   2
ATOM      2  N   UNL     1      -0.090  -1.984   1.436  0.00  0.00    -0.308 N 
ATOM      3  C   UNL     1      -0.251  -2.665   2.587  0.00  0.00    +0.248 C 
ATOM      4  O   UNL     1      -0.511  -2.070   3.615  0.00  0.00    -0.270 OA
ATOM      5  H   UNL     1       0.146  -2.522   0.506  0.00  0.00    +0.149 HD
BRANCH   3   6
ATOM      6  C   UNL     1      -0.112  -4.134   2.601  0.00  0.00    +0.079 A 
ATOM      7  C   UNL     1       0.182  -4.822   1.421  0.00  0.00    +0.032 A 
ATOM      8  C   UNL     1       0.315  -6.194   1.442  0.00  0.00    +0.019 A 
ATOM      9  C   UNL     1       0.150  -6.895   2.626  0.00  0.00    +0.019 A 
ATOM     10  C   UNL     1      -0.146  -6.227   3.797  0.00  0.00    +0.047 A 
ATOM     11  C   UNL     1      -0.279  -4.846   3.796  0.00  0.00    +0.129 A 
ATOM     12 BR   UNL     1       0.720  -7.125  -0.154  0.00  0.00    -0.050 Br
BRANCH  11  13
ATOM     13  O   UNL     1      -0.569  -4.189   4.946  0.00  0.00    -0.506 OA
ATOM     14  H   UNL     1      -0.700  -4.750   5.883  0.00  0.00    +0.292 HD
ENDBRANCH  11  13
ENDBRANCH   3   6
ENDBRANCH   1   2
BRANCH   1  15
ATOM     15  C   UNL     1       0.002  -0.004   0.002  0.00  0.00    +0.162 C 
BRANCH  15  21
ATOM     16  C   UNL     1      -1.225   2.178   0.020  0.00  0.00    +0.008 A 
ATOM     17  C   UNL     1      -1.244   3.560   0.032  0.00  0.00    +0.033 A 
ATOM     18  C   UNL     1      -0.056   4.267   0.025  0.00  0.00    +0.126 A 
ATOM     19  C   UNL     1       1.151   3.592   0.010  0.00  0.00    +0.033 A 
ATOM     20  C   UNL     1       1.169   2.210   0.003  0.00  0.00    +0.008 A 
ATOM     21  C   UNL     1      -0.018   1.503   0.010  0.00  0.00    -0.018 A 
BRANCH  18  22
ATOM     22  N   UNL     1      -0.076   5.747   0.033  0.00  0.00    +0.056 N 
ATOM     23  O   UNL     1       0.971   6.370   0.027  0.00  0.00    -0.126 OA
ATOM     24  O   UNL     1      -1.139   6.342   0.047  0.00  0.00    -0.126 OA
ENDBRANCH  18  22
ENDBRANCH  15  21
BRANCH  15  25
ATOM     25  O   UNL     1      -1.032  -0.490  -0.857  0.00  0.00    -0.386 OA
ATOM     26  H   UNL     1      -1.172  -1.573  -0.991  0.00  0.00    +0.210 HD
ENDBRANCH  15  25
ENDBRANCH   1  15
TORSDOF 7
