REMARK  Name = ZINC16853068
REMARK  7 active torsions:
REMARK  status: ('A' for Active; 'I' for Inactive)
REMARK    1  A    between atoms: C_1  and  C_2
REMARK    2  A    between atoms: C_4  and  C_12
REMARK    3  A    between atoms: C_5  and  C_9
REMARK    4  A    between atoms: C_6  and  O_8
REMARK    5  A    between atoms: C_9  and  C_10
REMARK    6  A    between atoms: C_13  and  C_14
REMARK    7  A    between atoms: C_17  and  O_20
REMARK                            x       y       z     vdW  Elec       q    Type
REMARK                         _______ _______ _______ _____ _____    ______ ____
ROOT
ATOM      1  C   UNL     1      -4.510   0.079  -4.383  0.00  0.00    +0.088 C 
ATOM      2  C   UNL     1      -3.671   0.533  -3.217  0.00  0.00    +0.130 A 
ATOM      3  N   UNL     1      -3.775  -0.102  -2.069  0.00  0.00    -0.232 NA
ATOM      4  C   UNL     1      -3.047   0.271  -1.012  0.00  0.00    +0.074 A 
ATOM      5  C   UNL     1      -2.170   1.352  -1.144  0.00  0.00    +0.043 A 
ATOM      6  C   UNL     1      -2.099   1.994  -2.375  0.00  0.00    +0.220 A 
ATOM      7  N   UNL     1      -2.854   1.556  -3.377  0.00  0.00    -0.198 NA
ENDROOT
BRANCH   6   8
ATOM      8  O   UNL     1      -1.267   3.050  -2.552  0.00  0.00    -0.492 OA
ATOM      9  H   UNL     1      -0.381   2.806  -2.853  0.00  0.00    +0.294 HD
ENDBRANCH   6   8
BRANCH   4  10
ATOM     10  C   UNL     1      -3.167  -0.444   0.269  0.00  0.00    +0.029 C 
ATOM     11  C   UNL     1      -4.015  -1.481   0.383  0.00  0.00    +0.010 C 
BRANCH  11  12
ATOM     12  C   UNL     1      -4.135  -2.196   1.665  0.00  0.00    -0.025 A 
ATOM     13  C   UNL     1      -3.364  -1.801   2.763  0.00  0.00    +0.011 A 
ATOM     14  C   UNL     1      -3.483  -2.470   3.961  0.00  0.00    +0.046 A 
ATOM     15  C   UNL     1      -4.360  -3.542   4.077  0.00  0.00    +0.117 A 
ATOM     16  C   UNL     1      -5.124  -3.941   2.987  0.00  0.00    +0.046 A 
ATOM     17  C   UNL     1      -5.016  -3.275   1.786  0.00  0.00    +0.011 A 
BRANCH  15  18
ATOM     18  O   UNL     1      -4.471  -4.201   5.259  0.00  0.00    -0.507 OA
ATOM     19  H   UNL     1      -3.860  -4.945   5.353  0.00  0.00    +0.292 HD
ENDBRANCH  15  18
ENDBRANCH  11  12
ENDBRANCH   4  10
BRANCH   5  20
ATOM     20  C   UNL     1      -1.328   1.812   0.018  0.00  0.00    +0.069 C 
BRANCH  20  21
ATOM     21  C   UNL     1      -0.013   1.076   0.008  0.00  0.00    -0.030 C 
ATOM     22  C   UNL     1       1.113   1.746   0.001  0.00  0.00    +0.004 C 
ENDBRANCH  20  21
ENDBRANCH   5  20
TORSDOF 6
