REMARK  Name = ZINC45156355
REMARK  5 active torsions:
REMARK  status: ('A' for Active; 'I' for Inactive)
REMARK    1  A    between atoms: C_1  and  C_2
REMARK    2  A    between atoms: C_2  and  C_4
REMARK    3  A    between atoms: C_2  and  N_16
REMARK    4  A    between atoms: N_6  and  C_7
REMARK    5  A    between atoms: C_7  and  C_8
REMARK                            x       y       z     vdW  Elec       q    Type
REMARK                         _______ _______ _______ _____ _____    ______ ____
ROOT
ATOM      1  C   UNL     1       0.707  -0.490  -1.238  0.00  0.00    +0.233 C 
ATOM      2  O   UNL     1       1.704  -1.174  -1.140  0.00  0.00    -0.274 OA
ATOM      3  N   UNL     1       0.231  -0.164  -2.456  0.00  0.00    -0.313 N 
ATOM      4  H   UNL     1      -0.566   0.383  -2.534  0.00  0.00    +0.149 HD
ENDROOT
BRANCH   1   6
ATOM      5  C   UNL     1      -0.019   1.526   0.010  0.00  0.00    +0.038 C 
ATOM      6  C   UNL     1       0.002  -0.004   0.002  0.00  0.00    +0.157 C 
BRANCH   6   7
ATOM      7  N   UNL     1       0.711  -0.489   1.189  0.00  0.00    -0.289 N 
ATOM      8  C   UNL     1       0.051  -0.633   2.355  0.00  0.00    +0.298 C 
ATOM      9  O   UNL     1      -1.132  -0.361   2.423  0.00  0.00    -0.253 OA
ATOM     10  N   UNL     1       0.703  -1.080   3.447  0.00  0.00    -0.313 N 
ATOM     11  H   UNL     1       1.654  -0.707   1.135  0.00  0.00    +0.151 HD
ATOM     12  H   UNL     1       1.647  -1.298   3.394  0.00  0.00    +0.146 HD
ATOM     13  H   UNL     1       0.229  -1.184   4.287  0.00  0.00    +0.146 HD
ENDBRANCH   6   7
ENDBRANCH   1   6
BRANCH   3  14
ATOM     14  C   UNL     1       0.917  -0.637  -3.661  0.00  0.00    +0.109 C 
BRANCH  14  15
ATOM     15  C   UNL     1       0.177  -0.130  -4.901  0.00  0.00    +0.029 C 
ATOM     16  C   UNL     1      -1.213  -0.784  -4.980  0.00  0.00    +0.029 C 
ATOM     17  C   UNL     1      -1.835  -0.534  -6.375  0.00  0.00    +0.166 C 
ATOM     18  S   UNL     1      -0.355  -0.373  -7.454  0.00  0.00    -0.031 S 
ATOM     19  O   UNL     1      -0.290  -1.497  -8.320  0.00  0.00    -0.174 OA
ATOM     20  O   UNL     1      -0.325   0.937  -8.005  0.00  0.00    -0.174 OA
ATOM     21  C   UNL     1       0.969  -0.519  -6.181  0.00  0.00    +0.171 C 
ENDBRANCH  14  15
ENDBRANCH   3  14
TORSDOF 4
