REMARK  Name = ZINC65863335
REMARK  7 active torsions:
REMARK  status: ('A' for Active; 'I' for Inactive)
REMARK    1  A    between atoms: C_1  and  N_2
REMARK    2  A    between atoms: C_3  and  C_5
REMARK    3  A    between atoms: C_8  and  N_12
REMARK    4  A    between atoms: C_13  and  C_15
REMARK    5  A    between atoms: C_15  and  N_16
REMARK    6  A    between atoms: N_19  and  C_20
REMARK    7  A    between atoms: C_20  and  C_21
REMARK                            x       y       z     vdW  Elec       q    Type
REMARK                         _______ _______ _______ _____ _____    ______ ____
ROOT
ATOM      1  N   UNL     1      -1.078  -6.335  -0.023  0.00  0.00    -0.284 N 
ATOM      2  C   UNL     1      -2.230  -7.026   0.080  0.00  0.00    +0.234 C 
ATOM      3  O   UNL     1      -3.291  -6.439   0.089  0.00  0.00    -0.274 OA
ATOM      4  H   UNL     1      -0.234  -6.807  -0.097  0.00  0.00    +0.155 HD
ENDROOT
BRANCH   1   8
ATOM      5  C   UNL     1      -1.138  -2.169  -0.024  0.00  0.00    +0.055 A 
ATOM      6  C   UNL     1      -0.082  -2.855   0.583  0.00  0.00    +0.016 A 
ATOM      7  C   UNL     1      -0.066  -4.231   0.582  0.00  0.00    +0.024 A 
ATOM      8  C   UNL     1      -1.099  -4.941  -0.023  0.00  0.00    +0.035 A 
ATOM      9  C   UNL     1      -2.151  -4.263  -0.628  0.00  0.00    +0.044 A 
ATOM     10  C   UNL     1      -2.178  -2.885  -0.625  0.00  0.00    +0.055 A 
ATOM     11 CL   UNL     1      -3.497  -2.039  -1.374  0.00  0.00    -0.083 Cl
BRANCH   5  14
ATOM     12  C   UNL     1      -0.176   1.459   0.556  0.00  0.00    +0.128 C 
ATOM     13  N   UNL     1      -0.156  -0.005   0.556  0.00  0.00    -0.314 N 
ATOM     14  C   UNL     1      -1.159  -0.694  -0.024  0.00  0.00    +0.245 C 
ATOM     15  O   UNL     1      -2.081  -0.099  -0.548  0.00  0.00    -0.270 OA
ATOM     16  H   UNL     1       0.580  -0.480   0.974  0.00  0.00    +0.149 HD
ENDBRANCH   5  14
ENDBRANCH   1   8
BRANCH   2  17
ATOM     17  C   UNL     1      -2.201  -8.529   0.185  0.00  0.00    +0.202 C 
BRANCH  17  18
ATOM     18  N   UNL     1      -3.570  -9.039   0.285  0.00  0.00    -0.291 N 
ATOM     19  C   UNL     1      -3.790 -10.364   0.389  0.00  0.00    +0.300 C 
ATOM     20  O   UNL     1      -2.852 -11.137   0.400  0.00  0.00    -0.253 OA
ATOM     21  N   UNL     1      -5.051 -10.833   0.482  0.00  0.00    -0.292 N 
ATOM     22  H   UNL     1      -4.319  -8.422   0.277  0.00  0.00    +0.151 HD
ATOM     23  H   UNL     1      -5.799 -10.217   0.473  0.00  0.00    +0.151 HD
BRANCH  21  24
ATOM     24  C   UNL     1      -5.290 -12.274   0.595  0.00  0.00    +0.180 C 
BRANCH  24  25
ATOM     25  C   UNL     1      -6.772 -12.532   0.682  0.00  0.00    +0.122 A 
ATOM     26  C   UNL     1      -7.596 -12.749  -0.359  0.00  0.00    +0.046 A 
ATOM     27  C   UNL     1      -8.890 -12.943   0.177  0.00  0.00    +0.041 A 
ATOM     28  C   UNL     1      -8.779 -12.834   1.513  0.00  0.00    +0.195 A 
ATOM     29  O   UNL     1      -7.493 -12.591   1.814  0.00  0.00    -0.466 OA
ENDBRANCH  24  25
ENDBRANCH  21  24
ENDBRANCH  17  18
ENDBRANCH   2  17
TORSDOF 6
