REMARK  Name = ZINC25981118
REMARK  7 active torsions:
REMARK  status: ('A' for Active; 'I' for Inactive)
REMARK    1  A    between atoms: C_8  and  S_10
REMARK    2  A    between atoms: S_10  and  N_13
REMARK    3  A    between atoms: N_13  and  C_14
REMARK    4  A    between atoms: N_18  and  C_21
REMARK    5  A    between atoms: C_21  and  C_22
REMARK    6  A    between atoms: C_22  and  N_23
REMARK    7  A    between atoms: N_23  and  C_24
REMARK                            x       y       z     vdW  Elec       q    Type
REMARK                         _______ _______ _______ _____ _____    ______ ____
ROOT
ATOM      1  C   UNL     1      -2.174   1.261   1.634  0.00  0.00    +0.164 C 
ATOM      2  C   UNL     1      -2.379   1.100   3.158  0.00  0.00    +0.049 C 
ATOM      3  C   UNL     1      -3.142   2.396   3.512  0.00  0.00    +0.110 C 
ATOM      4  N   UNL     1      -3.821   2.801   2.276  0.00  0.00    -0.299 N 
ATOM      5  C   UNL     1      -3.294   2.183   1.204  0.00  0.00    +0.234 C 
ATOM      6  O   UNL     1      -3.663   2.342   0.060  0.00  0.00    -0.274 OA
ENDROOT
BRANCH   1   7
ATOM      7  N   UNL     1      -0.872   1.871   1.353  0.00  0.00    -0.178 NA
ATOM      8  H   UNL     1      -0.535   2.742   1.936  0.00  0.00    +0.149 HD
BRANCH   7   9
ATOM      9  S   UNL     1      -0.017   1.417   0.010  0.00  0.00    +0.065 S 
ATOM     10  O   UNL     1       0.002  -0.004   0.002  0.00  0.00    -0.153 OA
ATOM     11  O   UNL     1       1.172   2.195   0.003  0.00  0.00    -0.153 OA
BRANCH   9  19
ATOM     12  C   UNL     1      -3.493   2.233  -4.571  0.00  0.00    +0.020 A 
ATOM     13  C   UNL     1      -3.539   3.385  -5.341  0.00  0.00    +0.041 A 
ATOM     14  C   UNL     1      -2.697   4.438  -5.011  0.00  0.00    +0.130 A 
ATOM     15  N   UNL     1      -1.867   4.377  -4.000  0.00  0.00    -0.235 NA
ATOM     16  C   UNL     1      -1.769   3.289  -3.207  0.00  0.00    +0.082 A 
ATOM     17  C   UNL     1      -2.610   2.196  -3.513  0.00  0.00    +0.040 A 
ATOM     18  S   UNL     1      -2.192   0.989  -2.283  0.00  0.00    -0.067 S 
ATOM     19  C   UNL     1      -0.954   1.915  -1.397  0.00  0.00    +0.145 A 
ATOM     20  C   UNL     1      -0.900   3.082  -2.060  0.00  0.00    +0.064 A 
ATOM     21 CL   UNL     1      -2.748   5.885  -5.969  0.00  0.00    -0.062 Cl
ENDBRANCH   9  19
ENDBRANCH   7   9
ENDBRANCH   1   7
BRANCH   4  22
ATOM     22  C   UNL     1      -4.930   3.756   2.217  0.00  0.00    +0.126 C 
BRANCH  22  23
ATOM     23  C   UNL     1      -4.377   5.170   2.034  0.00  0.00    +0.120 C 
BRANCH  23  24
ATOM     24  N   UNL     1      -5.486   6.125   1.975  0.00  0.00    -0.342 N 
ATOM     25  H   UNL     1      -6.524   5.769   2.060  0.00  0.00    +0.146 HD
BRANCH  24  26
ATOM     26  C   UNL     1      -5.228   7.483   1.812  0.00  0.00    +0.030 A 
ATOM     27  C   UNL     1      -3.920   7.955   1.708  0.00  0.00    +0.040 A 
ATOM     28  C   UNL     1      -3.706   9.307   1.542  0.00  0.00    +0.084 A 
ATOM     29  N   UNL     1      -4.720  10.151   1.491  0.00  0.00    -0.367 N 
ATOM     30  C   UNL     1      -5.972   9.744   1.591  0.00  0.00    +0.084 A 
ATOM     31  C   UNL     1      -6.270   8.408   1.754  0.00  0.00    +0.040 A 
ATOM     32  H   UNL     1      -4.534  11.227   1.362  0.00  0.00    +0.165 HD
ENDBRANCH  24  26
ENDBRANCH  23  24
ENDBRANCH  22  23
ENDBRANCH   4  22
TORSDOF 7
