REMARK  Name = ZINC36743594
REMARK  5 active torsions:
REMARK  status: ('A' for Active; 'I' for Inactive)
REMARK    1  A    between atoms: C_1  and  C_2
REMARK    2  A    between atoms: C_5  and  S_7
REMARK    3  A    between atoms: S_7  and  N_10
REMARK    4  A    between atoms: C_14  and  N_21
REMARK    5  A    between atoms: C_18  and  C_20
REMARK                            x       y       z     vdW  Elec       q    Type
REMARK                         _______ _______ _______ _____ _____    ______ ____
ROOT
ATOM      1  N   UNL     1       1.300  -4.748  -1.614  0.00  0.00    -0.199 N 
ATOM      2  C   UNL     1       0.307  -5.368  -2.381  0.00  0.00    +0.055 A 
ATOM      3  C   UNL     1      -0.989  -5.737  -2.017  0.00  0.00    +0.027 A 
ATOM      4  C   UNL     1      -1.824  -6.344  -2.930  0.00  0.00    +0.024 A 
ATOM      5  C   UNL     1      -1.380  -6.593  -4.222  0.00  0.00    +0.025 A 
ATOM      6  C   UNL     1      -0.092  -6.228  -4.589  0.00  0.00    +0.028 A 
ATOM      7  C   UNL     1       0.743  -5.619  -3.672  0.00  0.00    -0.021 A 
ATOM      8  C   UNL     1       2.167  -5.127  -3.804  0.00  0.00    +0.061 C 
ATOM      9  C   UNL     1       2.507  -4.549  -2.421  0.00  0.00    +0.099 C 
ATOM     10  C   UNL     1       3.687  -5.306  -1.808  0.00  0.00    +0.030 C 
ENDROOT
BRANCH   1  11
ATOM     11  S   UNL     1       1.134  -4.300  -0.029  0.00  0.00    +0.081 S 
ATOM     12  O   UNL     1       2.445  -4.240   0.516  0.00  0.00    -0.149 OA
ATOM     13  O   UNL     1       0.117  -5.126   0.522  0.00  0.00    -0.149 OA
BRANCH  11  18
ATOM     14  C   UNL     1      -0.018   1.503   0.010  0.00  0.00    +0.051 C 
ATOM     15  C   UNL     1       0.002  -0.004   0.002  0.00  0.00    -0.011 A 
ATOM     16  C   UNL     1      -1.039  -0.872   0.002  0.00  0.00    +0.013 A 
ATOM     17  C   UNL     1      -0.780  -2.230  -0.007  0.00  0.00    +0.037 A 
ATOM     18  C   UNL     1       0.507  -2.653  -0.016  0.00  0.00    +0.146 A 
ATOM     19  S   UNL     1       1.404  -1.109  -0.018  0.00  0.00    -0.073 S 
ENDBRANCH  11  18
ENDBRANCH   1  11
BRANCH   5  20
ATOM     20  N   UNL     1      -2.228  -7.211  -5.150  0.00  0.00    -0.358 N 
ATOM     21  H   UNL     1      -3.127  -7.465  -4.891  0.00  0.00    +0.142 HD
ATOM     22  H   UNL     1      -1.915  -7.383  -6.052  0.00  0.00    +0.142 HD
ENDBRANCH   5  20
TORSDOF 3
