REMARK  Name = ZINC13300343
REMARK  9 active torsions:
REMARK  status: ('A' for Active; 'I' for Inactive)
REMARK    1  A    between atoms: C_1  and  C_2
REMARK    2  A    between atoms: C_4  and  O_9
REMARK    3  A    between atoms: O_9  and  C_10
REMARK    4  A    between atoms: C_10  and  C_11
REMARK    5  A    between atoms: C_14  and  C_17
REMARK    6  A    between atoms: N_19  and  N_20
REMARK    7  A    between atoms: N_20  and  S_21
REMARK    8  A    between atoms: S_21  and  C_24
REMARK    9  A    between atoms: C_26  and  C_29
REMARK                            x       y       z     vdW  Elec       q    Type
REMARK                         _______ _______ _______ _____ _____    ______ ____
ROOT
ATOM      1  C   UNL     1       3.696  -0.685  -0.036  0.00  0.00    +0.259 C 
ATOM      2  O   UNL     1       3.715  -1.900  -0.043  0.00  0.00    -0.269 OA
ATOM      3  N   UNL     1       4.852   0.008  -0.044  0.00  0.00    -0.228 N 
ATOM      4  H   UNL     1       4.836   0.978  -0.039  0.00  0.00    +0.171 HD
ENDROOT
BRANCH   1   8
ATOM      5  C   UNL     1      -0.017   1.379   0.010  0.00  0.00    -0.010 A 
ATOM      6  C   UNL     1       1.168   2.094   0.002  0.00  0.00    +0.008 A 
ATOM      7  C   UNL     1       2.377   1.429  -0.013  0.00  0.00    +0.013 A 
ATOM      8  C   UNL     1       2.403   0.034  -0.021  0.00  0.00    +0.038 A 
ATOM      9  C   UNL     1       1.204  -0.681  -0.013  0.00  0.00    +0.013 A 
ATOM     10  C   UNL     1       0.002  -0.004   0.002  0.00  0.00    +0.008 A 
BRANCH   5  11
ATOM     11  C   UNL     1      -1.334   2.112   0.020  0.00  0.00    +0.264 C 
BRANCH  11  12
ATOM     12  O   UNL     1      -1.744   2.336   1.370  0.00  0.00    -0.487 OA
BRANCH  12  16
ATOM     13  C   UNL     1      -5.073   4.179   4.426  0.00  0.00    +0.045 C 
ATOM     14  C   UNL     1      -4.575   3.906   3.031  0.00  0.00    -0.029 A 
ATOM     15  C   UNL     1      -3.379   3.241   2.842  0.00  0.00    +0.050 A 
ATOM     16  C   UNL     1      -2.921   2.990   1.558  0.00  0.00    +0.121 A 
ATOM     17  C   UNL     1      -3.662   3.412   0.464  0.00  0.00    +0.047 A 
ATOM     18  C   UNL     1      -4.860   4.072   0.656  0.00  0.00    +0.024 A 
ATOM     19  C   UNL     1      -5.316   4.322   1.939  0.00  0.00    +0.044 A 
ATOM     20 CL   UNL     1      -6.819   5.157   2.178  0.00  0.00    -0.083 Cl
ENDBRANCH  12  16
ENDBRANCH  11  12
ENDBRANCH   5  11
ENDBRANCH   1   8
BRANCH   3  21
ATOM     21  N   UNL     1       6.076  -0.673  -0.059  0.00  0.00    -0.107 NA
ATOM     22  H   UNL     1       6.272  -1.333   0.625  0.00  0.00    +0.172 HD
BRANCH  21  23
ATOM     23  S   UNL     1       7.188  -0.350  -1.242  0.00  0.00    +0.080 S 
ATOM     24  O   UNL     1       8.361  -1.079  -0.907  0.00  0.00    -0.151 OA
ATOM     25  O   UNL     1       6.519  -0.514  -2.485  0.00  0.00    -0.151 OA
BRANCH  23  26
ATOM     26  C   UNL     1       7.604   1.357  -1.115  0.00  0.00    +0.145 A 
ATOM     27  C   UNL     1       8.578   1.930  -0.383  0.00  0.00    +0.051 A 
ATOM     28  C   UNL     1       8.704   3.364  -0.465  0.00  0.00    +0.072 A 
ATOM     29  C   UNL     1       7.808   4.027  -1.280  0.00  0.00    +0.062 A 
ATOM     30  S   UNL     1       6.832   2.747  -1.919  0.00  0.00    -0.076 S 
BRANCH  28  31
ATOM     31  C   UNL     1       9.736   4.089   0.290  0.00  0.00    +0.387 C 
ATOM     32  O   UNL     1      10.512   3.479   1.000  0.00  0.00    -0.241 OA
ATOM     33  O   UNL     1       9.823   5.431   0.196  0.00  0.00    -0.241 OA
ENDBRANCH  28  31
ENDBRANCH  23  26
ENDBRANCH  21  23
ENDBRANCH   3  21
TORSDOF 8
