REMARK  Name = ZINC49473249
REMARK  5 active torsions:
REMARK  status: ('A' for Active; 'I' for Inactive)
REMARK    1  A    between atoms: C_1  and  C_2
REMARK    2  A    between atoms: C_2  and  C_3
REMARK    3  A    between atoms: C_13  and  N_15
REMARK    4  A    between atoms: C_16  and  C_18
REMARK    5  A    between atoms: C_21  and  C_23
REMARK                            x       y       z     vdW  Elec       q    Type
REMARK                         _______ _______ _______ _____ _____    ______ ____
ROOT
ATOM      1  N   UNL     1      -2.028  -1.082  -6.118  0.00  0.00    -0.280 N 
ATOM      2  C   UNL     1      -1.577  -1.950  -7.045  0.00  0.00    +0.267 C 
ATOM      3  O   UNL     1      -0.630  -2.671  -6.793  0.00  0.00    -0.268 OA
ATOM      4  H   UNL     1      -2.828  -0.562  -6.290  0.00  0.00    +0.155 HD
ENDROOT
BRANCH   1  15
ATOM      5  C   UNL     1       0.721  -0.475  -1.247  0.00  0.00    -0.033 A 
ATOM      6  C   UNL     1       2.071  -0.612  -1.258  0.00  0.00    +0.074 A 
ATOM      7  C   UNL     1       2.748  -0.893  -2.462  0.00  0.00    +0.249 A 
ATOM      8  O   UNL     1       3.961  -1.012  -2.448  0.00  0.00    -0.268 OA
ATOM      9  N   UNL     1       2.089  -1.032  -3.626  0.00  0.00    -0.322 N 
ATOM     10  H   UNL     1       2.586  -1.224  -4.436  0.00  0.00    +0.169 HD
ATOM     11  C   UNL     1       0.717  -0.904  -3.684  0.00  0.00    +0.051 A 
ATOM     12  C   UNL     1      -0.007  -0.630  -2.506  0.00  0.00    +0.002 A 
ATOM     13  C   UNL     1      -1.401  -0.504  -2.555  0.00  0.00    +0.012 A 
ATOM     14  C   UNL     1      -2.054  -0.654  -3.743  0.00  0.00    +0.024 A 
ATOM     15  C   UNL     1      -1.344  -0.931  -4.912  0.00  0.00    +0.036 A 
ATOM     16  C   UNL     1       0.037  -1.048  -4.886  0.00  0.00    +0.049 A 
BRANCH   5  18
ATOM     17  C   UNL     1      -0.235   1.334   0.154  0.00  0.00    +0.009 C 
ATOM     18  C   UNL     1      -0.013  -0.175   0.035  0.00  0.00    +0.032 C 
ENDBRANCH   5  18
ENDBRANCH   1  15
BRANCH   2  19
ATOM     19  C   UNL     1      -2.229  -2.026  -8.363  0.00  0.00    +0.133 A 
ATOM     20  C   UNL     1      -1.782  -2.909  -9.310  0.00  0.00    +0.080 A 
ATOM     21  S   UNL     1      -2.824  -2.618 -10.599  0.00  0.00    -0.075 S 
ATOM     22  C   UNL     1      -3.815  -1.342  -9.842  0.00  0.00    +0.109 A 
ATOM     23  N   UNL     1      -3.262  -1.244  -8.647  0.00  0.00    -0.234 NA
BRANCH  22  24
ATOM     24  C   UNL     1      -4.959  -0.592 -10.405  0.00  0.00    +0.007 A 
ATOM     25  C   UNL     1      -5.602   0.383  -9.641  0.00  0.00    +0.010 A 
ATOM     26  C   UNL     1      -6.669   1.078 -10.171  0.00  0.00    +0.001 A 
ATOM     27  C   UNL     1      -7.102   0.811 -11.458  0.00  0.00    +0.000 A 
ATOM     28  C   UNL     1      -6.470  -0.155 -12.220  0.00  0.00    +0.001 A 
ATOM     29  C   UNL     1      -5.397  -0.853 -11.704  0.00  0.00    +0.010 A 
ENDBRANCH  22  24
ENDBRANCH   2  19
TORSDOF 4
