REMARK  Name = ZINC09488342
REMARK  9 active torsions:
REMARK  status: ('A' for Active; 'I' for Inactive)
REMARK    1  A    between atoms: C_1  and  C_2
REMARK    2  A    between atoms: C_2  and  C_3
REMARK    3  A    between atoms: C_2  and  N_4
REMARK    4  A    between atoms: C_5  and  O_35
REMARK    5  A    between atoms: C_6  and  C_13
REMARK    6  A    between atoms: C_18  and  O_34
REMARK    7  A    between atoms: N_26  and  C_31
REMARK    8  A    between atoms: C_31  and  C_32
REMARK    9  A    between atoms: C_31  and  C_33
REMARK                            x       y       z     vdW  Elec       q    Type
REMARK                         _______ _______ _______ _____ _____    ______ ____
ROOT
ATOM      1  C   UNL     1       2.705   3.808  -0.035  0.00  0.00    +0.103 C 
ATOM      2  C   UNL     1       3.898   2.939  -0.329  0.00  0.00    +0.008 A 
ATOM      3  C   UNL     1       5.116   3.527  -0.620  0.00  0.00    +0.012 A 
ATOM      4  C   UNL     1       6.220   2.744  -0.890  0.00  0.00    +0.046 A 
ATOM      5  C   UNL     1       6.110   1.360  -0.871  0.00  0.00    +0.120 A 
ATOM      6  C   UNL     1       4.892   0.768  -0.581  0.00  0.00    +0.092 A 
ATOM      7  C   UNL     1       3.782   1.558  -0.309  0.00  0.00    +0.138 A 
ATOM      8  O   UNL     1       2.597   0.966  -0.026  0.00  0.00    -0.439 OA
ATOM      9  C   UNL     1       1.449   1.655  -0.152  0.00  0.00    +0.212 A 
ATOM     10  C   UNL     1       1.435   3.014  -0.162  0.00  0.00    +0.089 A 
ATOM     11  C   UNL     1       0.205   3.688  -0.294  0.00  0.00    +0.265 A 
ATOM     12  O   UNL     1       0.171   4.906  -0.306  0.00  0.00    -0.267 OA
ATOM     13  N   UNL     1      -0.934   2.977  -0.408  0.00  0.00    -0.258 N 
ATOM     14  C   UNL     1      -0.900   1.632  -0.402  0.00  0.00    +0.332 A 
ATOM     15  O   UNL     1      -1.937   1.006  -0.511  0.00  0.00    -0.246 OA
ATOM     16  N   UNL     1       0.263   0.969  -0.273  0.00  0.00    -0.278 N 
ATOM     17  H   UNL     1       0.265  -0.001  -0.268  0.00  0.00    +0.173 HD
ENDROOT
BRANCH   1  20
ATOM     18  N   UNL     1       2.963   6.165   2.872  0.00  0.00    -0.262 N 
ATOM     19  C   UNL     1       2.868   5.694   1.587  0.00  0.00    +0.206 A 
ATOM     20  C   UNL     1       2.816   4.350   1.367  0.00  0.00    +0.089 A 
ATOM     21  C   UNL     1       2.874   3.475   2.467  0.00  0.00    +0.262 A 
ATOM     22  O   UNL     1       2.834   2.269   2.294  0.00  0.00    -0.267 OA
ATOM     23  N   UNL     1       2.973   3.979   3.712  0.00  0.00    -0.274 N 
ATOM     24  H   UNL     1       3.014   3.360   4.497  0.00  0.00    +0.173 HD
ATOM     25  C   UNL     1       3.017   5.309   3.909  0.00  0.00    +0.332 A 
ATOM     26  O   UNL     1       3.107   5.745   5.041  0.00  0.00    -0.246 OA
BRANCH  18  28
ATOM     27  C   UNL     1       1.853   8.012   4.027  0.00  0.00    +0.031 C 
ATOM     28  C   UNL     1       3.013   7.609   3.116  0.00  0.00    +0.089 C 
ATOM     29  C   UNL     1       4.340   7.966   3.790  0.00  0.00    +0.031 C 
ENDBRANCH  18  28
BRANCH  19  30
ATOM     30  O   UNL     1       2.820   6.555   0.548  0.00  0.00    -0.493 OA
ATOM     31  H   UNL     1       2.944   7.481   0.799  0.00  0.00    +0.294 HD
ENDBRANCH  19  30
ENDBRANCH   1  20
BRANCH  13  32
ATOM     32  C   UNL     1      -2.216   3.673  -0.544  0.00  0.00    +0.089 C 
ATOM     33  C   UNL     1      -2.875   3.273  -1.865  0.00  0.00    +0.031 C 
ATOM     34  C   UNL     1      -3.132   3.287   0.620  0.00  0.00    +0.031 C 
ENDBRANCH  13  32
BRANCH   5  35
ATOM     35  O   UNL     1       7.196   0.587  -1.136  0.00  0.00    -0.507 OA
ATOM     36  H   UNL     1       7.303   0.368  -2.072  0.00  0.00    +0.292 HD
ENDBRANCH   5  35
TORSDOF 5
