REMARK  Name = ZINC23133230
REMARK  13 active torsions:
REMARK  status: ('A' for Active; 'I' for Inactive)
REMARK    1  A    between atoms: C_1  and  N_2
REMARK    2  A    between atoms: N_2  and  C_3
REMARK    3  A    between atoms: N_2  and  C_4
REMARK    4  A    between atoms: C_4  and  C_6
REMARK    5  A    between atoms: C_4  and  C_26
REMARK    6  A    between atoms: C_6  and  N_7
REMARK    7  A    between atoms: C_8  and  C_10
REMARK    8  A    between atoms: C_10  and  N_11
REMARK    9  A    between atoms: C_12  and  C_14
REMARK   10  A    between atoms: C_18  and  S_20
REMARK   11  A    between atoms: S_20  and  N_23
REMARK   12  A    between atoms: N_23  and  C_24
REMARK   13  A    between atoms: N_23  and  C_25
REMARK                            x       y       z     vdW  Elec       q    Type
REMARK                         _______ _______ _______ _____ _____    ______ ____
ROOT
ATOM      1  C   UNL     1       2.649   4.647  -1.223  0.00  0.00    +0.200 C 
ENDROOT
BRANCH   1   3
ATOM      2  N   UNL     1       4.253   2.834  -0.718  0.00  0.00    -0.315 N 
ATOM      3  C   UNL     1       2.975   3.207  -0.925  0.00  0.00    +0.230 C 
ATOM      4  O   UNL     1       2.087   2.382  -0.872  0.00  0.00    -0.274 OA
ATOM      5  H   UNL     1       5.059   3.581  -0.765  0.00  0.00    +0.149 HD
BRANCH   2   6
ATOM      6  C   UNL     1       4.570   1.433  -0.428  0.00  0.00    +0.093 C 
BRANCH   6   7
ATOM      7  C   UNL     1       6.088   1.258  -0.352  0.00  0.00    -0.020 C 
BRANCH   7   8
ATOM      8  C   UNL     1       6.412  -0.159   0.047  0.00  0.00    -0.052 A 
ATOM      9  C   UNL     1       7.328  -0.899  -0.675  0.00  0.00    +0.009 A 
ATOM     10  C   UNL     1       7.596  -2.170  -0.289  0.00  0.00    +0.045 A 
ATOM     11  S   UNL     1       6.536  -2.355   1.135  0.00  0.00    -0.105 S 
ATOM     12  C   UNL     1       5.812  -0.724   1.123  0.00  0.00    +0.047 A 
ENDBRANCH   7   8
BRANCH   7  14
ATOM     13  C   UNL     1       6.225   1.806   2.002  0.00  0.00    -0.096 C 
ATOM     14  N   UNL     1       6.639   2.186   0.645  0.00  0.00    +0.382 N 
ATOM     15  C   UNL     1       8.102   2.261   0.542  0.00  0.00    -0.096 C 
ATOM     16  H   UNL     1       6.233   3.187   0.435  0.00  0.00    -0.082 HD
ENDBRANCH   7  14
ENDBRANCH   6   7
ENDBRANCH   2   6
ENDBRANCH   1   3
BRANCH   1  17
ATOM     17  N   UNL     1       1.203   4.793  -1.408  0.00  0.00    -0.303 N 
ATOM     18  C   UNL     1       0.678   6.002  -1.691  0.00  0.00    +0.245 C 
ATOM     19  O   UNL     1       1.404   6.972  -1.788  0.00  0.00    -0.270 OA
ATOM     20  H   UNL     1       0.546   3.916  -1.315  0.00  0.00    +0.150 HD
BRANCH  18  21
ATOM     21  C   UNL     1      -0.780   6.148  -1.883  0.00  0.00    +0.039 A 
ATOM     22  C   UNL     1      -1.616   5.035  -1.778  0.00  0.00    +0.013 A 
ATOM     23  C   UNL     1      -2.977   5.178  -1.954  0.00  0.00    +0.003 A 
ATOM     24  C   UNL     1      -3.512   6.421  -2.244  0.00  0.00    +0.028 A 
ATOM     25  C   UNL     1      -2.689   7.527  -2.355  0.00  0.00    +0.106 A 
ATOM     26  C   UNL     1      -1.327   7.398  -2.176  0.00  0.00    +0.041 A 
BRANCH  25  27
ATOM     27  S   UNL     1      -3.381   9.105  -2.725  0.00  0.00    +0.060 S 
ATOM     28  O   UNL     1      -4.739   9.060  -2.308  0.00  0.00    -0.153 OA
ATOM     29  O   UNL     1      -2.465  10.075  -2.237  0.00  0.00    -0.153 OA
BRANCH  27  30
ATOM     30  N   UNL     1      -3.398   9.257  -4.374  0.00  0.00    -0.183 NA
ATOM     31  C   UNL     1      -4.563   8.808  -5.140  0.00  0.00    +0.131 C 
ATOM     32  C   UNL     1      -2.247   9.841  -5.067  0.00  0.00    +0.131 C 
ENDBRANCH  27  30
ENDBRANCH  25  27
ENDBRANCH  18  21
ENDBRANCH   1  17
TORSDOF 9
