REMARK  Name = ZINC05460866
REMARK  7 active torsions:
REMARK  status: ('A' for Active; 'I' for Inactive)
REMARK    1  A    between atoms: C_1  and  C_2
REMARK    2  A    between atoms: C_2  and  C_3
REMARK    3  A    between atoms: C_2  and  C_4
REMARK    4  A    between atoms: C_2  and  C_5
REMARK    5  A    between atoms: C_12  and  C_16
REMARK    6  A    between atoms: N_18  and  N_19
REMARK    7  A    between atoms: N_27  and  C_30
REMARK                            x       y       z     vdW  Elec       q    Type
REMARK                         _______ _______ _______ _____ _____    ______ ____
ROOT
ATOM      1  C   UNL     1       5.976  -0.176  -4.146  0.00  0.00    +0.276 C 
ATOM      2  O   UNL     1       6.546   0.168  -3.132  0.00  0.00    -0.270 OA
ATOM      3  N   UNL     1       6.682  -0.404  -5.271  0.00  0.00    -0.203 N 
ATOM      4  H   UNL     1       6.226  -0.679  -6.082  0.00  0.00    +0.177 HD
ENDROOT
BRANCH   3   5
ATOM      5  N   UNL     1       8.073  -0.245  -5.270  0.00  0.00    -0.174 NA
ATOM      6  C   UNL     1       8.748  -0.361  -6.388  0.00  0.00    +0.153 C 
ATOM      7  C   UNL     1       8.204  -0.473  -7.762  0.00  0.00    +0.028 A 
ATOM      8  C   UNL     1       6.913  -0.491  -8.276  0.00  0.00    +0.012 A 
ATOM      9  C   UNL     1       6.720  -0.610  -9.638  0.00  0.00    +0.001 A 
ATOM     10  C   UNL     1       7.809  -0.711 -10.487  0.00  0.00    +0.002 A 
ATOM     11  C   UNL     1       9.095  -0.694  -9.986  0.00  0.00    +0.024 A 
ATOM     12  C   UNL     1       9.309  -0.575  -8.617  0.00  0.00    +0.046 A 
ATOM     13  N   UNL     1      10.478  -0.533  -7.865  0.00  0.00    -0.269 N 
ATOM     14  C   UNL     1      10.215  -0.402  -6.554  0.00  0.00    +0.271 C 
ATOM     15  O   UNL     1      11.039  -0.333  -5.661  0.00  0.00    -0.268 OA
ATOM     16  C   UNL     1      11.826  -0.614  -8.432  0.00  0.00    +0.138 C 
ENDBRANCH   3   5
BRANCH   1  24
ATOM     17  C   UNL     1       0.667  -0.024  -1.310  0.00  0.00    -0.038 A 
ATOM     18  C   UNL     1       0.052  -1.030  -2.032  0.00  0.00    +0.008 A 
ATOM     19  C   UNL     1       0.736  -1.674  -3.046  0.00  0.00    +0.050 A 
ATOM     20  C   UNL     1       2.042  -1.313  -3.341  0.00  0.00    +0.162 A 
ATOM     21  C   UNL     1       2.661  -0.304  -2.615  0.00  0.00    +0.163 A 
ATOM     22  C   UNL     1       1.967   0.344  -1.604  0.00  0.00    +0.053 A 
ATOM     23  O   UNL     1       3.945   0.061  -2.883  0.00  0.00    -0.472 OA
ATOM     24  C   UNL     1       4.479  -0.348  -4.147  0.00  0.00    +0.297 C 
ATOM     25  C   UNL     1       4.127  -1.826  -4.362  0.00  0.00    +0.283 C 
ATOM     26  O   UNL     1       2.701  -1.954  -4.345  0.00  0.00    -0.484 OA
BRANCH  17  28
ATOM     27  C   UNL     1      -0.183   2.169  -0.527  0.00  0.00    +0.015 C 
ATOM     28  C   UNL     1      -0.082   0.677  -0.207  0.00  0.00    -0.013 C 
ATOM     29  C   UNL     1       0.664   0.488   1.116  0.00  0.00    +0.015 C 
ATOM     30  C   UNL     1      -1.488   0.084  -0.089  0.00  0.00    +0.015 C 
ENDBRANCH  17  28
ENDBRANCH   1  24
TORSDOF 3
