REMARK  Name = ZINC00792099
REMARK  8 active torsions:
REMARK  status: ('A' for Active; 'I' for Inactive)
REMARK    1  A    between atoms: C_1  and  C_2
REMARK    2  A    between atoms: C_3  and  C_25
REMARK    3  A    between atoms: C_5  and  N_24
REMARK    4  A    between atoms: C_6  and  C_12
REMARK    5  A    between atoms: C_10  and  C_11
REMARK    6  A    between atoms: N_14  and  C_15
REMARK    7  A    between atoms: C_18  and  C_21
REMARK    8  A    between atoms: C_21  and  C_23
REMARK                            x       y       z     vdW  Elec       q    Type
REMARK                         _______ _______ _______ _____ _____    ______ ____
ROOT
ATOM      1  C   UNL     1      -0.996   1.286  -1.130  0.00  0.00    +0.046 C 
ATOM      2  C   UNL     1      -0.625  -0.117  -0.722  0.00  0.00    -0.028 A 
ATOM      3  C   UNL     1      -0.440  -1.082  -1.684  0.00  0.00    -0.035 A 
ATOM      4  C   UNL     1      -0.092  -2.395  -1.281  0.00  0.00    +0.030 A 
ATOM      5  C   UNL     1       0.152  -3.565  -2.111  0.00  0.00    +0.054 A 
ATOM      6  C   UNL     1       0.481  -4.750  -1.489  0.00  0.00    +0.097 A 
ATOM      7  S   UNL     1       0.471  -4.325   0.242  0.00  0.00    -0.064 S 
ATOM      8  C   UNL     1       0.038  -2.608   0.110  0.00  0.00    +0.088 A 
ATOM      9  N   UNL     1      -0.151  -1.650   0.992  0.00  0.00    -0.352 N 
ATOM     10  C   UNL     1      -0.469  -0.425   0.621  0.00  0.00    +0.017 A 
ATOM     11  C   UNL     1      -0.669   0.645   1.663  0.00  0.00    +0.063 C 
ATOM     12  C   UNL     1      -0.604  -0.748  -3.144  0.00  0.00    +0.045 C 
ATOM     13  H   UNL     1      -0.050  -1.848   1.937  0.00  0.00    +0.166 HD
ENDROOT
BRANCH   6  14
ATOM     14  C   UNL     1       0.759  -6.005  -2.083  0.00  0.00    +0.257 C 
ATOM     15  O   UNL     1       0.722  -6.128  -3.294  0.00  0.00    -0.269 OA
ATOM     16  N   UNL     1       1.065  -7.065  -1.308  0.00  0.00    -0.281 N 
ATOM     17  H   UNL     1       1.025  -6.987  -0.342  0.00  0.00    +0.155 HD
BRANCH  16  18
ATOM     18  C   UNL     1       1.438  -8.271  -1.893  0.00  0.00    +0.034 A 
ATOM     19  C   UNL     1       2.206  -8.271  -3.055  0.00  0.00    +0.024 A 
ATOM     20  C   UNL     1       2.574  -9.452  -3.633  0.00  0.00    +0.013 A 
ATOM     21  C   UNL     1       2.177 -10.665  -3.056  0.00  0.00    +0.017 A 
ATOM     22  C   UNL     1       1.404 -10.661  -1.888  0.00  0.00    +0.013 A 
ATOM     23  C   UNL     1       1.046  -9.475  -1.313  0.00  0.00    +0.024 A 
BRANCH  21  24
ATOM     24  C   UNL     1       2.570 -11.938  -3.675  0.00  0.00    +0.160 C 
ATOM     25  O   UNL     1       3.323 -11.943  -4.625  0.00  0.00    -0.292 OA
ATOM     26  C   UNL     1       2.036 -13.237  -3.128  0.00  0.00    +0.091 C 
ENDBRANCH  21  24
ENDBRANCH  16  18
ENDBRANCH   6  14
BRANCH   5  27
ATOM     27  N   UNL     1       0.057  -3.490  -3.493  0.00  0.00    -0.356 N 
ATOM     28  H   UNL     1       0.282  -2.665  -3.950  0.00  0.00    +0.142 HD
ATOM     29  H   UNL     1      -0.236  -4.262  -4.002  0.00  0.00    +0.142 HD
ENDBRANCH   5  27
TORSDOF 4
