REMARK  Name = ZINC12483472
REMARK  7 active torsions:
REMARK  status: ('A' for Active; 'I' for Inactive)
REMARK    1  A    between atoms: C_1  and  C_2
REMARK    2  A    between atoms: C_2  and  N_3
REMARK    3  A    between atoms: N_6  and  C_7
REMARK    4  A    between atoms: C_16  and  N_59
REMARK    5  A    between atoms: C_18  and  O_20
REMARK    6  A    between atoms: C_23  and  C_26
REMARK    7  A    between atoms: C_26  and  C_27
REMARK                            x       y       z     vdW  Elec       q    Type
REMARK                         _______ _______ _______ _____ _____    ______ ____
ROOT
ATOM      1  C   UNL     1       3.710   8.156  -4.729  0.00  0.00    +0.132 C 
ATOM      2  C   UNL     1       3.562   9.683  -4.624  0.00  0.00    +0.169 C 
ATOM      3  C   UNL     1       3.109  10.209  -6.006  0.00  0.00    +0.196 C 
ATOM      4  O   UNL     1       1.671  10.181  -5.960  0.00  0.00    -0.350 OA
ATOM      5  C   UNL     1       1.299   9.645  -4.676  0.00  0.00    +0.240 C 
ATOM      6  O   UNL     1       2.405   9.944  -3.791  0.00  0.00    -0.345 OA
ATOM      7  C   UNL     1       1.212   8.116  -4.802  0.00  0.00    +0.019 C 
ATOM      8  C   UNL     1       2.490   7.598  -5.470  0.00  0.00    +0.129 C 
ENDROOT
BRANCH   7  14
ATOM      9  C   UNL     1      -0.101   8.049  -2.769  0.00  0.00    -0.078 C 
ATOM     10  C   UNL     1      -0.127   7.518  -1.333  0.00  0.00    -0.015 C 
ATOM     11  C   UNL     1      -0.173   5.988  -1.362  0.00  0.00    -0.010 C 
ATOM     12  C   UNL     1       1.039   5.462  -2.136  0.00  0.00    -0.015 C 
ATOM     13  C   UNL     1       1.033   6.054  -3.547  0.00  0.00    -0.078 C 
ATOM     14  N   UNL     1       1.103   7.527  -3.451  0.00  0.00    +0.387 N 
ATOM     15  H   UNL     1       1.933   7.786  -2.906  0.00  0.00    -0.081 HD
BRANCH  11  16
ATOM     16  C   UNL     1      -0.138   5.449   0.070  0.00  0.00    +0.038 C 
BRANCH  16  17
ATOM     17  C   UNL     1      -0.303   3.951   0.047  0.00  0.00    -0.047 A 
ATOM     18  C   UNL     1       0.808   3.135  -0.041  0.00  0.00    +0.003 A 
ATOM     19  C   UNL     1       0.657   1.761  -0.062  0.00  0.00    +0.000 A 
ATOM     20  C   UNL     1      -0.606   1.204   0.006  0.00  0.00    +0.000 A 
ATOM     21  C   UNL     1      -1.718   2.021   0.088  0.00  0.00    +0.000 A 
ATOM     22  C   UNL     1      -1.567   3.394   0.114  0.00  0.00    +0.003 A 
ENDBRANCH  16  17
ENDBRANCH  11  16
ENDBRANCH   7  14
BRANCH   1  26
ATOM     23  N   UNL     1       5.026   6.961  -1.511  0.00  0.00    -0.300 N 
ATOM     24  C   UNL     1       4.963   7.496  -2.747  0.00  0.00    +0.300 C 
ATOM     25  O   UNL     1       5.973   7.907  -3.284  0.00  0.00    -0.253 OA
ATOM     26  N   UNL     1       3.779   7.575  -3.386  0.00  0.00    -0.292 N 
ATOM     27  H   UNL     1       4.220   6.633  -1.083  0.00  0.00    +0.150 HD
ATOM     28  H   UNL     1       2.973   7.247  -2.958  0.00  0.00    +0.151 HD
BRANCH  23  30
ATOM     29  C   UNL     1       6.108   6.232   0.558  0.00  0.00    +0.024 C 
ATOM     30  C   UNL     1       6.313   6.875  -0.815  0.00  0.00    +0.102 C 
ENDBRANCH  23  30
ENDBRANCH   1  26
BRANCH   8  31
ATOM     31  O   UNL     1       2.522   8.025  -6.833  0.00  0.00    -0.391 OA
ATOM     32  H   UNL     1       3.305   7.732  -7.319  0.00  0.00    +0.210 HD
ENDBRANCH   8  31
TORSDOF 6
