REMARK  Name = ZINC33253024
REMARK  7 active torsions:
REMARK  status: ('A' for Active; 'I' for Inactive)
REMARK    1  A    between atoms: C_1  and  C_2
REMARK    2  A    between atoms: C_5  and  C_33
REMARK    3  A    between atoms: C_6  and  S_8
REMARK    4  A    between atoms: S_8  and  N_11
REMARK    5  A    between atoms: N_11  and  C_12
REMARK    6  A    between atoms: C_15  and  N_21
REMARK    7  A    between atoms: C_16  and  C_18
REMARK                            x       y       z     vdW  Elec       q    Type
REMARK                         _______ _______ _______ _____ _____    ______ ____
ROOT
ATOM      1  C   UNL     1       0.691  12.070  -0.933  0.00  0.00    +0.049 A 
ATOM      2  C   UNL     1       1.826  11.264  -0.933  0.00  0.00    +0.026 A 
ATOM      3  C   UNL     1       1.706   9.892  -0.873  0.00  0.00    +0.026 A 
ATOM      4  C   UNL     1       0.450   9.303  -0.814  0.00  0.00    +0.044 A 
ATOM      5  C   UNL     1      -0.699  10.109  -0.820  0.00  0.00    +0.086 A 
ATOM      6  C   UNL     1      -0.568  11.500  -0.874  0.00  0.00    +0.041 A 
ENDROOT
BRANCH   4   7
ATOM      7  N   UNL     1       0.330   7.918  -0.754  0.00  0.00    -0.326 N 
ATOM      8  C   UNL     1       0.837   7.292  -1.983  0.00  0.00    +0.124 C 
ATOM      9  C   UNL     1       0.615   5.779  -1.911  0.00  0.00    +0.125 C 
ATOM     10  N   UNL     1       1.302   5.242  -0.728  0.00  0.00    -0.314 N 
ATOM     11  C   UNL     1       0.795   5.868   0.501  0.00  0.00    +0.125 C 
ATOM     12  C   UNL     1       1.017   7.381   0.429  0.00  0.00    +0.124 C 
ATOM     13  C   UNL     1       1.183   3.859  -0.668  0.00  0.00    +0.099 A 
ATOM     14  C   UNL     1       1.769   3.161   0.383  0.00  0.00    +0.042 A 
ATOM     15  C   UNL     1       1.638   1.785   0.433  0.00  0.00    +0.005 A 
ATOM     16  C   UNL     1       0.932   1.149  -0.580  0.00  0.00    +0.018 A 
ATOM     17  C   UNL     1       0.376   1.904  -1.594  0.00  0.00    +0.084 A 
ATOM     18  N   UNL     1       0.513   3.216  -1.613  0.00  0.00    -0.350 N 
ATOM     19  H   UNL     1       0.053   3.778  -2.440  0.00  0.00    +0.166 HD
ENDBRANCH   4   7
BRANCH   5  20
ATOM     20  C   UNL     1      -2.036   9.493  -0.763  0.00  0.00    +0.388 C 
ATOM     21  O   UNL     1      -2.146   8.291  -0.619  0.00  0.00    -0.241 OA
ATOM     22  O   UNL     1      -3.137  10.262  -0.871  0.00  0.00    -0.241 OA
ENDBRANCH   5  20
BRANCH   1  23
ATOM     23  N   UNL     1       0.824  13.463  -0.992  0.00  0.00    -0.216 N 
ATOM     24  H   UNL     1       0.240  14.101  -0.312  0.00  0.00    +0.174 HD
BRANCH  23  25
ATOM     25  S   UNL     1       1.860  14.150  -2.086  0.00  0.00    +0.073 S 
ATOM     26  O   UNL     1       1.691  15.556  -1.978  0.00  0.00    -0.150 OA
ATOM     27  O   UNL     1       3.119  13.518  -1.905  0.00  0.00    -0.150 OA
BRANCH  25  33
ATOM     28  C   UNL     1       2.490  11.659  -6.638  0.00  0.00    +0.044 C 
ATOM     29  C   UNL     1       1.636  12.537  -5.760  0.00  0.00    -0.049 A 
ATOM     30  C   UNL     1       0.410  12.986  -6.214  0.00  0.00    +0.004 A 
ATOM     31  C   UNL     1      -0.373  13.791  -5.408  0.00  0.00    +0.005 A 
ATOM     32  C   UNL     1       0.068  14.142  -4.145  0.00  0.00    -0.024 A 
ATOM     33  C   UNL     1       1.296  13.697  -3.693  0.00  0.00    +0.112 A 
ATOM     34  C   UNL     1       2.079  12.892  -4.499  0.00  0.00    +0.032 A 
ATOM     35  C   UNL     1      -0.789  15.014  -3.264  0.00  0.00    +0.046 C 
ENDBRANCH  25  33
ENDBRANCH  23  25
ENDBRANCH   1  23
TORSDOF 5
