REMARK  Name = ZINC40071313
REMARK  6 active torsions:
REMARK  status: ('A' for Active; 'I' for Inactive)
REMARK    1  A    between atoms: C_1  and  C_2
REMARK    2  A    between atoms: C_2  and  C_4
REMARK    3  A    between atoms: C_2  and  N_14
REMARK    4  A    between atoms: N_17  and  N_18
REMARK    5  A    between atoms: C_19  and  C_21
REMARK    6  A    between atoms: C_21  and  N_22
REMARK                            x       y       z     vdW  Elec       q    Type
REMARK                         _______ _______ _______ _____ _____    ______ ____
ROOT
ATOM      1  N   UNL     1       0.711  -0.489   1.189  0.00  0.00    -0.295 N 
ATOM      2  C   UNL     1       2.054  -0.600   1.174  0.00  0.00    +0.316 C 
ATOM      3  O   UNL     1       2.677  -0.297   0.175  0.00  0.00    -0.251 OA
ATOM      4  N   UNL     1       2.706  -1.046   2.266  0.00  0.00    -0.218 N 
ATOM      5  H   UNL     1       0.213  -0.731   1.986  0.00  0.00    +0.151 HD
ATOM      6  H   UNL     1       3.672  -1.126   2.255  0.00  0.00    +0.174 HD
ENDROOT
BRANCH   4   7
ATOM      7  N   UNL     1       1.987  -1.396   3.416  0.00  0.00    -0.232 N 
ATOM      8  C   UNL     1       2.639  -1.842   4.508  0.00  0.00    +0.246 C 
ATOM      9  O   UNL     1       3.848  -1.941   4.495  0.00  0.00    -0.273 OA
ATOM     10  H   UNL     1       1.020  -1.316   3.427  0.00  0.00    +0.173 HD
BRANCH   8  11
ATOM     11  C   UNL     1       1.866  -2.218   5.746  0.00  0.00    +0.204 C 
BRANCH  11  12
ATOM     12  N   UNL     1       2.796  -2.669   6.784  0.00  0.00    -0.293 N 
ATOM     13  C   UNL     1       3.161  -4.092   6.870  0.00  0.00    +0.108 C 
ATOM     14  C   UNL     1       4.607  -4.256   6.397  0.00  0.00    +0.019 C 
ATOM     15  C   UNL     1       5.579  -4.031   7.540  0.00  0.00    +0.002 C 
ATOM     16  C   UNL     1       5.603  -2.602   8.052  0.00  0.00    +0.009 C 
ATOM     17  C   UNL     1       4.273  -2.242   8.718  0.00  0.00    +0.096 C 
ATOM     18  C   UNL     1       3.310  -1.787   7.642  0.00  0.00    +0.216 C 
ATOM     19  O   UNL     1       3.002  -0.616   7.563  0.00  0.00    -0.276 OA
ENDBRANCH  11  12
ENDBRANCH   8  11
ENDBRANCH   4   7
BRANCH   1  21
ATOM     20  C   UNL     1      -0.019   1.526   0.010  0.00  0.00    +0.028 C 
ATOM     21  C   UNL     1       0.002  -0.004   0.002  0.00  0.00    +0.078 C 
BRANCH  21  22
ATOM     22  C   UNL     1      -1.433  -0.534   0.013  0.00  0.00    -0.010 C 
ATOM     23  C   UNL     1      -2.149  -0.040   1.272  0.00  0.00    +0.012 C 
ATOM     24  C   UNL     1      -3.585  -0.570   1.282  0.00  0.00    -0.010 C 
ATOM     25  C   UNL     1      -4.325  -0.063   0.043  0.00  0.00    +0.007 C 
ATOM     26  C   UNL     1      -3.609  -0.556  -1.216  0.00  0.00    -0.010 C 
ATOM     27  C   UNL     1      -2.173  -0.027  -1.227  0.00  0.00    +0.012 C 
ATOM     28  C   UNL     1      -3.588  -2.086  -1.224  0.00  0.00    +0.007 C 
ATOM     29  C   UNL     1      -2.848  -2.593   0.015  0.00  0.00    -0.010 C 
ATOM     30  C   UNL     1      -3.564  -2.100   1.274  0.00  0.00    +0.007 C 
ATOM     31  C   UNL     1      -1.413  -2.063   0.004  0.00  0.00    +0.012 C 
ENDBRANCH  21  22
ENDBRANCH   1  21
TORSDOF 5
