REMARK  Name = ZINC32589743
REMARK  6 active torsions:
REMARK  status: ('A' for Active; 'I' for Inactive)
REMARK    1  A    between atoms: C_2  and  C_3
REMARK    2  A    between atoms: C_7  and  N_9
REMARK    3  A    between atoms: N_9  and  S_10
REMARK    4  A    between atoms: S_10  and  C_13
REMARK    5  A    between atoms: C_16  and  O_20
REMARK    6  A    between atoms: O_20  and  C_21
REMARK                            x       y       z     vdW  Elec       q    Type
REMARK                         _______ _______ _______ _____ _____    ______ ____
ROOT
ATOM      1  S   UNL     1       0.065  -4.533  -0.023  0.00  0.00    +0.092 S 
ATOM      2  O   UNL     1      -1.180  -4.954  -0.564  0.00  0.00    -0.148 OA
ATOM      3  O   UNL     1       1.310  -4.918  -0.588  0.00  0.00    -0.148 OA
ENDROOT
BRANCH   1   4
ATOM      4  C   UNL     1       0.040  -2.771  -0.013  0.00  0.00    +0.112 A 
ATOM      5  C   UNL     1       1.228  -2.064  -0.021  0.00  0.00    +0.032 A 
ATOM      6  C   UNL     1       1.212  -0.682  -0.013  0.00  0.00    +0.049 A 
ATOM      7  C   UNL     1       0.002  -0.004   0.002  0.00  0.00    +0.145 A 
ATOM      8  C   UNL     1      -1.190  -0.716   0.015  0.00  0.00    +0.085 A 
ATOM      9  C   UNL     1      -1.168  -2.098   0.002  0.00  0.00    +0.052 A 
ATOM     10 CL   UNL     1      -2.706   0.129   0.042  0.00  0.00    -0.080 Cl
BRANCH   7  11
ATOM     11  O   UNL     1      -0.016   1.355   0.009  0.00  0.00    -0.433 OA
BRANCH  11  12
ATOM     12  C   UNL     1       1.248   2.021   0.001  0.00  0.00    +0.541 C 
ATOM     13  F   UNL     1       1.979   1.649   1.134  0.00  0.00    -0.166 F 
ATOM     14  F   UNL     1       1.957   1.661  -1.150  0.00  0.00    -0.166 F 
ENDBRANCH  11  12
ENDBRANCH   7  11
ENDBRANCH   1   4
BRANCH   1  15
ATOM     15  N   UNL     1       0.087  -5.031   1.556  0.00  0.00    -0.098 NA
BRANCH  15  20
ATOM     16  C   UNL     1      -1.895  -4.028   4.495  0.00  0.00    +0.027 A 
ATOM     17  C   UNL     1      -3.188  -4.254   4.023  0.00  0.00    +0.017 A 
ATOM     18  C   UNL     1      -3.382  -4.734   2.744  0.00  0.00    +0.003 A 
ATOM     19  C   UNL     1      -2.298  -4.992   1.926  0.00  0.00    +0.027 A 
ATOM     20  C   UNL     1      -1.006  -4.769   2.386  0.00  0.00    +0.075 A 
ATOM     21  C   UNL     1      -0.801  -4.292   3.672  0.00  0.00    +0.043 A 
BRANCH  16  23
ATOM     22  C   UNL     1      -1.524  -3.123   6.911  0.00  0.00    +0.009 C 
ATOM     23  C   UNL     1      -1.691  -3.531   5.823  0.00  0.00    -0.070 C 
ENDBRANCH  16  23
ENDBRANCH  15  20
ENDBRANCH   1  15
TORSDOF 6
