REMARK  Name = ZINC40455873
REMARK  4 active torsions:
REMARK  status: ('A' for Active; 'I' for Inactive)
REMARK    1  A    between atoms: C_1  and  N_2
REMARK    2  A    between atoms: N_2  and  C_3
REMARK    3  A    between atoms: C_3  and  C_4
REMARK    4  A    between atoms: C_10  and  N_13
REMARK                            x       y       z     vdW  Elec       q    Type
REMARK                         _______ _______ _______ _____ _____    ______ ____
ROOT
ATOM      1  C   UNL     1      -0.018   1.461   0.010  0.00  0.00    +0.132 C 
ATOM      2  N   UNL     1       0.002  -0.004   0.002  0.00  0.00    -0.302 N 
ATOM      3  C   UNL     1       0.000  -0.691  -1.203  0.00  0.00    +0.218 A 
ATOM      4  N   UNL     1       0.013  -2.015  -1.190  0.00  0.00    -0.221 NA
ATOM      5  C   UNL     1       0.011  -2.704  -2.320  0.00  0.00    +0.138 A 
ATOM      6  C   UNL     1      -0.005  -2.018  -3.531  0.00  0.00    +0.061 A 
ATOM      7  C   UNL     1      -0.018  -0.627  -3.504  0.00  0.00    +0.138 A 
ATOM      8  N   UNL     1      -0.020  -0.006  -2.336  0.00  0.00    -0.221 NA
ENDROOT
BRANCH   6   9
ATOM      9  N   UNL     1      -0.007  -2.712  -4.748  0.00  0.00    -0.356 N 
ATOM     10  H   UNL     1       0.003  -3.682  -4.753  0.00  0.00    +0.142 HD
ATOM     11  H   UNL     1      -0.018  -2.223  -5.585  0.00  0.00    +0.142 HD
ENDBRANCH   6   9
BRANCH   2  12
ATOM     12  C   UNL     1       0.024  -0.743   1.267  0.00  0.00    +0.111 C 
BRANCH  12  13
ATOM     13  C   UNL     1      -1.411  -1.020   1.720  0.00  0.00    +0.006 C 
ATOM     14  C   UNL     1      -1.872  -0.383   3.033  0.00  0.00    +0.005 C 
ATOM     15  C   UNL     1      -1.602  -1.887   2.966  0.00  0.00    +0.005 C 
ENDBRANCH  12  13
ENDBRANCH   2  12
TORSDOF 3
