REMARK  Name = ZINC62407046
REMARK  5 active torsions:
REMARK  status: ('A' for Active; 'I' for Inactive)
REMARK    1  A    between atoms: C_2  and  C_3
REMARK    2  A    between atoms: C_3  and  N_4
REMARK    3  A    between atoms: N_4  and  C_5
REMARK    4  A    between atoms: C_5  and  C_6
REMARK    5  A    between atoms: N_15  and  C_16
REMARK                            x       y       z     vdW  Elec       q    Type
REMARK                         _______ _______ _______ _____ _____    ______ ____
ROOT
ATOM      1  N   UNL     1       1.333   2.034   0.001  0.00  0.00    -0.270 N 
ATOM      2  C   UNL     1       1.976   2.261   1.163  0.00  0.00    +0.304 C 
ATOM      3  O   UNL     1       3.096   2.735   1.156  0.00  0.00    -0.253 OA
ATOM      4  N   UNL     1       1.379   1.962   2.334  0.00  0.00    -0.288 N 
ATOM      5  H   UNL     1       0.486   1.584   2.340  0.00  0.00    +0.151 HD
ENDROOT
BRANCH   4   6
ATOM      6  C   UNL     1       2.078   2.209   3.597  0.00  0.00    +0.160 C 
ATOM      7  C   UNL     1       1.385   1.443   4.727  0.00  0.00    +0.032 C 
ATOM      8  C   UNL     1      -0.116   1.396   4.503  0.00  0.00    +0.004 C 
ATOM      9  C   UNL     1      -0.793   2.750   4.607  0.00  0.00    +0.019 C 
ATOM     10  C   UNL     1      -0.357   3.667   3.462  0.00  0.00    +0.104 C 
ATOM     11  N   UNL     1       0.883   4.356   3.857  0.00  0.00    -0.314 N 
ATOM     12  C   UNL     1       2.035   3.687   3.923  0.00  0.00    +0.233 C 
ATOM     13  O   UNL     1       3.051   4.265   4.244  0.00  0.00    -0.274 OA
ATOM     14  H   UNL     1       0.862   5.302   4.070  0.00  0.00    +0.149 HD
ENDBRANCH   4   6
BRANCH   1  15
ATOM     15  C   UNL     1      -0.016   1.463   0.010  0.00  0.00    +0.198 C 
BRANCH  15  17
ATOM     16  C   UNL     1       0.144  -1.177  -0.074  0.00  0.00    +0.005 C 
ATOM     17  C   UNL     1       0.073  -0.006  -0.037  0.00  0.00    -0.086 C 
ENDBRANCH  15  17
ENDBRANCH   1  15
BRANCH   1  18
ATOM     18  C   UNL     1       1.983   2.358  -1.271  0.00  0.00    +0.145 C 
BRANCH  18  19
ATOM     19  C   UNL     1       1.652   3.777  -1.657  0.00  0.00    -0.030 A 
ATOM     20  C   UNL     1       0.531   4.042  -2.420  0.00  0.00    +0.008 A 
ATOM     21  C   UNL     1       0.226   5.343  -2.774  0.00  0.00    +0.038 A 
ATOM     22  C   UNL     1       1.045   6.381  -2.363  0.00  0.00    +0.123 A 
ATOM     23  C   UNL     1       2.168   6.115  -1.598  0.00  0.00    +0.038 A 
ATOM     24  C   UNL     1       2.467   4.814  -1.241  0.00  0.00    +0.008 A 
ATOM     25  F   UNL     1       0.749   7.653  -2.708  0.00  0.00    -0.205 F 
ENDBRANCH  18  19
ENDBRANCH   1  18
TORSDOF 5
