REMARK  Name = ZINC66406521
REMARK  5 active torsions:
REMARK  status: ('A' for Active; 'I' for Inactive)
REMARK    1  A    between atoms: C_1  and  C_2
REMARK    2  A    between atoms: C_7  and  C_8
REMARK    3  A    between atoms: C_8  and  C_10
REMARK    4  A    between atoms: C_8  and  N_12
REMARK    5  A    between atoms: C_13  and  C_15
REMARK                            x       y       z     vdW  Elec       q    Type
REMARK                         _______ _______ _______ _____ _____    ______ ____
ROOT
ATOM      1  N   UNL     1       0.630  -0.793   3.543  0.00  0.00    -0.292 N 
ATOM      2  C   UNL     1       1.199  -0.221   4.623  0.00  0.00    +0.245 C 
ATOM      3  O   UNL     1       1.211   0.990   4.735  0.00  0.00    -0.270 OA
ATOM      4  H   UNL     1       0.621  -1.758   3.453  0.00  0.00    +0.151 HD
ENDROOT
BRANCH   2   5
ATOM      5  C   UNL     1       1.808  -1.064   5.668  0.00  0.00    +0.039 A 
ATOM      6  C   UNL     1       1.800  -2.456   5.535  0.00  0.00    +0.014 A 
ATOM      7  C   UNL     1       2.372  -3.240   6.512  0.00  0.00    +0.017 A 
ATOM      8  C   UNL     1       2.953  -2.651   7.626  0.00  0.00    +0.030 A 
ATOM      9  C   UNL     1       2.966  -1.259   7.774  0.00  0.00    +0.048 A 
ATOM     10  C   UNL     1       2.398  -0.471   6.787  0.00  0.00    +0.037 A 
ATOM     11  N   UNL     1       3.536  -0.651   8.890  0.00  0.00    -0.284 N 
ATOM     12  C   UNL     1       4.447  -1.185   9.698  0.00  0.00    +0.227 C 
ATOM     13  O   UNL     1       4.852  -0.517  10.626  0.00  0.00    -0.275 OA
ATOM     14  C   UNL     1       5.003  -2.572   9.526  0.00  0.00    +0.170 C 
ATOM     15  S   UNL     1       3.691  -3.653   8.879  0.00  0.00    -0.114 S 
ATOM     16  H   UNL     1       3.240   0.249   9.098  0.00  0.00    +0.155 HD
ENDBRANCH   2   5
BRANCH   1  17
ATOM     17  C   UNL     1       0.025   0.045   2.504  0.00  0.00    +0.207 C 
BRANCH  17  24
ATOM     18  C   UNL     1      -0.018   1.503   0.010  0.00  0.00    +0.044 C 
ATOM     19  C   UNL     1       0.002  -0.004   0.002  0.00  0.00    -0.045 A 
ATOM     20  C   UNL     1       0.006  -0.689  -1.199  0.00  0.00    +0.004 A 
ATOM     21  C   UNL     1       0.025  -2.071  -1.207  0.00  0.00    +0.000 A 
ATOM     22  C   UNL     1       0.040  -2.768  -0.013  0.00  0.00    +0.000 A 
ATOM     23  C   UNL     1       0.037  -2.084   1.188  0.00  0.00    +0.007 A 
ATOM     24  C   UNL     1       0.023  -0.702   1.195  0.00  0.00    -0.010 A 
ENDBRANCH  17  24
BRANCH  17  25
ATOM     25  C   UNL     1      -1.358   0.374   2.884  0.00  0.00    +0.090 C 
ATOM     26  N   UNL     1      -2.426   0.628   3.177  0.00  0.00    -0.194 NA
ENDBRANCH  17  25
ENDBRANCH   1  17
TORSDOF 4
