REMARK  Name = ZINC21119716
REMARK  10 active torsions:
REMARK  status: ('A' for Active; 'I' for Inactive)
REMARK    1  A    between atoms: C_1  and  C_2
REMARK    2  A    between atoms: C_2  and  C_4
REMARK    3  A    between atoms: C_2  and  O_17
REMARK    4  A    between atoms: N_6  and  C_7
REMARK    5  A    between atoms: C_10  and  C_13
REMARK    6  A    between atoms: O_17  and  C_18
REMARK    7  A    between atoms: C_18  and  C_20
REMARK    8  A    between atoms: C_20  and  C_21
REMARK    9  A    between atoms: C_21  and  C_23
REMARK   10  A    between atoms: C_21  and  N_30
REMARK                            x       y       z     vdW  Elec       q    Type
REMARK                         _______ _______ _______ _____ _____    ______ ____
ROOT
ATOM      1  C   UNL     1      -2.269   3.850   2.577  0.00  0.00    +0.310 C 
ATOM      2  O   UNL     1      -1.204   4.384   2.376  0.00  0.00    -0.251 OA
ENDROOT
BRANCH   1   3
ATOM      3  O   UNL     1      -2.695   3.653   3.835  0.00  0.00    -0.452 OA
BRANCH   3   5
ATOM      4  C   UNL     1      -0.868   2.979   5.298  0.00  0.00    +0.062 C 
ATOM      5  C   UNL     1      -1.823   4.107   4.904  0.00  0.00    +0.259 C 
BRANCH   5   6
ATOM      6  C   UNL     1      -2.655   4.500   6.098  0.00  0.00    +0.258 C 
ATOM      7  O   UNL     1      -3.855   4.321   6.086  0.00  0.00    -0.271 OA
ATOM      8  N   UNL     1      -2.066   5.049   7.178  0.00  0.00    -0.282 N 
ATOM      9  H   UNL     1      -0.971   5.143   7.220  0.00  0.00    +0.155 HD
BRANCH   8  10
ATOM     10  C   UNL     1      -2.848   5.500   8.248  0.00  0.00    +0.034 A 
ATOM     11  C   UNL     1      -2.463   6.625   8.965  0.00  0.00    +0.024 A 
ATOM     12  C   UNL     1      -3.240   7.071  10.017  0.00  0.00    +0.014 A 
ATOM     13  C   UNL     1      -4.393   6.391  10.363  0.00  0.00    +0.055 A 
ATOM     14  C   UNL     1      -4.777   5.267   9.653  0.00  0.00    +0.014 A 
ATOM     15  C   UNL     1      -4.007   4.820   8.598  0.00  0.00    +0.024 A 
BRANCH  13  16
ATOM     16  C   UNL     1      -5.235   6.876  11.515  0.00  0.00    +0.417 C 
ATOM     17  F   UNL     1      -4.801   6.268  12.698  0.00  0.00    -0.166 F 
ATOM     18  F   UNL     1      -5.110   8.265  11.631  0.00  0.00    -0.166 F 
ATOM     19  F   UNL     1      -6.575   6.546  11.285  0.00  0.00    -0.166 F 
ENDBRANCH  13  16
ENDBRANCH   8  10
ENDBRANCH   5   6
ENDBRANCH   3   5
ENDBRANCH   1   3
BRANCH   1  20
ATOM     20  C   UNL     1      -3.120   3.404   1.416  0.00  0.00    +0.147 C 
BRANCH  20  21
ATOM     21  C   UNL     1      -2.411   3.744   0.104  0.00  0.00    +0.115 C 
BRANCH  21  22
ATOM     22  C   UNL     1      -3.313   3.412  -1.056  0.00  0.00    -0.027 A 
ATOM     23  C   UNL     1      -3.499   2.094  -1.431  0.00  0.00    +0.007 A 
ATOM     24  C   UNL     1      -4.332   1.788  -2.491  0.00  0.00    +0.020 A 
ATOM     25  C   UNL     1      -4.969   2.801  -3.185  0.00  0.00    +0.041 A 
ATOM     26  C   UNL     1      -4.778   4.120  -2.813  0.00  0.00    +0.020 A 
ATOM     27  C   UNL     1      -3.950   4.425  -1.749  0.00  0.00    +0.007 A 
ATOM     28 CL   UNL     1      -6.008   2.418  -4.522  0.00  0.00    -0.084 Cl
ENDBRANCH  21  22
BRANCH  21  29
ATOM     29  N   UNL     1      -1.175   2.964   0.001  0.00  0.00    -0.292 N 
ATOM     30  C   UNL     1      -0.120   3.458  -0.677  0.00  0.00    +0.298 C 
ATOM     31  O   UNL     1      -0.224   4.509  -1.280  0.00  0.00    -0.253 OA
ATOM     32  N   UNL     1       1.049   2.788  -0.687  0.00  0.00    -0.313 N 
ATOM     33  H   UNL     1      -1.108   1.974   0.477  0.00  0.00    +0.151 HD
ATOM     34  H   UNL     1       1.909   3.191  -1.241  0.00  0.00    +0.146 HD
ATOM     35  H   UNL     1       1.142   1.837  -0.142  0.00  0.00    +0.146 HD
ENDBRANCH  21  29
ENDBRANCH  20  21
ENDBRANCH   1  20
TORSDOF 9
