REMARK  Name = ZINC51151251
REMARK  2 active torsions:
REMARK  status: ('A' for Active; 'I' for Inactive)
REMARK    1  A    between atoms: C_4  and  C_7
REMARK    2  A    between atoms: N_16  and  N_17
REMARK                            x       y       z     vdW  Elec       q    Type
REMARK                         _______ _______ _______ _____ _____    ______ ____
ROOT
ATOM      1  C   UNL     1       3.588  -0.694  -0.036  0.00  0.00    +0.200 A 
ATOM      2  N   UNL     1       3.575  -2.023  -0.049  0.00  0.00    -0.208 NA
ATOM      3  C   UNL     1       4.686  -2.736  -0.064  0.00  0.00    +0.144 A 
ATOM      4  C   UNL     1       5.943  -2.066  -0.067  0.00  0.00    +0.049 A 
ATOM      5  C   UNL     1       7.286  -2.617  -0.083  0.00  0.00    +0.021 A 
ATOM      6  C   UNL     1       8.337  -1.782  -0.083  0.00  0.00    +0.048 A 
ATOM      7  S   UNL     1       7.585  -0.165  -0.062  0.00  0.00    -0.077 S 
ATOM      8  C   UNL     1       5.880  -0.654  -0.053  0.00  0.00    +0.114 A 
ATOM      9  N   UNL     1       4.729  -0.017  -0.043  0.00  0.00    -0.217 NA
ATOM     10  N   UNL     1       4.630  -4.118  -0.076  0.00  0.00    -0.267 N 
ATOM     11  H   UNL     1       5.450  -4.637  -0.087  0.00  0.00    +0.167 HD
ENDROOT
BRANCH   1  15
ATOM     12  C   UNL     1      -0.017   1.383   0.010  0.00  0.00    +0.039 A 
ATOM     13  C   UNL     1       1.193   2.062   0.002  0.00  0.00    +0.115 A 
ATOM     14  N   UNL     1       2.320   1.372  -0.013  0.00  0.00    -0.233 NA
ATOM     15  C   UNL     1       2.303   0.047  -0.020  0.00  0.00    +0.198 A 
ATOM     16  N   UNL     1       1.165  -0.633  -0.013  0.00  0.00    -0.233 NA
ATOM     17  C   UNL     1       0.002  -0.004   0.002  0.00  0.00    +0.115 A 
ENDBRANCH   1  15
BRANCH  10  18
ATOM     18  N   UNL     1       3.421  -4.753  -0.072  0.00  0.00    -0.255 NA
ATOM     19  H   UNL     1       3.538  -5.755  -0.082  0.00  0.00    +0.140 HD
ATOM     20  H   UNL     1       2.862  -4.462   0.716  0.00  0.00    +0.140 HD
ENDBRANCH  10  18
TORSDOF 2
