REMARK  Name = ZINC06184209
REMARK  12 active torsions:
REMARK  status: ('A' for Active; 'I' for Inactive)
REMARK    1  A    between atoms: C_1  and  C_2
REMARK    2  A    between atoms: C_3  and  C_28
REMARK    3  A    between atoms: C_4  and  C_19
REMARK    4  A    between atoms: C_5  and  C_15
REMARK    5  A    between atoms: C_8  and  N_14
REMARK    6  A    between atoms: C_9  and  C_11
REMARK    7  A    between atoms: C_11  and  C_13
REMARK    8  A    between atoms: C_15  and  O_17
REMARK    9  A    between atoms: O_17  and  C_18
REMARK   10  A    between atoms: C_22  and  C_24
REMARK   11  A    between atoms: C_24  and  O_26
REMARK   12  A    between atoms: O_26  and  C_27
REMARK                            x       y       z     vdW  Elec       q    Type
REMARK                         _______ _______ _______ _____ _____    ______ ____
ROOT
ATOM      1  C   UNL     1      -3.322   5.522   4.044  0.00  0.00    +0.065 C 
ATOM      2  C   UNL     1      -2.509   5.892   2.831  0.00  0.00    +0.040 A 
ATOM      3  C   UNL     1      -2.273   7.204   2.572  0.00  0.00    +0.083 A 
ATOM      4  C   UNL     1      -1.483   7.598   1.395  0.00  0.00    +0.052 A 
ATOM      5  C   UNL     1      -0.985   6.592   0.559  0.00  0.00    +0.095 A 
ATOM      6  C   UNL     1      -1.276   5.191   0.899  0.00  0.00    +0.063 A 
ATOM      7  N   UNL     1      -2.029   4.893   2.025  0.00  0.00    -0.300 N 
ATOM      8  C   UNL     1      -2.167   3.539   2.134  0.00  0.00    +0.112 A 
ATOM      9  C   UNL     1      -1.497   2.940   1.068  0.00  0.00    +0.057 A 
ATOM     10  C   UNL     1      -0.919   4.031   0.280  0.00  0.00    +0.041 A 
ENDROOT
BRANCH   4  11
ATOM     11  C   UNL     1      -1.222   9.014   1.104  0.00  0.00    +0.138 A 
ATOM     12  C   UNL     1      -0.481   9.875   1.887  0.00  0.00    +0.051 A 
ATOM     13  C   UNL     1      -0.484  11.115   1.243  0.00  0.00    +0.057 A 
ATOM     14  C   UNL     1      -1.235  10.967   0.095  0.00  0.00    +0.212 A 
ATOM     15  O   UNL     1      -1.669   9.692   0.032  0.00  0.00    -0.448 OA
BRANCH  14  16
ATOM     16  C   UNL     1      -1.512  12.017  -0.888  0.00  0.00    +0.375 C 
ATOM     17  O   UNL     1      -1.064  13.136  -0.726  0.00  0.00    -0.241 OA
BRANCH  16  18
ATOM     18  O   UNL     1      -2.264  11.743  -1.974  0.00  0.00    -0.462 OA
ATOM     19  C   UNL     1      -2.494  12.814  -2.892  0.00  0.00    +0.280 C 
ENDBRANCH  16  18
ENDBRANCH  14  16
ENDBRANCH   4  11
BRANCH   9  20
ATOM     20  C   UNL     1      -1.391   1.553   0.803  0.00  0.00    +0.163 C 
ATOM     21  O   UNL     1      -1.919   0.751   1.548  0.00  0.00    -0.292 OA
ATOM     22  C   UNL     1      -0.625   1.072  -0.402  0.00  0.00    +0.092 C 
ENDBRANCH   9  20
BRANCH   8  23
ATOM     23  N   UNL     1      -2.853   2.877   3.130  0.00  0.00    -0.344 N 
ATOM     24  H   UNL     1      -3.178   1.976   2.978  0.00  0.00    +0.144 HD
ATOM     25  H   UNL     1      -3.011   3.312   3.982  0.00  0.00    +0.144 HD
ENDBRANCH   8  23
BRANCH   5  26
ATOM     26  C   UNL     1      -0.191   6.927  -0.629  0.00  0.00    +0.342 C 
ATOM     27  O   UNL     1       1.019   7.022  -0.545  0.00  0.00    -0.245 OA
BRANCH  26  28
ATOM     28  O   UNL     1      -0.802   7.128  -1.814  0.00  0.00    -0.464 OA
ATOM     29  C   UNL     1       0.046   7.456  -2.946  0.00  0.00    +0.280 C 
ENDBRANCH  26  28
ENDBRANCH   5  26
BRANCH   3  30
ATOM     30  C   UNL     1      -2.797   8.209   3.447  0.00  0.00    +0.102 C 
ATOM     31  N   UNL     1      -3.213   9.006   4.142  0.00  0.00    -0.191 NA
ENDBRANCH   3  30
TORSDOF 8
