REMARK  Name = ZINC67036544
REMARK  6 active torsions:
REMARK  status: ('A' for Active; 'I' for Inactive)
REMARK    1  A    between atoms: C_1  and  C_2
REMARK    2  A    between atoms: C_2  and  C_3
REMARK    3  A    between atoms: C_2  and  C_4
REMARK    4  A    between atoms: C_2  and  N_24
REMARK    5  A    between atoms: C_4  and  N_5
REMARK    6  A    between atoms: C_12  and  C_14
REMARK                            x       y       z     vdW  Elec       q    Type
REMARK                         _______ _______ _______ _____ _____    ______ ____
ROOT
ATOM      1  N   UNL     1      -1.330  -2.047  -0.409  0.00  0.00    -0.297 N 
ATOM      2  C   UNL     1      -2.440  -2.756  -0.691  0.00  0.00    +0.303 C 
ATOM      3  O   UNL     1      -3.519  -2.198  -0.750  0.00  0.00    -0.253 OA
ATOM      4  N   UNL     1      -2.355  -4.084  -0.906  0.00  0.00    -0.278 N 
ATOM      5  C   UNL     1      -1.119  -4.884  -0.859  0.00  0.00    +0.110 C 
ATOM      6  C   UNL     1      -1.591  -6.327  -0.549  0.00  0.00    +0.021 C 
ATOM      7  C   UNL     1      -2.913  -6.402  -1.359  0.00  0.00    +0.029 C 
ATOM      8  C   UNL     1      -3.482  -4.974  -1.222  0.00  0.00    +0.111 C 
ATOM      9  H   UNL     1      -0.469  -2.492  -0.361  0.00  0.00    +0.150 HD
ENDROOT
BRANCH   8  10
ATOM     10  C   UNL     1      -4.120  -4.553  -2.520  0.00  0.00    +0.018 A 
ATOM     11  C   UNL     1      -3.389  -3.836  -3.449  0.00  0.00    +0.009 A 
ATOM     12  C   UNL     1      -3.972  -3.447  -4.640  0.00  0.00    +0.004 A 
ATOM     13  C   UNL     1      -5.289  -3.773  -4.907  0.00  0.00    +0.049 A 
ATOM     14  C   UNL     1      -6.028  -4.492  -3.979  0.00  0.00    +0.162 A 
ATOM     15  C   UNL     1      -5.439  -4.889  -2.784  0.00  0.00    +0.167 A 
ATOM     16  O   UNL     1      -6.143  -5.606  -1.866  0.00  0.00    -0.485 OA
ATOM     17  C   UNL     1      -7.568  -5.603  -2.002  0.00  0.00    +0.270 C 
ATOM     18  C   UNL     1      -7.911  -5.856  -3.477  0.00  0.00    +0.270 C 
ATOM     19  O   UNL     1      -7.324  -4.802  -4.255  0.00  0.00    -0.485 OA
ENDBRANCH   8  10
BRANCH   1  20
ATOM     20  C   UNL     1      -1.422  -0.604  -0.174  0.00  0.00    +0.127 C 
BRANCH  20  22
ATOM     21  C   UNL     1       0.758  -0.169  -1.315  0.00  0.00    +0.029 C 
ATOM     22  C   UNL     1      -0.016  -0.024  -0.004  0.00  0.00    +0.032 C 
ATOM     23  C   UNL     1      -0.117   1.457   0.367  0.00  0.00    +0.029 C 
BRANCH  22  24
ATOM     24  N   UNL     1       0.687  -0.749   1.063  0.00  0.00    -0.291 NA
ATOM     25  C   UNL     1      -0.071  -0.699   2.322  0.00  0.00    +0.113 C 
ATOM     26  C   UNL     1       0.666  -1.515   3.387  0.00  0.00    +0.175 C 
ATOM     27  O   UNL     1       1.994  -1.007   3.535  0.00  0.00    -0.377 OA
ATOM     28  C   UNL     1       2.761  -1.041   2.328  0.00  0.00    +0.175 C 
ATOM     29  C   UNL     1       2.046  -0.221   1.252  0.00  0.00    +0.113 C 
ENDBRANCH  22  24
ENDBRANCH  20  22
ENDBRANCH   1  20
TORSDOF 4
