REMARK  Name = ZINC36800511
REMARK  6 active torsions:
REMARK  status: ('A' for Active; 'I' for Inactive)
REMARK    1  A    between atoms: C_1  and  C_2
REMARK    2  A    between atoms: C_9  and  C_16
REMARK    3  A    between atoms: C_11  and  O_12
REMARK    4  A    between atoms: C_16  and  N_17
REMARK    5  A    between atoms: C_20  and  C_24
REMARK    6  A    between atoms: C_20  and  C_25
REMARK                            x       y       z     vdW  Elec       q    Type
REMARK                         _______ _______ _______ _____ _____    ______ ____
ROOT
ATOM      1  C   UNL     1       0.076   1.452   0.029  0.00  0.00    +0.109 C 
ATOM      2  C   UNL     1      -0.007  -0.031  -0.226  0.00  0.00    +0.214 C 
ATOM      3  O   UNL     1       0.965  -0.631  -0.650  0.00  0.00    -0.276 OA
ATOM      4  N   UNL     1      -1.131  -0.679   0.009  0.00  0.00    -0.286 N 
ATOM      5  C   UNL     1      -1.167  -2.037  -0.086  0.00  0.00    +0.037 A 
ATOM      6  C   UNL     1      -2.404  -2.699  -0.180  0.00  0.00    +0.024 A 
ATOM      7  C   UNL     1      -2.453  -4.053  -0.276  0.00  0.00    +0.014 A 
ATOM      8  C   UNL     1      -1.261  -4.800  -0.281  0.00  0.00    +0.022 A 
ATOM      9  C   UNL     1      -1.291  -6.207  -0.380  0.00  0.00    -0.012 A 
ATOM     10  C   UNL     1      -0.093  -6.893  -0.381  0.00  0.00    +0.093 A 
ATOM     11  C   UNL     1       1.104  -6.197  -0.285  0.00  0.00    +0.285 A 
ATOM     12  O   UNL     1       1.127  -4.863  -0.192  0.00  0.00    -0.425 OA
ATOM     13  C   UNL     1      -0.014  -4.143  -0.186  0.00  0.00    +0.141 A 
ATOM     14  C   UNL     1       0.025  -2.763  -0.095  0.00  0.00    +0.070 A 
ATOM     15  H   UNL     1      -1.932  -0.188   0.250  0.00  0.00    +0.155 HD
ENDROOT
BRANCH  11  16
ATOM     16  O   UNL     1       2.265  -6.878  -0.288  0.00  0.00    -0.480 OA
ATOM     17  H   UNL     1       3.050  -6.318  -0.218  0.00  0.00    +0.295 HD
ENDBRANCH  11  16
BRANCH   9  18
ATOM     18  C   UNL     1      -2.601  -6.944  -0.482  0.00  0.00    +0.154 C 
BRANCH  18  19
ATOM     19  N   UNL     1      -2.913  -7.192  -1.891  0.00  0.00    -0.220 N 
ATOM     20  C   UNL     1      -3.613  -6.346  -2.672  0.00  0.00    +0.251 C 
ATOM     21  O   UNL     1      -4.086  -5.276  -2.353  0.00  0.00    -0.272 OA
ATOM     22  C   UNL     1      -3.686  -7.010  -4.033  0.00  0.00    +0.135 C 
ATOM     23  N   UNL     1      -2.950  -8.271  -3.843  0.00  0.00    -0.281 N 
ATOM     24  C   UNL     1      -2.533  -8.285  -2.564  0.00  0.00    +0.310 C 
ATOM     25  O   UNL     1      -1.887  -9.190  -2.074  0.00  0.00    -0.252 OA
ATOM     26  C   UNL     1      -5.141  -7.288  -4.419  0.00  0.00    +0.047 C 
ATOM     27  H   UNL     1      -2.793  -8.957  -4.511  0.00  0.00    +0.152 HD
BRANCH  22  28
ATOM     28  C   UNL     1      -3.014  -6.155  -5.076  0.00  0.00    -0.015 A 
ATOM     29  C   UNL     1      -2.993  -4.780  -4.934  0.00  0.00    +0.007 A 
ATOM     30  C   UNL     1      -2.377  -3.995  -5.891  0.00  0.00    +0.020 A 
ATOM     31  C   UNL     1      -1.780  -4.587  -6.991  0.00  0.00    +0.041 A 
ATOM     32  C   UNL     1      -1.802  -5.963  -7.132  0.00  0.00    +0.020 A 
ATOM     33  C   UNL     1      -2.414  -6.746  -6.172  0.00  0.00    +0.007 A 
ATOM     34 CL   UNL     1      -1.007  -3.602  -8.193  0.00  0.00    -0.084 Cl
ENDBRANCH  22  28
ENDBRANCH  18  19
ENDBRANCH   9  18
TORSDOF 4
