REMARK  Name = ZINC30782452
REMARK  2 active torsions:
REMARK  status: ('A' for Active; 'I' for Inactive)
REMARK    1  A    between atoms: C_8  and  C_10
REMARK    2  A    between atoms: C_13  and  C_19
REMARK                            x       y       z     vdW  Elec       q    Type
REMARK                         _______ _______ _______ _____ _____    ______ ____
ROOT
ATOM      1  C   UNL     1       3.182  -4.010  -0.049  0.00  0.00    +0.090 C 
ATOM      2  N   UNL     1       2.269  -4.920  -0.050  0.00  0.00    -0.166 NA
ATOM      3  N   UNL     1       2.527  -6.286  -0.018  0.00  0.00    -0.186 N 
ATOM      4  C   UNL     1       1.752  -7.365  -0.329  0.00  0.00    +0.186 A 
ATOM      5  N   UNL     1       2.481  -8.441  -0.109  0.00  0.00    -0.126 NA
ATOM      6  N   UNL     1       3.655  -8.104   0.312  0.00  0.00    -0.120 NA
ATOM      7  C   UNL     1       3.738  -6.814   0.381  0.00  0.00    +0.213 A 
ATOM      8  S   UNL     1       5.068  -5.757   0.862  0.00  0.00    -0.078 S 
ATOM      9  C   UNL     1       4.665  -4.237  -0.065  0.00  0.00    +0.136 C 
ENDROOT
BRANCH   1  17
ATOM     10  C   UNL     1      -0.016   1.355   0.009  0.00  0.00    +0.001 A 
ATOM     11  C   UNL     1       1.158   2.097   0.002  0.00  0.00    +0.001 A 
ATOM     12  C   UNL     1       2.375   1.446  -0.013  0.00  0.00    +0.016 A 
ATOM     13  C   UNL     1       2.409   0.067  -0.021  0.00  0.00    +0.024 A 
ATOM     14  C   UNL     1       1.230  -0.712  -0.013  0.00  0.00    +0.037 A 
ATOM     15  C   UNL     1       0.002  -0.004   0.002  0.00  0.00    +0.013 A 
ATOM     16  C   UNL     1       1.447  -2.149  -0.023  0.00  0.00    +0.203 A 
ATOM     17  C   UNL     1       2.727  -2.619  -0.038  0.00  0.00    +0.084 A 
ATOM     18  S   UNL     1       3.713  -1.135  -0.040  0.00  0.00    -0.083 S 
ATOM     19  O   UNL     1       0.394  -3.008  -0.018  0.00  0.00    -0.286 OA
ENDBRANCH   1  17
BRANCH   4  20
ATOM     20  C   UNL     1       0.358  -7.333  -0.819  0.00  0.00    +0.021 A 
ATOM     21  C   UNL     1      -0.394  -6.161  -0.717  0.00  0.00    +0.013 A 
ATOM     22  C   UNL     1      -1.695  -6.137  -1.177  0.00  0.00    +0.016 A 
ATOM     23  C   UNL     1      -2.255  -7.272  -1.737  0.00  0.00    +0.018 A 
ATOM     24  C   UNL     1      -1.514  -8.438  -1.840  0.00  0.00    +0.016 A 
ATOM     25  C   UNL     1      -0.211  -8.473  -1.390  0.00  0.00    +0.013 A 
ATOM     26 BR   UNL     1      -4.038  -7.231  -2.364  0.00  0.00    -0.050 Br
ENDBRANCH   4  20
TORSDOF 2
