REMARK  Name = ZINC39016672
REMARK  6 active torsions:
REMARK  status: ('A' for Active; 'I' for Inactive)
REMARK    1  A    between atoms: C_4  and  N_8
REMARK    2  A    between atoms: C_9  and  C_11
REMARK    3  A    between atoms: C_11  and  S_12
REMARK    4  A    between atoms: S_12  and  C_13
REMARK    5  A    between atoms: C_16  and  C_20
REMARK    6  A    between atoms: N_18  and  N_19
REMARK                            x       y       z     vdW  Elec       q    Type
REMARK                         _______ _______ _______ _____ _____    ______ ____
ROOT
ATOM      1  C   UNL     1       6.277  -5.206   0.373  0.00  0.00    +0.189 C 
ATOM      2  N   UNL     1       7.365  -4.513   0.369  0.00  0.00    -0.161 NA
ATOM      3  N   UNL     1       8.496  -5.334   0.465  0.00  0.00    -0.243 N 
ATOM      4  C   UNL     1       7.994  -6.717   0.536  0.00  0.00    +0.222 C 
ATOM      5  N   UNL     1       6.530  -6.565   0.477  0.00  0.00    -0.223 N 
ATOM      6  H   UNL     1       9.423  -5.049   0.480  0.00  0.00    +0.170 HD
ENDROOT
BRANCH   4   7
ATOM      7  C   UNL     1       8.505  -7.535  -0.651  0.00  0.00    +0.197 C 
ATOM      8  C   UNL     1      10.014  -7.662  -0.607  0.00  0.00    -0.017 C 
ATOM      9  C   UNL     1      10.242  -8.969  -0.497  0.00  0.00    +0.065 C 
ATOM     10  C   UNL     1      11.737  -9.227  -0.441  0.00  0.00    +0.057 C 
ATOM     11  C   UNL     1      12.390  -7.929  -0.963  0.00  0.00    +0.011 C 
ATOM     12  C   UNL     1      11.301  -6.880  -0.641  0.00  0.00    +0.035 C 
ATOM     13  N   UNL     1       9.061  -9.645  -0.472  0.00  0.00    -0.158 NA
ATOM     14  N   UNL     1       8.053  -8.934  -0.554  0.00  0.00    -0.176 NA
ENDBRANCH   4   7
BRANCH   5  15
ATOM     15  N   UNL     1       5.603  -7.568   0.514  0.00  0.00    -0.250 NA
ATOM     16  H   UNL     1       4.666  -7.197   0.455  0.00  0.00    +0.141 HD
ATOM     17  H   UNL     1       5.771  -8.243  -0.216  0.00  0.00    +0.141 HD
ENDBRANCH   5  15
BRANCH   1  18
ATOM     18  S   UNL     1       4.662  -4.507   0.268  0.00  0.00    -0.078 S 
BRANCH  18  19
ATOM     19  C   UNL     1       4.963  -2.722   0.155  0.00  0.00    +0.173 C 
BRANCH  19  21
ATOM     20  N   UNL     1       3.623  -0.652  -0.036  0.00  0.00    -0.284 N 
ATOM     21  C   UNL     1       3.646  -1.996   0.058  0.00  0.00    +0.228 C 
ATOM     22  O   UNL     1       2.607  -2.622   0.065  0.00  0.00    -0.275 OA
ATOM     23  H   UNL     1       4.453  -0.157  -0.123  0.00  0.00    +0.155 HD
BRANCH  20  27
ATOM     24  C   UNL     1      -0.015   1.381   0.042  0.00  0.00    +0.021 A 
ATOM     25  C   UNL     1       1.083   1.956  -0.572  0.00  0.00    +0.023 A 
ATOM     26  C   UNL     1       2.290   1.284  -0.600  0.00  0.00    +0.062 A 
ATOM     27  C   UNL     1       2.401   0.031  -0.009  0.00  0.00    +0.053 A 
ATOM     28  C   UNL     1       1.297  -0.543   0.606  0.00  0.00    +0.044 A 
ATOM     29  C   UNL     1       0.092   0.134   0.630  0.00  0.00    +0.043 A 
ATOM     30 CL   UNL     1      -1.289  -0.583   1.401  0.00  0.00    -0.083 Cl
ATOM     31 CL   UNL     1       3.668   2.006  -1.371  0.00  0.00    -0.082 Cl
ENDBRANCH  20  27
ENDBRANCH  19  21
ENDBRANCH  18  19
ENDBRANCH   1  18
TORSDOF 6
