REMARK  Name = ZINC08050611
REMARK  7 active torsions:
REMARK  status: ('A' for Active; 'I' for Inactive)
REMARK    1  A    between atoms: C_7  and  C_11
REMARK    2  A    between atoms: C_11  and  C_13
REMARK    3  A    between atoms: C_11  and  C_27
REMARK    4  A    between atoms: C_13  and  N_14
REMARK    5  A    between atoms: N_14  and  C_15
REMARK    6  A    between atoms: C_18  and  C_24
REMARK    7  A    between atoms: C_20  and  N_21
REMARK                            x       y       z     vdW  Elec       q    Type
REMARK                         _______ _______ _______ _____ _____    ______ ____
ROOT
ATOM      1  C   UNL     1       4.292   4.675  -1.226  0.00  0.00    +0.115 C 
ENDROOT
BRANCH   1   2
ATOM      2  N   UNL     1       5.710   4.321  -1.319  0.00  0.00    -0.341 N 
ATOM      3  H   UNL     1       6.117   3.766  -0.636  0.00  0.00    +0.146 HD
BRANCH   2   4
ATOM      4  C   UNL     1       6.473   4.781  -2.387  0.00  0.00    +0.058 A 
ATOM      5  C   UNL     1       5.862   5.477  -3.428  0.00  0.00    +0.026 A 
ATOM      6  C   UNL     1       6.614   5.934  -4.486  0.00  0.00    +0.015 A 
ATOM      7  C   UNL     1       7.992   5.699  -4.515  0.00  0.00    +0.039 A 
ATOM      8  C   UNL     1       8.602   5.001  -3.469  0.00  0.00    +0.047 A 
ATOM      9  C   UNL     1       7.845   4.551  -2.411  0.00  0.00    +0.148 A 
BRANCH   7  10
ATOM     10  C   UNL     1       8.801   6.188  -5.648  0.00  0.00    +0.242 C 
ATOM     11  O   UNL     1       9.999   5.983  -5.672  0.00  0.00    -0.270 OA
ATOM     12  N   UNL     1       8.212   6.861  -6.656  0.00  0.00    -0.325 N 
ATOM     13  H   UNL     1       7.256   7.024  -6.636  0.00  0.00    +0.145 HD
ATOM     14  H   UNL     1       8.744   7.182  -7.401  0.00  0.00    +0.145 HD
ENDBRANCH   7  10
BRANCH   9  15
ATOM     15  N   UNL     1       8.491   3.816  -1.300  0.00  0.00    +0.058 N 
ATOM     16  O   UNL     1       9.703   3.706  -1.266  0.00  0.00    -0.126 OA
ATOM     17  O   UNL     1       7.809   3.320  -0.421  0.00  0.00    -0.126 OA
ENDBRANCH   9  15
ENDBRANCH   2   4
ENDBRANCH   1   2
BRANCH   1  18
ATOM     18  C   UNL     1       3.691   4.045   0.033  0.00  0.00    +0.075 C 
BRANCH  18  25
ATOM     19  C   UNL     1      -0.058   1.233   0.096  0.00  0.00    +0.001 A 
ATOM     20  C   UNL     1      -1.258   1.931   0.120  0.00  0.00    +0.002 A 
ATOM     21  C   UNL     1      -1.269   3.308   0.134  0.00  0.00    +0.026 A 
ATOM     22  C   UNL     1      -0.068   4.009   0.112  0.00  0.00    +0.047 A 
ATOM     23  C   UNL     1       1.145   3.297   0.082  0.00  0.00    +0.003 A 
ATOM     24  C   UNL     1       1.133   1.901   0.074  0.00  0.00    +0.010 A 
ATOM     25  C   UNL     1       2.207   4.306   0.065  0.00  0.00    -0.013 A 
ATOM     26  C   UNL     1       1.607   5.507   0.086  0.00  0.00    +0.088 A 
ATOM     27  N   UNL     1       0.248   5.349   0.114  0.00  0.00    -0.360 N 
ATOM     28  H   UNL     1      -0.396   6.074   0.132  0.00  0.00    +0.165 HD
ENDBRANCH  18  25
BRANCH  18  29
ATOM     29  C   UNL     1       4.334   4.651   1.253  0.00  0.00    -0.001 A 
ATOM     30  C   UNL     1       5.037   4.042   2.239  0.00  0.00    +0.012 A 
ATOM     31  C   UNL     1       5.544   4.807   3.272  0.00  0.00    +0.008 A 
ATOM     32  C   UNL     1       5.314   6.143   3.275  0.00  0.00    +0.045 A 
ATOM     33  S   UNL     1       4.361   6.357   1.781  0.00  0.00    -0.101 S 
ENDBRANCH  18  29
ENDBRANCH   1  18
TORSDOF 7
