REMARK  Name = ZINC50209182
REMARK  9 active torsions:
REMARK  status: ('A' for Active; 'I' for Inactive)
REMARK    1  A    between atoms: C_1  and  C_2
REMARK    2  A    between atoms: C_2  and  N_3
REMARK    3  A    between atoms: C_7  and  C_9
REMARK    4  A    between atoms: C_9  and  C_11
REMARK    5  A    between atoms: C_9  and  O_12
REMARK    6  A    between atoms: O_12  and  C_13
REMARK    7  A    between atoms: C_18  and  C_19
REMARK    8  A    between atoms: C_19  and  C_21
REMARK    9  A    between atoms: C_19  and  N_22
REMARK                            x       y       z     vdW  Elec       q    Type
REMARK                         _______ _______ _______ _____ _____    ______ ____
ROOT
ATOM      1  O   UNL     1       2.220  -5.466  -4.063  0.00  0.00    -0.480 OA
ENDROOT
BRANCH   1   2
ATOM      2  C   UNL     1       2.104  -6.020  -5.298  0.00  0.00    +0.123 A 
ATOM      3  C   UNL     1       2.174  -5.218  -6.428  0.00  0.00    +0.047 A 
ATOM      4  C   UNL     1       2.055  -5.783  -7.683  0.00  0.00    +0.023 A 
ATOM      5  C   UNL     1       1.867  -7.148  -7.814  0.00  0.00    +0.041 A 
ATOM      6  C   UNL     1       1.796  -7.949  -6.688  0.00  0.00    +0.025 A 
ATOM      7  C   UNL     1       1.921  -7.389  -5.431  0.00  0.00    -0.019 A 
ATOM      8 CL   UNL     1       1.718  -7.855  -9.392  0.00  0.00    -0.084 Cl
BRANCH   7   9
ATOM      9  C   UNL     1       1.851  -8.263  -4.206  0.00  0.00    -0.044 C 
ATOM     10  C   UNL     1       0.419  -8.272  -3.667  0.00  0.00    -0.009 C 
BRANCH   9  11
ATOM     11  N   UNL     1       2.251  -9.632  -4.558  0.00  0.00    +0.383 N 
ATOM     12  H   UNL     1       1.628  -9.993  -5.264  0.00  0.00    -0.089 HD
ATOM     13  H   UNL     1       3.195  -9.626  -4.913  0.00  0.00    -0.089 HD
ATOM     14  H   UNL     1       2.204 -10.217  -3.737  0.00  0.00    -0.089 HD
ENDBRANCH   9  11
ENDBRANCH   7   9
ENDBRANCH   1   2
BRANCH   1  15
ATOM     15  C   UNL     1       2.293  -4.041  -3.995  0.00  0.00    +0.256 C 
ATOM     16  C   UNL     1       3.741  -3.594  -4.204  0.00  0.00    +0.062 C 
BRANCH  15  21
ATOM     17  N   UNL     1       1.155  -0.527  -0.918  0.00  0.00    -0.299 N 
ATOM     18  C   UNL     1       1.271  -1.845  -1.176  0.00  0.00    +0.306 C 
ATOM     19  O   UNL     1       0.989  -2.659  -0.319  0.00  0.00    -0.252 OA
ATOM     20  N   UNL     1       1.699  -2.259  -2.385  0.00  0.00    -0.237 N 
ATOM     21  C   UNL     1       1.814  -3.577  -2.643  0.00  0.00    +0.261 C 
ATOM     22  O   UNL     1       1.533  -4.389  -1.788  0.00  0.00    -0.271 OA
ATOM     23  H   UNL     1       1.380   0.123  -1.602  0.00  0.00    +0.150 HD
ATOM     24  H   UNL     1       1.924  -1.609  -3.069  0.00  0.00    +0.159 HD
BRANCH  17  26
ATOM     25  C   UNL     1       0.649   1.453   0.425  0.00  0.00    +0.024 C 
ATOM     26  C   UNL     1       0.690  -0.076   0.396  0.00  0.00    +0.102 C 
ENDBRANCH  17  26
ENDBRANCH  15  21
ENDBRANCH   1  15
TORSDOF 6
