REMARK  Name = ZINC41043971
REMARK  4 active torsions:
REMARK  status: ('A' for Active; 'I' for Inactive)
REMARK    1  A    between atoms: C_2  and  N_17
REMARK    2  A    between atoms: C_5  and  S_6
REMARK    3  A    between atoms: S_6  and  N_9
REMARK    4  A    between atoms: C_13  and  O_16
REMARK                            x       y       z     vdW  Elec       q    Type
REMARK                         _______ _______ _______ _____ _____    ______ ____
ROOT
ATOM      1  S   UNL     1      -1.352  -1.131   0.009  0.00  0.00    +0.067 S 
ATOM      2  O   UNL     1      -0.863  -2.351   0.549  0.00  0.00    -0.152 OA
ATOM      3  O   UNL     1      -2.455  -0.436   0.575  0.00  0.00    -0.152 OA
ENDROOT
BRANCH   1   4
ATOM      4  N   UNL     1      -1.744  -1.436  -1.570  0.00  0.00    -0.174 NA
ATOM      5  C   UNL     1      -2.726  -0.598  -2.273  0.00  0.00    +0.109 C 
ATOM      6  C   UNL     1      -2.094  -0.081  -3.569  0.00  0.00    +0.020 C 
ATOM      7  C   UNL     1      -1.577  -1.265  -4.389  0.00  0.00    +0.034 C 
ATOM      8  C   UNL     1      -0.504  -2.010  -3.592  0.00  0.00    +0.130 C 
ATOM      9  C   UNL     1      -1.113  -2.545  -2.298  0.00  0.00    +0.140 C 
BRANCH   8  10
ATOM     10  O   UNL     1       0.000  -3.097  -4.370  0.00  0.00    -0.390 OA
ATOM     11  H   UNL     1       0.402  -2.828  -5.208  0.00  0.00    +0.210 HD
ENDBRANCH   8  10
ENDBRANCH   1   4
BRANCH   1  16
ATOM     12  C   UNL     1      -0.016   1.351   0.009  0.00  0.00    +0.059 A 
ATOM     13  C   UNL     1       1.187   2.039   0.002  0.00  0.00    +0.034 A 
ATOM     14  C   UNL     1       2.346   1.331  -0.013  0.00  0.00    +0.069 A 
ATOM     15  S   UNL     1       1.753  -0.352  -0.017  0.00  0.00    -0.075 S 
ATOM     16  C   UNL     1       0.002  -0.004   0.002  0.00  0.00    +0.144 A 
BRANCH  13  17
ATOM     17  N   UNL     1       1.207   3.447   0.009  0.00  0.00    -0.358 N 
ATOM     18  H   UNL     1       0.374   3.944   0.019  0.00  0.00    +0.142 HD
ATOM     19  H   UNL     1       2.054   3.920   0.003  0.00  0.00    +0.142 HD
ENDBRANCH  13  17
ENDBRANCH   1  16
TORSDOF 4
