REMARK  Name = ZINC47588235
REMARK  10 active torsions:
REMARK  status: ('A' for Active; 'I' for Inactive)
REMARK    1  A    between atoms: C_1  and  C_2
REMARK    2  A    between atoms: C_2  and  C_3
REMARK    3  A    between atoms: C_2  and  C_4
REMARK    4  A    between atoms: C_2  and  N_5
REMARK    5  A    between atoms: C_6  and  C_8
REMARK    6  A    between atoms: C_12  and  N_14
REMARK    7  A    between atoms: N_17  and  C_18
REMARK    8  A    between atoms: C_18  and  C_19
REMARK    9  A    between atoms: N_21  and  C_22
REMARK   10  A    between atoms: C_26  and  C_28
REMARK                            x       y       z     vdW  Elec       q    Type
REMARK                         _______ _______ _______ _____ _____    ______ ____
ROOT
ATOM      1  N   UNL     1       6.211  -0.922  -4.256  0.00  0.00    -0.269 N 
ATOM      2  C   UNL     1       6.940  -0.436  -3.232  0.00  0.00    +0.304 C 
ATOM      3  O   UNL     1       6.476  -0.420  -2.109  0.00  0.00    -0.252 OA
ATOM      4  N   UNL     1       8.184   0.033  -3.454  0.00  0.00    -0.291 N 
ATOM      5  H   UNL     1       6.607  -1.006  -5.137  0.00  0.00    +0.156 HD
ATOM      6  H   UNL     1       8.554   0.021  -4.351  0.00  0.00    +0.151 HD
ENDROOT
BRANCH   1  11
ATOM      7  C   UNL     1       2.773  -1.009  -2.926  0.00  0.00    +0.038 A 
ATOM      8  C   UNL     1       2.246  -2.083  -3.646  0.00  0.00    +0.013 A 
ATOM      9  C   UNL     1       3.034  -2.757  -4.556  0.00  0.00    +0.003 A 
ATOM     10  C   UNL     1       4.347  -2.373  -4.759  0.00  0.00    +0.023 A 
ATOM     11  C   UNL     1       4.881  -1.306  -4.047  0.00  0.00    +0.035 A 
ATOM     12  C   UNL     1       4.096  -0.619  -3.135  0.00  0.00    +0.036 A 
BRANCH   7  14
ATOM     13  N   UNL     1       0.654  -0.665  -1.750  0.00  0.00    -0.307 N 
ATOM     14  C   UNL     1       1.931  -0.285  -1.950  0.00  0.00    +0.245 C 
ATOM     15  O   UNL     1       2.391   0.652  -1.328  0.00  0.00    -0.270 OA
ATOM     16  H   UNL     1       0.287  -1.413  -2.247  0.00  0.00    +0.150 HD
BRANCH  13  18
ATOM     17  C   UNL     1      -0.292   1.522  -1.196  0.00  0.00    +0.031 C 
ATOM     18  C   UNL     1      -0.181   0.053  -0.783  0.00  0.00    +0.026 C 
ATOM     19  C   UNL     1       0.454  -0.040   0.606  0.00  0.00    +0.031 C 
ATOM     20  C   UNL     1      -1.576  -0.574  -0.749  0.00  0.00    +0.031 C 
ENDBRANCH  13  18
ENDBRANCH   7  14
ENDBRANCH   1  11
BRANCH   4  21
ATOM     21  C   UNL     1       8.977   0.562  -2.342  0.00  0.00    +0.202 C 
BRANCH  21  22
ATOM     22  C   UNL     1      10.319   1.018  -2.853  0.00  0.00    +0.234 C 
ATOM     23  O   UNL     1      10.587   0.913  -4.032  0.00  0.00    -0.274 OA
ATOM     24  N   UNL     1      11.222   1.544  -2.002  0.00  0.00    -0.284 N 
ATOM     25  H   UNL     1      11.037   1.563  -1.050  0.00  0.00    +0.155 HD
BRANCH  24  26
ATOM     26  C   UNL     1      12.426   2.063  -2.491  0.00  0.00    +0.035 A 
ATOM     27  C   UNL     1      13.587   1.955  -1.735  0.00  0.00    +0.023 A 
ATOM     28  C   UNL     1      14.779   2.466  -2.214  0.00  0.00    +0.003 A 
ATOM     29  C   UNL     1      14.823   3.086  -3.446  0.00  0.00    +0.017 A 
ATOM     30  C   UNL     1      13.663   3.199  -4.213  0.00  0.00    +0.026 A 
ATOM     31  C   UNL     1      12.462   2.679  -3.732  0.00  0.00    +0.040 A 
BRANCH  30  32
ATOM     32  C   UNL     1      13.707   3.841  -5.492  0.00  0.00    -0.070 C 
ATOM     33  C   UNL     1      13.743   4.368  -6.540  0.00  0.00    +0.009 C 
ENDBRANCH  30  32
ENDBRANCH  24  26
ENDBRANCH  21  22
ENDBRANCH   4  21
TORSDOF 7
