REMARK  Name = ZINC64652783
REMARK  4 active torsions:
REMARK  status: ('A' for Active; 'I' for Inactive)
REMARK    1  A    between atoms: C_1  and  C_2
REMARK    2  A    between atoms: C_4  and  C_7
REMARK    3  A    between atoms: C_7  and  S_8
REMARK    4  A    between atoms: S_8  and  C_9
REMARK                            x       y       z     vdW  Elec       q    Type
REMARK                         _______ _______ _______ _____ _____    ______ ____
ROOT
ATOM      1  C   UNL     1      -2.873  -5.286  -1.556  0.00  0.00    +0.182 C 
ATOM      2  N   UNL     1      -3.158  -5.693  -0.330  0.00  0.00    -0.155 NA
ATOM      3  C   UNL     1      -3.917  -6.763  -0.101  0.00  0.00    +0.245 C 
ATOM      4  O   UNL     1      -4.173  -7.129   1.030  0.00  0.00    -0.273 OA
ATOM      5  C   UNL     1      -4.449  -7.507  -1.312  0.00  0.00    +0.169 C 
ATOM      6  C   UNL     1      -4.055  -6.944  -2.665  0.00  0.00    +0.104 C 
ATOM      7  N   UNL     1      -3.298  -5.870  -2.677  0.00  0.00    -0.213 NA
ATOM      8  N   UNL     1      -4.470  -7.522  -3.813  0.00  0.00    -0.346 N 
ATOM      9  H   UNL     1      -5.031  -8.313  -3.783  0.00  0.00    +0.143 HD
ATOM     10  H   UNL     1      -4.206  -7.147  -4.668  0.00  0.00    +0.143 HD
ENDROOT
BRANCH   1  11
ATOM     11  S   UNL     1      -1.858  -3.855  -1.721  0.00  0.00    -0.082 S 
BRANCH  11  12
ATOM     12  C   UNL     1      -1.500  -3.372  -0.010  0.00  0.00    +0.136 C 
BRANCH  12  16
ATOM     13  C   UNL     1      -0.018   1.503   0.010  0.00  0.00    +0.089 C 
ATOM     14  C   UNL     1       0.002  -0.004   0.002  0.00  0.00    +0.134 A 
ATOM     15  C   UNL     1      -1.077  -0.810   0.003  0.00  0.00    +0.071 A 
ATOM     16  C   UNL     1      -0.627  -2.143  -0.007  0.00  0.00    +0.094 A 
ATOM     17  N   UNL     1       0.676  -2.130  -0.013  0.00  0.00    -0.082 NA
ATOM     18  O   UNL     1       1.098  -0.778  -0.013  0.00  0.00    -0.360 OA
ENDBRANCH  12  16
ENDBRANCH  11  12
ENDBRANCH   1  11
TORSDOF 3
