REMARK  Name = ZINC53060924
REMARK  8 active torsions:
REMARK  status: ('A' for Active; 'I' for Inactive)
REMARK    1  A    between atoms: C_1  and  C_2
REMARK    2  A    between atoms: C_2  and  C_3
REMARK    3  A    between atoms: C_9  and  C_11
REMARK    4  A    between atoms: C_15  and  N_17
REMARK    5  A    between atoms: C_18  and  C_20
REMARK    6  A    between atoms: C_21  and  C_25
REMARK    7  A    between atoms: C_25  and  C_26
REMARK    8  A    between atoms: C_25  and  C_27
REMARK                            x       y       z     vdW  Elec       q    Type
REMARK                         _______ _______ _______ _____ _____    ______ ____
ROOT
ATOM      1  C   UNL     1      -0.216  -1.337  -4.684  0.00  0.00    +0.019 A 
ATOM      2  C   UNL     1       0.436  -1.620  -5.887  0.00  0.00    +0.011 A 
ATOM      3  C   UNL     1      -0.259  -1.565  -7.077  0.00  0.00    +0.002 A 
ATOM      4  C   UNL     1      -1.600  -1.229  -7.086  0.00  0.00    +0.023 A 
ATOM      5  C   UNL     1      -2.258  -0.945  -5.895  0.00  0.00    +0.034 A 
ATOM      6  C   UNL     1      -1.570  -1.003  -4.692  0.00  0.00    +0.034 A 
ENDROOT
BRANCH   1  13
ATOM      7  C   UNL     1       0.526  -1.173  -1.109  0.00  0.00    +0.048 A 
ATOM      8  C   UNL     1       1.851  -1.495  -1.054  0.00  0.00    +0.093 A 
ATOM      9  C   UNL     1       2.533  -1.780  -2.253  0.00  0.00    +0.252 A 
ATOM     10  O   UNL     1       3.717  -2.071  -2.241  0.00  0.00    -0.268 OA
ATOM     11  N   UNL     1       1.849  -1.724  -3.416  0.00  0.00    -0.307 N 
ATOM     12  H   UNL     1       2.297  -1.917  -4.255  0.00  0.00    +0.170 HD
ATOM     13  C   UNL     1       0.526  -1.396  -3.408  0.00  0.00    +0.141 A 
ATOM     14  N   UNL     1      -0.104  -1.136  -2.281  0.00  0.00    -0.234 NA
BRANCH   7  16
ATOM     15  C   UNL     1      -0.248   0.649   0.384  0.00  0.00    +0.010 C 
ATOM     16  C   UNL     1      -0.226  -0.864   0.160  0.00  0.00    +0.052 C 
ENDBRANCH   7  16
ENDBRANCH   1  13
BRANCH   5  17
ATOM     17  N   UNL     1      -3.614  -0.605  -5.909  0.00  0.00    -0.281 N 
ATOM     18  C   UNL     1      -4.099   0.270  -5.006  0.00  0.00    +0.255 C 
ATOM     19  O   UNL     1      -3.341   0.838  -4.241  0.00  0.00    -0.269 OA
ATOM     20  H   UNL     1      -4.206  -1.000  -6.568  0.00  0.00    +0.155 HD
BRANCH  18  21
ATOM     21  C   UNL     1      -5.539   0.539  -4.945  0.00  0.00    +0.078 A 
ATOM     22  C   UNL     1      -6.233   1.397  -4.106  0.00  0.00    -0.026 A 
ATOM     23  C   UNL     1      -7.595   1.437  -4.288  0.00  0.00    +0.012 A 
ATOM     24  C   UNL     1      -8.155   0.659  -5.247  0.00  0.00    +0.046 A 
ATOM     25  S   UNL     1      -6.852  -0.146  -5.937  0.00  0.00    -0.092 S 
BRANCH  22  26
ATOM     26  C   UNL     1      -5.539   2.232  -3.061  0.00  0.00    +0.014 C 
ATOM     27  C   UNL     1      -5.801   3.714  -3.335  0.00  0.00    +0.012 C 
ATOM     28  C   UNL     1      -6.078   1.867  -1.676  0.00  0.00    +0.012 C 
ENDBRANCH  22  26
ENDBRANCH  18  21
ENDBRANCH   5  17
TORSDOF 5
