REMARK  Name = ZINC03553443
REMARK  4 active torsions:
REMARK  status: ('A' for Active; 'I' for Inactive)
REMARK    1  A    between atoms: C_9  and  S_13
REMARK    2  A    between atoms: S_13  and  C_14
REMARK    3  A    between atoms: C_14  and  C_15
REMARK    4  A    between atoms: N_17  and  C_18
REMARK                            x       y       z     vdW  Elec       q    Type
REMARK                         _______ _______ _______ _____ _____    ______ ____
ROOT
ATOM      1  C   UNL     1       2.233   4.706  -0.070  0.00  0.00    +0.005 C 
ATOM      2  C   UNL     1       1.911   5.884   0.854  0.00  0.00    +0.005 C 
ATOM      3  C   UNL     1       0.534   6.446   0.474  0.00  0.00    +0.043 C 
ATOM      4  C   UNL     1      -0.425   5.302   0.346  0.00  0.00    -0.004 A 
ATOM      5  C   UNL     1      -0.125   3.992   0.250  0.00  0.00    -0.025 A 
ATOM      6  C   UNL     1      -1.249   3.059   0.138  0.00  0.00    +0.051 A 
ATOM      7  C   UNL     1      -1.218   1.641   0.017  0.00  0.00    +0.129 A 
ATOM      8  N   UNL     1      -2.357   0.976  -0.081  0.00  0.00    -0.207 NA
ATOM      9  C   UNL     1      -3.535   1.589  -0.075  0.00  0.00    +0.191 A 
ATOM     10  N   UNL     1      -3.623   2.909   0.031  0.00  0.00    -0.214 NA
ATOM     11  C   UNL     1      -2.531   3.642   0.132  0.00  0.00    +0.115 A 
ATOM     12  S   UNL     1      -2.196   5.377   0.287  0.00  0.00    -0.073 S 
ATOM     13  N   UNL     1      -0.011   0.966   0.007  0.00  0.00    -0.343 N 
ATOM     14  C   UNL     1       1.327   3.521   0.265  0.00  0.00    +0.037 C 
ATOM     15  H   UNL     1       0.029   0.048  -0.305  0.00  0.00    +0.144 HD
ATOM     16  H   UNL     1       0.796   1.411   0.309  0.00  0.00    +0.144 HD
ENDROOT
BRANCH   9  17
ATOM     17  S   UNL     1      -5.008   0.632  -0.210  0.00  0.00    -0.077 S 
BRANCH  17  18
ATOM     18  C   UNL     1      -4.295  -1.028  -0.320  0.00  0.00    +0.173 C 
BRANCH  18  19
ATOM     19  C   UNL     1      -5.403  -2.042  -0.446  0.00  0.00    +0.224 C 
ATOM     20  O   UNL     1      -6.560  -1.679  -0.460  0.00  0.00    -0.275 OA
ATOM     21  N   UNL     1      -5.107  -3.354  -0.544  0.00  0.00    -0.310 N 
ATOM     22  H   UNL     1      -4.182  -3.644  -0.533  0.00  0.00    +0.149 HD
BRANCH  21  23
ATOM     23  C   UNL     1      -6.184  -4.340  -0.666  0.00  0.00    +0.095 C 
ATOM     24  C   UNL     1      -6.683  -4.740   0.732  0.00  0.00    +0.046 C 
ATOM     25  C   UNL     1      -7.580  -5.997   0.632  0.00  0.00    +0.168 C 
ATOM     26  S   UNL     1      -6.921  -6.846  -0.860  0.00  0.00    -0.029 S 
ATOM     27  O   UNL     1      -7.939  -6.897  -1.850  0.00  0.00    -0.174 OA
ATOM     28  O   UNL     1      -6.273  -8.046  -0.462  0.00  0.00    -0.174 OA
ATOM     29  C   UNL     1      -5.647  -5.617  -1.373  0.00  0.00    +0.188 C 
ENDBRANCH  21  23
ENDBRANCH  18  19
ENDBRANCH  17  18
ENDBRANCH   9  17
TORSDOF 4
