REMARK  Name = ZINC19124361
REMARK  11 active torsions:
REMARK  status: ('A' for Active; 'I' for Inactive)
REMARK    1  A    between atoms: C_1  and  O_2
REMARK    2  A    between atoms: O_2  and  C_3
REMARK    3  A    between atoms: C_3  and  C_4
REMARK    4  A    between atoms: C_4  and  N_5
REMARK    5  A    between atoms: C_6  and  C_8
REMARK    6  A    between atoms: C_12  and  N_13
REMARK    7  A    between atoms: C_14  and  C_16
REMARK    8  A    between atoms: C_16  and  O_17
REMARK    9  A    between atoms: O_17  and  C_18
REMARK   10  A    between atoms: C_18  and  C_20
REMARK   11  A    between atoms: C_25  and  N_26
REMARK                            x       y       z     vdW  Elec       q    Type
REMARK                         _______ _______ _______ _____ _____    ______ ____
ROOT
ATOM      1  N   UNL     1       0.054   1.708   1.991  0.00  0.00    -0.277 N 
ATOM      2  C   UNL     1       1.202   2.351   1.697  0.00  0.00    +0.255 C 
ATOM      3  O   UNL     1       2.266   1.784   1.830  0.00  0.00    -0.272 OA
ATOM      4  H   UNL     1      -0.796   2.161   1.881  0.00  0.00    +0.155 HD
ENDROOT
BRANCH   1   9
ATOM      5  C   UNL     1      -0.973  -0.420   2.800  0.00  0.00    +0.069 A 
ATOM      6  C   UNL     1      -0.663  -1.768   3.244  0.00  0.00    -0.023 A 
ATOM      7  C   UNL     1       0.652  -2.076   3.272  0.00  0.00    -0.004 A 
ATOM      8  S   UNL     1       1.472  -0.611   2.712  0.00  0.00    -0.077 S 
ATOM      9  C   UNL     1       0.090   0.399   2.444  0.00  0.00    +0.084 A 
ATOM     10  C   UNL     1       1.266  -3.377   3.689  0.00  0.00    +0.043 C 
ATOM     11  C   UNL     1       0.205  -4.194   4.440  0.00  0.00    +0.005 C 
ATOM     12  C   UNL     1      -1.093  -4.183   3.627  0.00  0.00    +0.005 C 
ATOM     13  C   UNL     1      -1.716  -2.786   3.663  0.00  0.00    +0.037 C 
BRANCH   5  15
ATOM     14  N   UNL     1      -2.920   0.659   3.792  0.00  0.00    -0.309 N 
ATOM     15  C   UNL     1      -2.357   0.057   2.726  0.00  0.00    +0.247 C 
ATOM     16  O   UNL     1      -2.998  -0.092   1.702  0.00  0.00    -0.270 OA
ATOM     17  H   UNL     1      -2.409   0.777   4.608  0.00  0.00    +0.149 HD
BRANCH  14  18
ATOM     18  C   UNL     1      -4.304   1.135   3.718  0.00  0.00    +0.132 C 
BRANCH  18  19
ATOM     19  C   UNL     1      -4.695   1.775   5.052  0.00  0.00    +0.178 C 
BRANCH  19  21
ATOM     20  C   UNL     1      -4.191   3.622   6.495  0.00  0.00    +0.194 C 
ATOM     21  O   UNL     1      -3.903   2.945   5.270  0.00  0.00    -0.381 OA
ENDBRANCH  19  21
ENDBRANCH  18  19
ENDBRANCH  14  18
ENDBRANCH   5  15
ENDBRANCH   1   9
BRANCH   2  22
ATOM     22  C   UNL     1       1.163   3.775   1.204  0.00  0.00    +0.328 C 
BRANCH  22  23
ATOM     23  O   UNL     1       2.517   4.239   0.960  0.00  0.00    -0.452 OA
BRANCH  23  24
ATOM     24  C   UNL     1       2.659   5.502   0.512  0.00  0.00    +0.341 C 
ATOM     25  O   UNL     1       1.679   6.197   0.330  0.00  0.00    -0.245 OA
BRANCH  24  26
ATOM     26  C   UNL     1       4.003   6.041   0.242  0.00  0.00    +0.080 A 
ATOM     27  C   UNL     1       5.124   5.211   0.330  0.00  0.00    +0.018 A 
ATOM     28  C   UNL     1       6.378   5.720   0.077  0.00  0.00    +0.021 A 
ATOM     29  C   UNL     1       6.536   7.056  -0.265  0.00  0.00    +0.043 A 
ATOM     30  C   UNL     1       5.438   7.889  -0.356  0.00  0.00    +0.043 A 
ATOM     31  C   UNL     1       4.165   7.391  -0.110  0.00  0.00    +0.040 A 
ATOM     32 CL   UNL     1       8.123   7.684  -0.581  0.00  0.00    -0.083 Cl
BRANCH  31  33
ATOM     33  N   UNL     1       3.059   8.225  -0.206  0.00  0.00    -0.357 N 
ATOM     34  H   UNL     1       2.244   8.007   0.273  0.00  0.00    +0.142 HD
ATOM     35  H   UNL     1       3.101   9.025  -0.752  0.00  0.00    +0.142 HD
ENDBRANCH  31  33
ENDBRANCH  24  26
ENDBRANCH  23  24
ENDBRANCH  22  23
ENDBRANCH   2  22
TORSDOF 10
