REMARK  Name = ZINC49794757
REMARK  9 active torsions:
REMARK  status: ('A' for Active; 'I' for Inactive)
REMARK    1  A    between atoms: C_1  and  C_2
REMARK    2  A    between atoms: C_2  and  N_3
REMARK    3  A    between atoms: N_3  and  C_4
REMARK    4  A    between atoms: N_3  and  C_6
REMARK    5  A    between atoms: C_4  and  C_5
REMARK    6  A    between atoms: C_6  and  C_8
REMARK    7  A    between atoms: C_6  and  C_20
REMARK    8  A    between atoms: C_8  and  N_9
REMARK    9  A    between atoms: N_12  and  N_13
REMARK                            x       y       z     vdW  Elec       q    Type
REMARK                         _______ _______ _______ _____ _____    ______ ____
ROOT
ATOM      1  C   UNL     1       1.168  -0.644  -3.264  0.00  0.00    +0.095 C 
ENDROOT
BRANCH   1   2
ATOM      2  N   UNL     1       1.223  -2.080  -2.979  0.00  0.00    -0.299 N 
ATOM      3  C   UNL     1       2.293  -2.803  -3.364  0.00  0.00    +0.316 C 
ATOM      4  O   UNL     1       3.255  -2.249  -3.860  0.00  0.00    -0.251 OA
ATOM      5  N   UNL     1       2.297  -4.141  -3.200  0.00  0.00    -0.218 N 
ATOM      6  H   UNL     1       0.488  -2.510  -2.514  0.00  0.00    +0.150 HD
ATOM      7  H   UNL     1       3.096  -4.652  -3.403  0.00  0.00    +0.174 HD
BRANCH   5   8
ATOM      8  N   UNL     1       1.147  -4.793  -2.736  0.00  0.00    -0.231 N 
ATOM      9  C   UNL     1       1.182  -6.150  -2.466  0.00  0.00    +0.232 A 
ATOM     10  N   UNL     1       2.313  -6.816  -2.647  0.00  0.00    -0.222 NA
ATOM     11  C   UNL     1       2.380  -8.114  -2.399  0.00  0.00    +0.116 A 
ATOM     12  C   UNL     1       1.250  -8.775  -1.944  0.00  0.00    +0.039 A 
ATOM     13  C   UNL     1       0.084  -8.048  -1.766  0.00  0.00    +0.116 A 
ATOM     14  N   UNL     1       0.086  -6.751  -2.028  0.00  0.00    -0.222 NA
ATOM     15  H   UNL     1       0.326  -4.293  -2.603  0.00  0.00    +0.173 HD
ENDBRANCH   5   8
ENDBRANCH   1   2
BRANCH   1  16
ATOM     16  C   UNL     1      -0.155  -0.072  -2.750  0.00  0.00    -0.019 C 
BRANCH  16  17
ATOM     17  C   UNL     1      -0.088   1.433  -2.760  0.00  0.00    -0.041 A 
ATOM     18  C   UNL     1       0.854   2.089  -1.990  0.00  0.00    +0.003 A 
ATOM     19  C   UNL     1       0.914   3.470  -1.998  0.00  0.00    +0.000 A 
ATOM     20  C   UNL     1       0.033   4.196  -2.778  0.00  0.00    +0.001 A 
ATOM     21  C   UNL     1      -0.909   3.542  -3.549  0.00  0.00    +0.020 A 
ATOM     22  C   UNL     1      -0.967   2.159  -3.545  0.00  0.00    +0.043 A 
ATOM     23 CL   UNL     1      -2.146   1.337  -4.518  0.00  0.00    -0.083 Cl
ENDBRANCH  16  17
BRANCH  16  24
ATOM     24  N   UNL     1      -0.392  -0.543  -1.379  0.00  0.00    +0.385 N 
ATOM     25  H   UNL     1      -0.687  -1.508  -1.401  0.00  0.00    -0.081 HD
BRANCH  24  27
ATOM     26  C   UNL     1       0.968  -1.624   0.347  0.00  0.00    -0.017 C 
ATOM     27  C   UNL     1       0.848  -0.428  -0.600  0.00  0.00    -0.081 C 
ENDBRANCH  24  27
BRANCH  24  28
ATOM     28  C   UNL     1      -1.440   0.276  -0.755  0.00  0.00    -0.081 C 
ATOM     29  C   UNL     1      -2.768   0.042  -1.478  0.00  0.00    -0.017 C 
ENDBRANCH  24  28
ENDBRANCH  16  24
ENDBRANCH   1  16
TORSDOF 7
