REMARK  Name = ZINC02564247
REMARK  7 active torsions:
REMARK  status: ('A' for Active; 'I' for Inactive)
REMARK    1  A    between atoms: C_1  and  C_2
REMARK    2  A    between atoms: C_2  and  N_3
REMARK    3  A    between atoms: C_5  and  C_9
REMARK    4  A    between atoms: C_6  and  C_8
REMARK    5  A    between atoms: C_11  and  C_22
REMARK    6  A    between atoms: C_15  and  N_21
REMARK    7  A    between atoms: C_16  and  C_18
REMARK                            x       y       z     vdW  Elec       q    Type
REMARK                         _______ _______ _______ _____ _____    ______ ____
ROOT
ATOM      1  C   UNL     1      -2.629   1.735  -0.192  0.00  0.00    -0.001 A 
ATOM      2  C   UNL     1      -3.184   2.847  -0.812  0.00  0.00    +0.038 A 
ATOM      3  C   UNL     1      -4.173   2.691  -1.765  0.00  0.00    +0.108 A 
ATOM      4  N   UNL     1      -4.609   1.488  -2.090  0.00  0.00    -0.239 NA
ATOM      5  C   UNL     1      -4.122   0.400  -1.532  0.00  0.00    +0.112 A 
ATOM      6  C   UNL     1      -3.107   0.439  -0.551  0.00  0.00    +0.037 A 
ATOM      7  C   UNL     1      -2.688  -0.855  -0.042  0.00  0.00    +0.054 A 
ATOM      8  C   UNL     1      -3.300  -1.984  -0.543  0.00  0.00    +0.097 A 
ATOM      9  S   UNL     1      -4.464  -1.332  -1.724  0.00  0.00    -0.062 S 
ENDROOT
BRANCH   1  12
ATOM     10  N   UNL     1      -0.507   2.402   2.674  0.00  0.00    -0.271 N 
ATOM     11  C   UNL     1      -1.709   2.445   2.067  0.00  0.00    +0.117 A 
ATOM     12  C   UNL     1      -1.564   1.892   0.826  0.00  0.00    +0.023 A 
ATOM     13  C   UNL     1      -0.218   1.495   0.693  0.00  0.00    +0.068 A 
ATOM     14  N   UNL     1       0.407   1.806   1.797  0.00  0.00    -0.176 NA
ATOM     15  C   UNL     1       0.395   0.834  -0.515  0.00  0.00    +0.068 C 
BRANCH  10  17
ATOM     16  C   UNL     1       0.422   1.773   4.847  0.00  0.00    +0.029 C 
ATOM     17  C   UNL     1      -0.207   2.896   4.020  0.00  0.00    +0.140 C 
ENDBRANCH  10  17
ENDBRANCH   1  12
BRANCH   8  18
ATOM     18  C   UNL     1      -3.059  -3.338  -0.203  0.00  0.00    +0.250 C 
ATOM     19  O   UNL     1      -2.218  -3.616   0.633  0.00  0.00    -0.270 OA
ATOM     20  N   UNL     1      -3.761  -4.319  -0.804  0.00  0.00    -0.325 N 
ATOM     21  H   UNL     1      -4.431  -4.098  -1.470  0.00  0.00    +0.145 HD
ATOM     22  H   UNL     1      -3.597  -5.246  -0.571  0.00  0.00    +0.145 HD
ENDBRANCH   8  18
BRANCH   7  23
ATOM     23  N   UNL     1      -1.698  -0.952   0.926  0.00  0.00    -0.356 N 
ATOM     24  H   UNL     1      -1.484  -0.185   1.480  0.00  0.00    +0.142 HD
ATOM     25  H   UNL     1      -1.219  -1.787   1.048  0.00  0.00    +0.142 HD
ENDBRANCH   7  23
BRANCH   3  26
ATOM     26  C   UNL     1      -4.763   3.905  -2.435  0.00  0.00    +0.390 C 
ATOM     27  F   UNL     1      -5.342   4.735  -1.469  0.00  0.00    -0.202 F 
ATOM     28  F   UNL     1      -3.755   4.604  -3.106  0.00  0.00    -0.202 F 
ENDBRANCH   3  26
TORSDOF 5
