REMARK  Name = ZINC67000592
REMARK  8 active torsions:
REMARK  status: ('A' for Active; 'I' for Inactive)
REMARK    1  A    between atoms: C_1  and  C_2
REMARK    2  A    between atoms: C_2  and  C_3
REMARK    3  A    between atoms: N_5  and  C_6
REMARK    4  A    between atoms: C_10  and  N_12
REMARK    5  A    between atoms: C_13  and  C_15
REMARK    6  A    between atoms: N_17  and  C_18
REMARK    7  A    between atoms: C_18  and  C_19
REMARK    8  A    between atoms: C_19  and  O_29
REMARK                            x       y       z     vdW  Elec       q    Type
REMARK                         _______ _______ _______ _____ _____    ______ ____
ROOT
ATOM      1  C   UNL     1       2.981  -7.244   5.861  0.00  0.00    +0.299 C 
ATOM      2  O   UNL     1       2.755  -8.062   4.993  0.00  0.00    -0.265 OA
ATOM      3  N   UNL     1       3.513  -7.637   7.035  0.00  0.00    -0.305 N 
ATOM      4  H   UNL     1       3.694  -6.983   7.728  0.00  0.00    +0.149 HD
ENDROOT
BRANCH   1   6
ATOM      5  N   UNL     1       2.135  -5.410   4.453  0.00  0.00    -0.278 N 
ATOM      6  C   UNL     1       2.668  -5.803   5.628  0.00  0.00    +0.303 C 
ATOM      7  O   UNL     1       2.893  -4.985   6.495  0.00  0.00    -0.265 OA
ATOM      8  H   UNL     1       2.017  -6.052   3.736  0.00  0.00    +0.155 HD
BRANCH   5  13
ATOM      9  C   UNL     1       0.260  -2.453   3.323  0.00  0.00    +0.035 A 
ATOM     10  C   UNL     1       1.001  -1.435   3.911  0.00  0.00    +0.023 A 
ATOM     11  C   UNL     1       2.112  -1.740   4.674  0.00  0.00    +0.004 A 
ATOM     12  C   UNL     1       2.490  -3.056   4.855  0.00  0.00    +0.023 A 
ATOM     13  C   UNL     1       1.752  -4.079   4.270  0.00  0.00    +0.036 A 
ATOM     14  C   UNL     1       0.632  -3.776   3.508  0.00  0.00    +0.046 A 
BRANCH   9  17
ATOM     15  C   UNL     1      -1.940  -2.955   2.570  0.00  0.00    +0.217 C 
ATOM     16  O   UNL     1      -1.903  -3.997   3.190  0.00  0.00    -0.275 OA
ATOM     17  N   UNL     1      -0.865  -2.143   2.550  0.00  0.00    -0.285 N 
ATOM     18  H   UNL     1      -0.870  -1.344   2.000  0.00  0.00    +0.155 HD
BRANCH  15  20
ATOM     19  C   UNL     1      -4.251  -3.655   2.006  0.00  0.00    +0.013 C 
ATOM     20  C   UNL     1      -3.190  -2.569   1.821  0.00  0.00    +0.093 C 
ENDBRANCH  15  20
ENDBRANCH   9  17
ENDBRANCH   5  13
ENDBRANCH   1   6
BRANCH   3  21
ATOM     21  C   UNL     1       3.820  -9.051   7.263  0.00  0.00    +0.144 C 
BRANCH  21  22
ATOM     22  C   UNL     1       4.297  -9.243   8.704  0.00  0.00    +0.107 C 
ATOM     23  C   UNL     1       5.511  -8.350   8.956  0.00  0.00    +0.041 C 
ATOM     24  C   UNL     1       6.104  -8.714  10.322  0.00  0.00    +0.008 C 
ATOM     25  C   UNL     1       6.741 -10.098  10.217  0.00  0.00    +0.035 C 
ATOM     26  C   UNL     1       5.771 -11.083   9.620  0.00  0.00    -0.041 A 
ATOM     27  C   UNL     1       4.651 -10.691   8.922  0.00  0.00    -0.011 A 
ATOM     28  C   UNL     1       3.800 -11.651   8.391  0.00  0.00    +0.007 A 
ATOM     29  C   UNL     1       4.067 -12.995   8.560  0.00  0.00    +0.000 A 
ATOM     30  C   UNL     1       5.189 -13.388   9.264  0.00  0.00    +0.000 A 
ATOM     31  C   UNL     1       6.037 -12.436   9.790  0.00  0.00    +0.004 A 
BRANCH  22  32
ATOM     32  O   UNL     1       3.248  -8.874   9.601  0.00  0.00    -0.382 OA
ATOM     33  H   UNL     1       2.439  -9.394   9.495  0.00  0.00    +0.211 HD
ENDBRANCH  22  32
ENDBRANCH  21  22
ENDBRANCH   3  21
TORSDOF 7
