REMARK  Name = ZINC57933251
REMARK  4 active torsions:
REMARK  status: ('A' for Active; 'I' for Inactive)
REMARK    1  A    between atoms: C_1  and  C_2
REMARK    2  A    between atoms: C_2  and  C_3
REMARK    3  A    between atoms: N_7  and  C_17
REMARK    4  A    between atoms: C_17  and  C_18
REMARK                            x       y       z     vdW  Elec       q    Type
REMARK                         _______ _______ _______ _____ _____    ______ ____
ROOT
ATOM      1  C   UNL     1      -1.389  -0.584  -0.203  0.00  0.00    +0.157 C 
ATOM      2  C   UNL     1      -1.368  -2.091  -0.247  0.00  0.00    +0.240 C 
ATOM      3  O   UNL     1      -1.366  -2.660  -1.318  0.00  0.00    -0.273 OA
ATOM      4  N   UNL     1      -1.351  -2.812   0.889  0.00  0.00    -0.264 N 
ATOM      5  C   UNL     1      -1.495  -2.191   2.137  0.00  0.00    +0.060 A 
ATOM      6  C   UNL     1      -1.276  -2.901   3.307  0.00  0.00    +0.066 A 
ATOM      7  C   UNL     1      -1.414  -2.271   4.532  0.00  0.00    +0.160 A 
ATOM      8  C   UNL     1      -1.770  -0.933   4.594  0.00  0.00    +0.160 A 
ATOM      9  C   UNL     1      -1.993  -0.218   3.428  0.00  0.00    +0.066 A 
ATOM     10  C   UNL     1      -1.860  -0.846   2.202  0.00  0.00    +0.052 A 
ATOM     11  N   UNL     1      -2.102  -0.148   1.006  0.00  0.00    -0.331 N 
ATOM     12  F   UNL     1      -1.899  -0.324   5.793  0.00  0.00    -0.202 F 
ATOM     13  F   UNL     1      -1.201  -2.964   5.672  0.00  0.00    -0.202 F 
ATOM     14  H   UNL     1      -2.721   0.599   0.978  0.00  0.00    +0.147 HD
ENDROOT
BRANCH   1  16
ATOM     15  C   UNL     1       0.026   1.474  -0.247  0.00  0.00    +0.006 C 
ATOM     16  C   UNL     1       0.046  -0.053  -0.170  0.00  0.00    +0.028 C 
ENDBRANCH   1  16
BRANCH   4  17
ATOM     17  C   UNL     1      -1.181  -4.265   0.821  0.00  0.00    +0.151 C 
BRANCH  17  18
ATOM     18  C   UNL     1      -2.531  -4.932   0.871  0.00  0.00    +0.005 A 
ATOM     19  C   UNL     1      -3.006  -5.443   2.065  0.00  0.00    +0.008 A 
ATOM     20  C   UNL     1      -4.244  -6.055   2.111  0.00  0.00    +0.000 A 
ATOM     21  C   UNL     1      -5.010  -6.157   0.964  0.00  0.00    +0.003 A 
ATOM     22  C   UNL     1      -4.537  -5.647  -0.230  0.00  0.00    +0.038 A 
ATOM     23  C   UNL     1      -3.299  -5.029  -0.277  0.00  0.00    +0.128 A 
ATOM     24  F   UNL     1      -2.838  -4.526  -1.443  0.00  0.00    -0.205 F 
ENDBRANCH  17  18
ENDBRANCH   4  17
TORSDOF 3
