REMARK  Name = ZINC37918136
REMARK  6 active torsions:
REMARK  status: ('A' for Active; 'I' for Inactive)
REMARK    1  A    between atoms: C_1  and  C_2
REMARK    2  A    between atoms: C_2  and  N_3
REMARK    3  A    between atoms: C_7  and  C_9
REMARK    4  A    between atoms: C_9  and  C_11
REMARK    5  A    between atoms: C_9  and  N_12
REMARK    6  A    between atoms: C_16  and  C_19
REMARK                            x       y       z     vdW  Elec       q    Type
REMARK                         _______ _______ _______ _____ _____    ______ ____
ROOT
ATOM      1  N   UNL     1       2.397  -5.553   3.903  0.00  0.00    -0.292 NA
ATOM      2  C   UNL     1       1.034  -6.098   3.932  0.00  0.00    +0.085 C 
ATOM      3  C   UNL     1       1.088  -7.619   3.776  0.00  0.00    +0.016 C 
ATOM      4  C   UNL     1       1.920  -8.215   4.915  0.00  0.00    +0.004 C 
ATOM      5  C   UNL     1       3.320  -7.595   4.892  0.00  0.00    -0.011 C 
ATOM      6  C   UNL     1       3.202  -6.074   5.016  0.00  0.00    +0.087 C 
ENDROOT
BRANCH   5   7
ATOM      7  C   UNL     1       4.140  -8.141   6.063  0.00  0.00    -0.068 C 
ATOM      8  C   UNL     1       5.567  -7.555   6.023  0.00  0.00    -0.017 C 
ATOM      9  C   UNL     1       6.450  -8.754   6.459  0.00  0.00    -0.021 C 
ATOM     10  C   UNL     1       5.698  -9.946   5.815  0.00  0.00    -0.082 C 
ATOM     11  N   UNL     1       4.262  -9.606   5.950  0.00  0.00    +0.381 N 
ATOM     12  H   UNL     1       3.884 -10.043   6.776  0.00  0.00    -0.086 HD
ATOM     13  H   UNL     1       3.759  -9.927   5.136  0.00  0.00    -0.086 HD
ENDBRANCH   5   7
BRANCH   1  14
ATOM     14  C   UNL     1       2.378  -4.084   3.911  0.00  0.00    +0.140 C 
ATOM     15  C   UNL     1       1.661  -3.590   5.170  0.00  0.00    +0.034 C 
BRANCH  14  20
ATOM     16  N   UNL     1       0.711  -0.489   1.189  0.00  0.00    -0.299 N 
ATOM     17  C   UNL     1       0.854  -1.814   1.394  0.00  0.00    +0.306 C 
ATOM     18  O   UNL     1       0.395  -2.606   0.594  0.00  0.00    -0.252 OA
ATOM     19  N   UNL     1       1.506  -2.260   2.486  0.00  0.00    -0.239 N 
ATOM     20  C   UNL     1       1.649  -3.585   2.690  0.00  0.00    +0.237 C 
ATOM     21  O   UNL     1       1.191  -4.374   1.893  0.00  0.00    -0.274 OA
ATOM     22  H   UNL     1       1.077   0.142   1.827  0.00  0.00    +0.150 HD
ATOM     23  H   UNL     1       1.872  -1.628   3.124  0.00  0.00    +0.159 HD
BRANCH  16  25
ATOM     24  C   UNL     1      -0.019   1.526   0.010  0.00  0.00    +0.024 C 
ATOM     25  C   UNL     1       0.002  -0.004   0.002  0.00  0.00    +0.102 C 
ENDBRANCH  16  25
ENDBRANCH  14  20
ENDBRANCH   1  14
TORSDOF 4
