REMARK  Name = ZINC11432520
REMARK  10 active torsions:
REMARK  status: ('A' for Active; 'I' for Inactive)
REMARK    1  A    between atoms: C_1  and  N_54
REMARK    2  A    between atoms: C_2  and  C_3
REMARK    3  A    between atoms: C_2  and  N_54
REMARK    4  A    between atoms: C_3  and  O_4
REMARK    5  A    between atoms: O_4  and  C_5
REMARK    6  A    between atoms: C_8  and  O_11
REMARK    7  A    between atoms: O_11  and  C_12
REMARK    8  A    between atoms: C_13  and  C_14
REMARK    9  A    between atoms: C_13  and  N_54
REMARK   10  A    between atoms: C_18  and  C_27
REMARK                            x       y       z     vdW  Elec       q    Type
REMARK                         _______ _______ _______ _____ _____    ______ ____
ROOT
ATOM      1  C   UNL     1      -2.715   4.908  -1.712  0.00  0.00    +0.203 C 
ATOM      2  O   UNL     1      -1.810   5.657  -2.013  0.00  0.00    -0.277 OA
ATOM      3  N   UNL     1      -2.444   3.645  -1.328  0.00  0.00    -0.266 N 
ATOM      4  C   UNL     1      -3.513   2.744  -0.862  0.00  0.00    +0.168 C 
ATOM      5  C   UNL     1      -3.257   1.362  -1.479  0.00  0.00    +0.276 C 
ATOM      6  O   UNL     1      -1.959   0.911  -1.083  0.00  0.00    -0.476 OA
ATOM      7  C   UNL     1      -0.917   1.770  -1.236  0.00  0.00    +0.143 A 
ATOM      8  C   UNL     1      -1.133   3.140  -1.359  0.00  0.00    +0.078 A 
ATOM      9  C   UNL     1      -0.060   4.003  -1.511  0.00  0.00    +0.027 A 
ATOM     10  C   UNL     1       1.228   3.502  -1.544  0.00  0.00    +0.002 A 
ATOM     11  C   UNL     1       1.446   2.142  -1.424  0.00  0.00    +0.004 A 
ATOM     12  C   UNL     1       0.379   1.276  -1.270  0.00  0.00    +0.047 A 
ENDROOT
BRANCH   5  13
ATOM     13  C   UNL     1      -4.300   0.390  -0.991  0.00  0.00    +0.253 C 
ATOM     14  O   UNL     1      -3.976  -0.547  -0.293  0.00  0.00    -0.272 OA
ATOM     15  N   UNL     1      -5.594   0.566  -1.327  0.00  0.00    -0.326 N 
ATOM     16  H   UNL     1      -6.266  -0.058  -1.010  0.00  0.00    +0.145 HD
ATOM     17  H   UNL     1      -5.853   1.315  -1.885  0.00  0.00    +0.145 HD
ENDBRANCH   5  13
BRANCH   1  18
ATOM     18  C   UNL     1      -4.142   5.389  -1.768  0.00  0.00    +0.019 C 
BRANCH  18  20
ATOM     19  C   UNL     1      -3.763   6.720  -3.755  0.00  0.00    -0.095 C 
ATOM     20  N   UNL     1      -4.162   6.755  -2.332  0.00  0.00    +0.386 N 
ATOM     21  H   UNL     1      -3.497   7.340  -1.813  0.00  0.00    -0.081 HD
BRANCH  20  22
ATOM     22  C   UNL     1      -5.516   7.335  -2.202  0.00  0.00    -0.037 C 
BRANCH  22  23
ATOM     23  C   UNL     1      -5.798   7.598  -0.721  0.00  0.00    +0.210 C 
BRANCH  23  24
ATOM     24  O   UNL     1      -4.874   8.568  -0.224  0.00  0.00    -0.494 OA
BRANCH  24  25
ATOM     25  C   UNL     1      -4.989   8.917   1.085  0.00  0.00    +0.121 A 
ATOM     26  C   UNL     1      -5.976   8.341   1.872  0.00  0.00    +0.049 A 
ATOM     27  C   UNL     1      -6.090   8.693   3.203  0.00  0.00    +0.049 A 
ATOM     28  C   UNL     1      -5.224   9.628   3.750  0.00  0.00    +0.120 A 
ATOM     29  C   UNL     1      -4.241  10.207   2.962  0.00  0.00    +0.049 A 
ATOM     30  C   UNL     1      -4.124   9.853   1.632  0.00  0.00    +0.049 A 
BRANCH  28  31
ATOM     31  O   UNL     1      -5.339   9.976   5.059  0.00  0.00    -0.495 OA
ATOM     32  C   UNL     1      -6.374   9.340   5.812  0.00  0.00    +0.277 C 
ENDBRANCH  28  31
ENDBRANCH  24  25
ENDBRANCH  23  24
ENDBRANCH  22  23
ENDBRANCH  20  22
ENDBRANCH  18  20
ENDBRANCH   1  18
TORSDOF 8
