REMARK  Name = ZINC37681933
REMARK  7 active torsions:
REMARK  status: ('A' for Active; 'I' for Inactive)
REMARK    1  A    between atoms: C_1  and  C_2
REMARK    2  A    between atoms: C_2  and  C_3
REMARK    3  A    between atoms: C_3  and  C_5
REMARK    4  A    between atoms: C_3  and  N_22
REMARK    5  A    between atoms: C_9  and  S_11
REMARK    6  A    between atoms: S_11  and  N_14
REMARK    7  A    between atoms: C_18  and  C_21
REMARK                            x       y       z     vdW  Elec       q    Type
REMARK                         _______ _______ _______ _____ _____    ______ ____
ROOT
ATOM      1  C   UNL     1       0.870  -2.011   1.172  0.00  0.00    -0.060 A 
ATOM      2  C   UNL     1      -0.201  -2.813   1.519  0.00  0.00    +0.002 A 
ATOM      3  C   UNL     1      -0.084  -4.189   1.456  0.00  0.00    +0.002 A 
ATOM      4  C   UNL     1       1.105  -4.763   1.044  0.00  0.00    +0.029 A 
ATOM      5  C   UNL     1       2.175  -3.961   0.696  0.00  0.00    +0.113 A 
ATOM      6  C   UNL     1       2.056  -2.585   0.755  0.00  0.00    +0.031 A 
ENDROOT
BRANCH   5   7
ATOM      7  S   UNL     1       3.690  -4.692   0.171  0.00  0.00    +0.101 S 
ATOM      8  O   UNL     1       4.711  -3.737   0.424  0.00  0.00    -0.146 OA
ATOM      9  O   UNL     1       3.720  -6.003   0.721  0.00  0.00    -0.146 OA
BRANCH   7  10
ATOM     10  N   UNL     1       3.604  -4.870  -1.473  0.00  0.00    -0.111 NA
ATOM     11  C   UNL     1       4.615  -5.399  -2.132  0.00  0.00    +0.153 A 
ATOM     12  C   UNL     1       4.549  -5.548  -3.537  0.00  0.00    +0.048 A 
ATOM     13  C   UNL     1       5.602  -6.095  -4.198  0.00  0.00    +0.008 A 
ATOM     14  C   UNL     1       6.738  -6.505  -3.478  0.00  0.00    -0.034 A 
ATOM     15  C   UNL     1       6.787  -6.357  -2.137  0.00  0.00    +0.087 A 
ATOM     16  N   UNL     1       5.742  -5.804  -1.459  0.00  0.00    -0.345 N 
ATOM     17  C   UNL     1       7.908  -7.113  -4.207  0.00  0.00    +0.045 C 
ATOM     18  H   UNL     1       5.793  -5.700  -0.495  0.00  0.00    +0.167 HD
ENDBRANCH   7  10
ENDBRANCH   5   7
BRANCH   1  19
ATOM     19  C   UNL     1       0.742  -0.511   1.242  0.00  0.00    -0.044 C 
BRANCH  19  20
ATOM     20  N   UNL     1      -0.010  -0.139   2.447  0.00  0.00    +0.383 N 
ATOM     21  H   UNL     1      -0.096   0.865   2.494  0.00  0.00    -0.089 HD
ATOM     22  H   UNL     1      -0.929  -0.554   2.411  0.00  0.00    -0.089 HD
ATOM     23  H   UNL     1       0.478  -0.473   3.265  0.00  0.00    -0.089 HD
ENDBRANCH  19  20
BRANCH  19  25
ATOM     24  C   UNL     1      -0.019   1.526   0.010  0.00  0.00    +0.002 C 
ATOM     25  C   UNL     1       0.002  -0.004   0.002  0.00  0.00    -0.015 C 
ENDBRANCH  19  25
ENDBRANCH   1  19
TORSDOF 5
