REMARK  Name = ZINC38594580
REMARK  6 active torsions:
REMARK  status: ('A' for Active; 'I' for Inactive)
REMARK    1  A    between atoms: C_1  and  C_2
REMARK    2  A    between atoms: C_7  and  C_12
REMARK    3  A    between atoms: C_13  and  C_14
REMARK    4  A    between atoms: C_13  and  C_16
REMARK    5  A    between atoms: N_18  and  C_19
REMARK    6  A    between atoms: C_20  and  C_28
REMARK                            x       y       z     vdW  Elec       q    Type
REMARK                         _______ _______ _______ _____ _____    ______ ____
ROOT
ATOM      1  C   UNL     1      -0.625  -6.008   3.693  0.00  0.00    +0.259 C 
ATOM      2  O   UNL     1      -0.005  -4.963   3.634  0.00  0.00    -0.269 OA
ATOM      3  N   UNL     1      -0.106  -7.062   4.354  0.00  0.00    -0.274 N 
ATOM      4  H   UNL     1      -0.601  -7.895   4.401  0.00  0.00    +0.156 HD
ENDROOT
BRANCH   3   5
ATOM      5  C   UNL     1       1.133  -6.955   4.967  0.00  0.00    +0.090 A 
ATOM      6  C   UNL     1       1.818  -7.927   5.678  0.00  0.00    +0.084 A 
ATOM      7  C   UNL     1       3.112  -7.561   6.226  0.00  0.00    -0.018 A 
ATOM      8  C   UNL     1       3.484  -6.289   5.962  0.00  0.00    -0.004 A 
ATOM      9  S   UNL     1       2.151  -5.620   5.010  0.00  0.00    -0.077 S 
ATOM     10  C   UNL     1       4.752  -5.616   6.387  0.00  0.00    +0.043 C 
ATOM     11  C   UNL     1       5.402  -6.465   7.489  0.00  0.00    +0.005 C 
ATOM     12  C   UNL     1       5.426  -7.929   7.039  0.00  0.00    +0.005 C 
ATOM     13  C   UNL     1       4.003  -8.494   7.032  0.00  0.00    +0.037 C 
BRANCH   6  14
ATOM     14  C   UNL     1       1.272  -9.237   5.867  0.00  0.00    +0.102 C 
ATOM     15  N   UNL     1       0.839 -10.277   6.016  0.00  0.00    -0.191 NA
ENDBRANCH   6  14
ENDBRANCH   3   5
BRANCH   1  17
ATOM     16  C   UNL     1      -2.535  -5.006   2.494  0.00  0.00    +0.032 C 
ATOM     17  C   UNL     1      -1.939  -6.121   3.043  0.00  0.00    +0.114 C 
BRANCH  16  23
ATOM     18  C   UNL     1      -0.317   2.003   1.770  0.00  0.00    +0.052 C 
ATOM     19  C   UNL     1      -0.058   0.514   2.009  0.00  0.00    +0.175 C 
ATOM     20  C   UNL     1      -0.949  -0.352   1.086  0.00  0.00    +0.083 C 
ATOM     21  C   UNL     1      -1.279  -1.528   1.985  0.00  0.00    -0.002 A 
ATOM     22  C   UNL     1      -1.788  -2.764   1.720  0.00  0.00    +0.015 A 
ATOM     23  C   UNL     1      -1.989  -3.675   2.767  0.00  0.00    -0.023 A 
ATOM     24  C   UNL     1      -1.661  -3.300   4.078  0.00  0.00    +0.011 A 
ATOM     25  C   UNL     1      -1.156  -2.058   4.329  0.00  0.00    +0.046 A 
ATOM     26  C   UNL     1      -0.959  -1.149   3.286  0.00  0.00    +0.124 A 
ATOM     27  O   UNL     1      -0.487   0.128   3.326  0.00  0.00    -0.488 OA
ENDBRANCH  16  23
BRANCH  17  28
ATOM     28  C   UNL     1      -2.600  -7.390   2.980  0.00  0.00    +0.104 C 
ATOM     29  N   UNL     1      -3.124  -8.397   2.931  0.00  0.00    -0.191 NA
ENDBRANCH  17  28
ENDBRANCH   1  17
TORSDOF 5
