REMARK  Name = ZINC66178159
REMARK  9 active torsions:
REMARK  status: ('A' for Active; 'I' for Inactive)
REMARK    1  A    between atoms: C_1  and  C_2
REMARK    2  A    between atoms: C_2  and  C_3
REMARK    3  A    between atoms: C_2  and  N_4
REMARK    4  A    between atoms: N_4  and  C_5
REMARK    5  A    between atoms: C_5  and  C_6
REMARK    6  A    between atoms: C_9  and  C_12
REMARK    7  A    between atoms: N_16  and  C_17
REMARK    8  A    between atoms: C_17  and  C_18
REMARK    9  A    between atoms: C_21  and  C_24
REMARK                            x       y       z     vdW  Elec       q    Type
REMARK                         _______ _______ _______ _____ _____    ______ ____
ROOT
ATOM      1  N   UNL     1      -1.469  -0.594   0.366  0.00  0.00    -0.279 N 
ATOM      2  C   UNL     1      -2.243  -0.121   1.363  0.00  0.00    +0.303 C 
ATOM      3  O   UNL     1      -3.378  -0.533   1.499  0.00  0.00    -0.253 OA
ATOM      4  N   UNL     1      -1.757   0.808   2.210  0.00  0.00    -0.295 N 
ATOM      5  H   UNL     1      -0.881   1.195   2.054  0.00  0.00    +0.151 HD
ENDROOT
BRANCH   1   7
ATOM      6  C   UNL     1      -0.273   1.482  -0.123  0.00  0.00    +0.028 C 
ATOM      7  C   UNL     1      -0.141  -0.021   0.134  0.00  0.00    +0.072 C 
ATOM      8  C   UNL     1       0.737  -0.253   1.365  0.00  0.00    +0.028 C 
ENDBRANCH   1   7
BRANCH   1   9
ATOM      9  C   UNL     1      -1.956  -1.682  -0.486  0.00  0.00    +0.144 C 
BRANCH   9  10
ATOM     10  C   UNL     1      -1.557  -3.006   0.113  0.00  0.00    -0.030 A 
ATOM     11  C   UNL     1      -0.346  -3.580  -0.232  0.00  0.00    +0.006 A 
ATOM     12  C   UNL     1       0.026  -4.792   0.312  0.00  0.00    +0.019 A 
ATOM     13  C   UNL     1      -0.822  -5.439   1.213  0.00  0.00    +0.052 A 
ATOM     14  C   UNL     1      -2.043  -4.854   1.557  0.00  0.00    +0.019 A 
ATOM     15  C   UNL     1      -2.400  -3.639   1.009  0.00  0.00    +0.006 A 
BRANCH  13  16
ATOM     16  C   UNL     1      -0.443  -6.698   1.782  0.00  0.00    +0.099 C 
ATOM     17  N   UNL     1      -0.142  -7.696   2.233  0.00  0.00    -0.191 NA
ENDBRANCH  13  16
ENDBRANCH   9  10
ENDBRANCH   1   9
BRANCH   4  18
ATOM     18  C   UNL     1      -2.551   1.234   3.365  0.00  0.00    +0.141 C 
BRANCH  18  19
ATOM     19  C   UNL     1      -1.788   2.273   4.144  0.00  0.00    -0.030 A 
ATOM     20  C   UNL     1      -0.934   1.882   5.160  0.00  0.00    +0.006 A 
ATOM     21  C   UNL     1      -0.232   2.828   5.878  0.00  0.00    +0.019 A 
ATOM     22  C   UNL     1      -0.383   4.183   5.577  0.00  0.00    +0.052 A 
ATOM     23  C   UNL     1      -1.246   4.570   4.550  0.00  0.00    +0.019 A 
ATOM     24  C   UNL     1      -1.939   3.614   3.837  0.00  0.00    +0.006 A 
BRANCH  22  25
ATOM     25  C   UNL     1       0.342   5.170   6.318  0.00  0.00    +0.099 C 
ATOM     26  N   UNL     1       0.917   5.953   6.906  0.00  0.00    -0.191 NA
ENDBRANCH  22  25
ENDBRANCH  18  19
ENDBRANCH   4  18
TORSDOF 7
