REMARK  Name = ZINC41562827
REMARK  5 active torsions:
REMARK  status: ('A' for Active; 'I' for Inactive)
REMARK    1  A    between atoms: C_1  and  C_2
REMARK    2  A    between atoms: C_3  and  C_16
REMARK    3  A    between atoms: C_4  and  C_7
REMARK    4  A    between atoms: C_10  and  O_14
REMARK    5  A    between atoms: O_14  and  C_15
REMARK                            x       y       z     vdW  Elec       q    Type
REMARK                         _______ _______ _______ _____ _____    ______ ____
ROOT
ATOM      1  C   UNL     1      -1.554   0.919   0.544  0.00  0.00    +0.070 C 
ATOM      2  C   UNL     1      -0.665  -0.258   0.234  0.00  0.00    +0.095 A 
ATOM      3  C   UNL     1      -0.805  -1.137  -0.870  0.00  0.00    +0.132 A 
ATOM      4  C   UNL     1       0.219  -2.079  -0.777  0.00  0.00    +0.182 A 
ATOM      5  O   UNL     1       0.933  -1.782   0.321  0.00  0.00    -0.354 OA
ATOM      6  N   UNL     1       0.363  -0.640   0.930  0.00  0.00    -0.082 NA
ENDROOT
BRANCH   4   7
ATOM      7  C   UNL     1       0.471  -3.192  -1.709  0.00  0.00    +0.022 A 
ATOM      8  C   UNL     1       0.597  -2.944  -3.080  0.00  0.00    +0.015 A 
ATOM      9  C   UNL     1       0.832  -3.987  -3.947  0.00  0.00    +0.047 A 
ATOM     10  C   UNL     1       0.944  -5.285  -3.463  0.00  0.00    +0.134 A 
ATOM     11  C   UNL     1       0.819  -5.537  -2.101  0.00  0.00    +0.060 A 
ATOM     12  C   UNL     1       0.590  -4.498  -1.225  0.00  0.00    +0.030 A 
ATOM     13 BR   UNL     1       0.971  -7.305  -1.450  0.00  0.00    -0.046 Br
BRANCH  10  14
ATOM     14  O   UNL     1       1.175  -6.310  -4.323  0.00  0.00    -0.494 OA
ATOM     15  C   UNL     1       1.292  -5.981  -5.708  0.00  0.00    +0.277 C 
ENDBRANCH  10  14
ENDBRANCH   4   7
BRANCH   3  16
ATOM     16  C   UNL     1      -1.832  -1.070  -1.912  0.00  0.00    +0.392 C 
ATOM     17  O   UNL     1      -2.615  -0.128  -1.940  0.00  0.00    -0.240 OA
ATOM     18  O   UNL     1      -1.908  -1.954  -2.756  0.00  0.00    -0.240 OA
ENDBRANCH   3  16
TORSDOF 3
