REMARK  Name = ZINC36332394
REMARK  5 active torsions:
REMARK  status: ('A' for Active; 'I' for Inactive)
REMARK    1  A    between atoms: C_4  and  S_9
REMARK    2  A    between atoms: C_5  and  N_7
REMARK    3  A    between atoms: N_7  and  N_8
REMARK    4  A    between atoms: S_9  and  N_12
REMARK    5  A    between atoms: N_12  and  C_13
REMARK                            x       y       z     vdW  Elec       q    Type
REMARK                         _______ _______ _______ _____ _____    ______ ____
ROOT
ATOM      1  S   UNL     1       4.033  -0.866  -0.083  0.00  0.00    +0.060 S 
ATOM      2  O   UNL     1       3.854  -1.929  -1.008  0.00  0.00    -0.153 OA
ATOM      3  O   UNL     1       5.096   0.070  -0.194  0.00  0.00    -0.153 OA
ENDROOT
BRANCH   1   7
ATOM      4  C   UNL     1       0.187   1.531  -0.110  0.00  0.00    +0.002 A 
ATOM      5  C   UNL     1       0.336   0.447  -0.956  0.00  0.00    +0.002 A 
ATOM      6  C   UNL     1       1.510  -0.284  -0.947  0.00  0.00    +0.030 A 
ATOM      7  C   UNL     1       2.538   0.067  -0.094  0.00  0.00    +0.127 A 
ATOM      8  C   UNL     1       2.391   1.155   0.756  0.00  0.00    +0.067 A 
ATOM      9  C   UNL     1       1.210   1.887   0.745  0.00  0.00    +0.026 A 
BRANCH   8  10
ATOM     10  N   UNL     1       3.429   1.513   1.621  0.00  0.00    -0.281 N 
ATOM     11  H   UNL     1       4.277   1.044   1.580  0.00  0.00    +0.166 HD
BRANCH  10  12
ATOM     12  N   UNL     1       3.249   2.523   2.522  0.00  0.00    -0.256 NA
ATOM     13  H   UNL     1       2.510   2.301   3.172  0.00  0.00    +0.140 HD
ATOM     14  H   UNL     1       4.108   2.731   3.009  0.00  0.00    +0.140 HD
ENDBRANCH  10  12
ENDBRANCH   8  10
ENDBRANCH   1   7
BRANCH   1  15
ATOM     15  N   UNL     1       4.167  -1.559   1.415  0.00  0.00    -0.187 NA
ATOM     16  H   UNL     1       4.887  -1.296   2.008  0.00  0.00    +0.148 HD
BRANCH  15  17
ATOM     17  C   UNL     1       3.196  -2.570   1.844  0.00  0.00    +0.080 C 
ATOM     18  C   UNL     1       2.089  -1.894   2.648  0.00  0.00    +0.043 C 
ATOM     19  C   UNL     1       0.935  -2.874   2.874  0.00  0.00    +0.167 C 
ATOM     20  S   UNL     1       1.536  -4.270   3.870  0.00  0.00    -0.031 S 
ATOM     21  O   UNL     1       0.557  -5.299   3.843  0.00  0.00    -0.174 OA
ATOM     22  O   UNL     1       1.982  -3.771   5.124  0.00  0.00    -0.174 OA
ATOM     23  C   UNL     1       2.982  -4.821   2.917  0.00  0.00    +0.167 C 
ATOM     24  C   UNL     1       3.908  -3.624   2.686  0.00  0.00    +0.043 C 
ENDBRANCH  15  17
ENDBRANCH   1  15
TORSDOF 5
