REMARK  Name = ZINC18046764
REMARK  3 active torsions:
REMARK  status: ('A' for Active; 'I' for Inactive)
REMARK    1  A    between atoms: C_3  and  C_9
REMARK    2  A    between atoms: N_18  and  C_21
REMARK    3  A    between atoms: C_22  and  C_30
REMARK                            x       y       z     vdW  Elec       q    Type
REMARK                         _______ _______ _______ _____ _____    ______ ____
ROOT
ATOM      1  C   UNL     1       3.673   2.258  -0.164  0.00  0.00    +0.081 C 
ATOM      2  N   UNL     1       3.848   3.634  -0.122  0.00  0.00    -0.264 N 
ATOM      3  O   UNL     1       5.215   3.870  -0.519  0.00  0.00    -0.256 OA
ATOM      4  C   UNL     1       5.869   2.809   0.194  0.00  0.00    +0.272 C 
ATOM      5  C   UNL     1       4.883   1.655  -0.038  0.00  0.00    +0.081 C 
ATOM      6  H   UNL     1       3.188   4.300   0.123  0.00  0.00    +0.194 HD
ATOM      7  C   UNL     1       5.730   0.544  -0.104  0.00  0.00    +0.259 C 
ATOM      8  O   UNL     1       5.417  -0.599   0.179  0.00  0.00    -0.269 OA
ATOM      9  N   UNL     1       6.948   0.936  -0.529  0.00  0.00    -0.197 N 
ATOM     10  C   UNL     1       7.122   2.291  -0.456  0.00  0.00    +0.263 C 
ATOM     11  O   UNL     1       8.077   2.942  -0.824  0.00  0.00    -0.271 OA
ENDROOT
BRANCH   9  12
ATOM     12  C   UNL     1       7.924   0.061  -0.992  0.00  0.00    +0.100 A 
ATOM     13  C   UNL     1       8.110  -0.401  -2.284  0.00  0.00    +0.084 A 
ATOM     14  C   UNL     1       9.213  -1.317  -2.510  0.00  0.00    -0.018 A 
ATOM     15  C   UNL     1       9.928  -1.605  -1.400  0.00  0.00    -0.004 A 
ATOM     16  S   UNL     1       9.151  -0.674  -0.112  0.00  0.00    -0.076 S 
ATOM     17  C   UNL     1      11.116  -2.513  -1.306  0.00  0.00    +0.043 C 
ATOM     18  C   UNL     1      11.174  -3.364  -2.583  0.00  0.00    +0.005 C 
ATOM     19  C   UNL     1      11.005  -2.447  -3.798  0.00  0.00    +0.005 C 
ATOM     20  C   UNL     1       9.569  -1.923  -3.860  0.00  0.00    +0.037 C 
BRANCH  13  21
ATOM     21  C   UNL     1       7.250   0.010  -3.353  0.00  0.00    +0.102 C 
ATOM     22  N   UNL     1       6.568   0.335  -4.201  0.00  0.00    -0.191 NA
ENDBRANCH  13  21
ENDBRANCH   9  12
BRANCH   1  25
ATOM     23  C   UNL     1       0.761  -0.019   0.490  0.00  0.00    +0.021 A 
ATOM     24  C   UNL     1       1.971   0.627   0.637  0.00  0.00    +0.013 A 
ATOM     25  C   UNL     1       2.380   1.563  -0.316  0.00  0.00    +0.019 A 
ATOM     26  C   UNL     1       1.558   1.839  -1.413  0.00  0.00    +0.052 A 
ATOM     27  C   UNL     1       0.350   1.185  -1.548  0.00  0.00    +0.040 A 
ATOM     28  C   UNL     1      -0.049   0.258  -0.599  0.00  0.00    +0.042 A 
ATOM     29 CL   UNL     1      -1.569  -0.560  -0.776  0.00  0.00    -0.083 Cl
ATOM     30 CL   UNL     1       2.056   3.001  -2.603  0.00  0.00    -0.083 Cl
ENDBRANCH   1  25
TORSDOF 3
