REMARK  Name = ZINC09322590
REMARK  11 active torsions:
REMARK  status: ('A' for Active; 'I' for Inactive)
REMARK    1  A    between atoms: C_6  and  C_7
REMARK    2  A    between atoms: C_10  and  C_12
REMARK    3  A    between atoms: C_12  and  N_13
REMARK    4  A    between atoms: C_14  and  C_16
REMARK    5  A    between atoms: C_16  and  N_17
REMARK    6  A    between atoms: N_17  and  C_18
REMARK    7  A    between atoms: C_20  and  N_28
REMARK    8  A    between atoms: C_23  and  N_24
REMARK    9  A    between atoms: N_24  and  C_25
REMARK   10  A    between atoms: C_25  and  C_26
REMARK   11  A    between atoms: C_26  and  O_27
REMARK                            x       y       z     vdW  Elec       q    Type
REMARK                         _______ _______ _______ _____ _____    ______ ____
ROOT
ATOM      1  C   UNL     1      -2.678   2.943   4.727  0.00  0.00    +0.197 C 
ENDROOT
BRANCH   1   3
ATOM      2  N   UNL     1      -4.657   4.316   5.291  0.00  0.00    -0.307 N 
ATOM      3  C   UNL     1      -3.875   3.771   4.338  0.00  0.00    +0.230 C 
ATOM      4  O   UNL     1      -4.136   3.947   3.166  0.00  0.00    -0.274 OA
ATOM      5  H   UNL     1      -4.448   4.176   6.228  0.00  0.00    +0.149 HD
BRANCH   2   6
ATOM      6  C   UNL     1      -5.821   5.121   4.912  0.00  0.00    +0.178 C 
BRANCH   6  10
ATOM      7  C   UNL     1      -7.888   5.697   7.869  0.00  0.00    +0.135 A 
ATOM      8  C   UNL     1      -7.135   6.828   7.902  0.00  0.00    +0.050 A 
ATOM      9  C   UNL     1      -6.260   6.765   6.799  0.00  0.00    +0.047 A 
ATOM     10  C   UNL     1      -6.519   5.610   6.155  0.00  0.00    +0.123 A 
ATOM     11  O   UNL     1      -7.507   4.970   6.801  0.00  0.00    -0.458 OA
BRANCH   7  17
ATOM     12  C   UNL     1      -9.244   6.179   9.902  0.00  0.00    +0.013 A 
ATOM     13  C   UNL     1     -10.235   5.834  10.797  0.00  0.00    +0.021 A 
ATOM     14  C   UNL     1     -10.928   4.645  10.643  0.00  0.00    +0.041 A 
ATOM     15  C   UNL     1     -10.634   3.797   9.589  0.00  0.00    +0.021 A 
ATOM     16  C   UNL     1      -9.648   4.133   8.684  0.00  0.00    +0.013 A 
ATOM     17  C   UNL     1      -8.946   5.331   8.834  0.00  0.00    +0.017 A 
ATOM     18 CL   UNL     1     -12.170   4.215  11.777  0.00  0.00    -0.084 Cl
ENDBRANCH   7  17
ENDBRANCH   6  10
ENDBRANCH   2   6
ENDBRANCH   1   3
BRANCH   1  19
ATOM     19  N   UNL     1      -1.999   2.468   3.519  0.00  0.00    -0.334 N 
ATOM     20  H   UNL     1      -2.345   2.704   2.644  0.00  0.00    +0.147 HD
BRANCH  19  21
ATOM     21  C   UNL     1      -0.851   1.673   3.627  0.00  0.00    +0.051 A 
ATOM     22  C   UNL     1      -0.358   1.331   4.877  0.00  0.00    +0.057 A 
ATOM     23  C   UNL     1       0.778   0.550   4.982  0.00  0.00    +0.128 A 
ATOM     24  C   UNL     1       1.423   0.105   3.844  0.00  0.00    +0.034 A 
ATOM     25  C   UNL     1       0.936   0.437   2.593  0.00  0.00    +0.027 A 
ATOM     26  C   UNL     1      -0.203   1.220   2.479  0.00  0.00    +0.048 A 
BRANCH  23  27
ATOM     27  N   UNL     1       1.306   0.191   6.318  0.00  0.00    +0.056 N 
ATOM     28  O   UNL     1       2.307  -0.496   6.412  0.00  0.00    -0.126 OA
ATOM     29  O   UNL     1       0.739   0.583   7.322  0.00  0.00    -0.126 OA
ENDBRANCH  23  27
BRANCH  26  30
ATOM     30  N   UNL     1      -0.698   1.558   1.213  0.00  0.00    -0.340 N 
ATOM     31  H   UNL     1      -1.495   2.106   1.135  0.00  0.00    +0.146 HD
BRANCH  30  32
ATOM     32  C   UNL     1      -0.013   1.086   0.008  0.00  0.00    +0.129 C 
BRANCH  32  33
ATOM     33  C   UNL     1      -0.753   1.593  -1.232  0.00  0.00    +0.174 C 
BRANCH  33  34
ATOM     34  O   UNL     1      -0.672   3.018  -1.285  0.00  0.00    -0.393 OA
ATOM     35  H   UNL     1      -1.120   3.410  -2.047  0.00  0.00    +0.209 HD
ENDBRANCH  33  34
ENDBRANCH  32  33
ENDBRANCH  30  32
ENDBRANCH  26  30
ENDBRANCH  19  21
ENDBRANCH   1  19
TORSDOF 11
