REMARK  Name = ZINC40173473
REMARK  13 active torsions:
REMARK  status: ('A' for Active; 'I' for Inactive)
REMARK    1  A    between atoms: C_1  and  C_2
REMARK    2  A    between atoms: C_2  and  O_3
REMARK    3  A    between atoms: O_3  and  C_4
REMARK    4  A    between atoms: C_4  and  C_6
REMARK    5  A    between atoms: C_7  and  C_28
REMARK    6  A    between atoms: C_8  and  C_27
REMARK    7  A    between atoms: C_10  and  N_11
REMARK    8  A    between atoms: C_12  and  C_14
REMARK    9  A    between atoms: C_14  and  C_16
REMARK   10  A    between atoms: C_14  and  N_17
REMARK   11  A    between atoms: C_21  and  S_22
REMARK   12  A    between atoms: S_22  and  C_23
REMARK   13  A    between atoms: C_23  and  C_24
REMARK                            x       y       z     vdW  Elec       q    Type
REMARK                         _______ _______ _______ _____ _____    ______ ____
ROOT
ATOM      1  N   UNL     1      -3.047  -2.529   2.498  0.00  0.00    -0.278 N 
ATOM      2  C   UNL     1      -3.827  -2.875   3.541  0.00  0.00    +0.240 C 
ATOM      3  O   UNL     1      -4.928  -3.345   3.345  0.00  0.00    -0.273 OA
ATOM      4  H   UNL     1      -2.166  -2.153   2.655  0.00  0.00    +0.155 HD
ENDROOT
BRANCH   1   9
ATOM      5  C   UNL     1      -2.842  -2.416   0.016  0.00  0.00    +0.091 A 
ATOM      6  C   UNL     1      -3.551  -2.715  -1.208  0.00  0.00    -0.025 A 
ATOM      7  C   UNL     1      -4.779  -3.243  -1.061  0.00  0.00    -0.008 A 
ATOM      8  S   UNL     1      -4.978  -3.337   0.705  0.00  0.00    -0.078 S 
ATOM      9  C   UNL     1      -3.502  -2.711   1.202  0.00  0.00    +0.086 A 
ATOM     10  C   UNL     1      -5.753  -3.656  -2.134  0.00  0.00    +0.052 C 
ATOM     11  C   UNL     1      -2.950  -2.450  -2.565  0.00  0.00    +0.045 C 
BRANCH   5  12
ATOM     12  C   UNL     1      -1.497  -1.838   0.006  0.00  0.00    +0.342 C 
ATOM     13  O   UNL     1      -0.523  -2.566  -0.007  0.00  0.00    -0.245 OA
BRANCH  12  14
ATOM     14  O   UNL     1      -1.339  -0.499   0.012  0.00  0.00    -0.461 OA
BRANCH  14  16
ATOM     15  C   UNL     1      -0.019   1.526   0.010  0.00  0.00    +0.048 C 
ATOM     16  C   UNL     1       0.002  -0.004   0.002  0.00  0.00    +0.229 C 
ENDBRANCH  14  16
ENDBRANCH  12  14
ENDBRANCH   5  12
ENDBRANCH   1   9
BRANCH   2  17
ATOM     17  C   UNL     1      -3.332  -2.677   4.951  0.00  0.00    +0.175 C 
ATOM     18  C   UNL     1      -3.038  -1.194   5.185  0.00  0.00    +0.041 C 
BRANCH  17  19
ATOM     19  N   UNL     1      -4.357  -3.127   5.896  0.00  0.00    -0.279 N 
ATOM     20  C   UNL     1      -5.628  -2.634   5.997  0.00  0.00    +0.216 A 
ATOM     21  N   UNL     1      -6.241  -3.288   6.953  0.00  0.00    -0.113 NA
ATOM     22  N   UNL     1      -5.344  -4.224   7.482  0.00  0.00    -0.121 NA
ATOM     23  C   UNL     1      -4.213  -4.116   6.827  0.00  0.00    +0.194 A 
ATOM     24  N   UNL     1      -6.174  -1.619   5.222  0.00  0.00    -0.328 N 
ATOM     25  H   UNL     1      -5.638  -1.192   4.534  0.00  0.00    +0.145 HD
ATOM     26  H   UNL     1      -7.090  -1.336   5.368  0.00  0.00    +0.145 HD
BRANCH  23  27
ATOM     27  S   UNL     1      -2.761  -5.075   7.103  0.00  0.00    -0.071 S 
BRANCH  27  28
ATOM     28  C   UNL     1      -3.223  -6.193   8.455  0.00  0.00    +0.195 C 
BRANCH  28  29
ATOM     29  C   UNL     1      -2.081  -7.061   8.786  0.00  0.00    +0.074 C 
ATOM     30  N   UNL     1      -1.200  -7.730   9.042  0.00  0.00    -0.196 NA
ENDBRANCH  28  29
ENDBRANCH  27  28
ENDBRANCH  23  27
ENDBRANCH  17  19
ENDBRANCH   2  17
TORSDOF 9
