REMARK  Name = ZINC35946834
REMARK  8 active torsions:
REMARK  status: ('A' for Active; 'I' for Inactive)
REMARK    1  A    between atoms: C_1  and  C_2
REMARK    2  A    between atoms: C_9  and  O_20
REMARK    3  A    between atoms: C_12  and  C_14
REMARK    4  A    between atoms: C_23  and  O_36
REMARK    5  A    between atoms: C_24  and  C_31
REMARK    6  A    between atoms: C_27  and  O_30
REMARK    7  A    between atoms: N_32  and  C_33
REMARK    8  A    between atoms: C_33  and  C_34
REMARK                            x       y       z     vdW  Elec       q    Type
REMARK                         _______ _______ _______ _____ _____    ______ ____
ROOT
ATOM      1  C   UNL     1       0.052   1.447   0.184  0.00  0.00    +0.014 C 
ATOM      2  C   UNL     1       0.124  -0.080   0.112  0.00  0.00    +0.004 C 
ATOM      3  C   UNL     1      -1.258  -0.669   0.316  0.00  0.00    +0.010 C 
ATOM      4  C   UNL     1      -1.799  -0.119   1.646  0.00  0.00    +0.005 C 
ATOM      5  C   UNL     1      -0.866  -0.452   2.805  0.00  0.00    +0.009 C 
ATOM      6  C   UNL     1       0.560   0.057   2.545  0.00  0.00    +0.025 C 
ATOM      7  C   UNL     1       1.031  -0.617   1.252  0.00  0.00    +0.075 C 
ATOM      8  C   UNL     1       2.424  -0.209   0.759  0.00  0.00    +0.036 C 
ATOM      9  C   UNL     1       2.363  -0.533  -0.759  0.00  0.00    +0.011 C 
ATOM     10  C   UNL     1       0.865  -0.502  -1.153  0.00  0.00    +0.027 C 
ATOM     11  C   UNL     1       1.456  -0.335   3.722  0.00  0.00    +0.009 C 
ATOM     12  C   UNL     1       0.917   0.301   5.005  0.00  0.00    +0.036 C 
ATOM     13  C   UNL     1      -0.507  -0.196   5.263  0.00  0.00    +0.079 C 
ATOM     14  C   UNL     1      -1.385   0.185   4.095  0.00  0.00    +0.038 C 
ATOM     15  C   UNL     1      -2.812  -0.297   4.363  0.00  0.00    +0.018 C 
ATOM     16  C   UNL     1      -3.332   0.335   5.656  0.00  0.00    +0.032 C 
ATOM     17  C   UNL     1      -2.429  -0.073   6.822  0.00  0.00    +0.117 C 
ATOM     18  C   UNL     1      -1.045   0.440   6.546  0.00  0.00    +0.067 C 
ENDROOT
BRANCH  10  19
ATOM     19  C   UNL     1       0.412  -1.871  -1.591  0.00  0.00    -0.022 C 
ATOM     20  C   UNL     1       1.069  -3.016  -1.423  0.00  0.00    +0.094 C 
ATOM     21  C   UNL     1       0.277  -4.110  -1.994  0.00  0.00    +0.332 C 
ATOM     22  O   UNL     1       0.604  -5.280  -1.999  0.00  0.00    -0.246 OA
ATOM     23  O   UNL     1      -0.866  -3.623  -2.511  0.00  0.00    -0.457 OA
ATOM     24  C   UNL     1      -0.879  -2.207  -2.301  0.00  0.00    +0.264 C 
ENDBRANCH  10  19
BRANCH   7  25
ATOM     25  O   UNL     1       0.920  -2.038   1.351  0.00  0.00    -0.388 OA
ATOM     26  H   UNL     1       1.465  -2.428   2.048  0.00  0.00    +0.210 HD
ENDBRANCH   7  25
BRANCH  17  27
ATOM     27  O   UNL     1      -2.914   0.517   8.029  0.00  0.00    -0.392 OA
ATOM     28  H   UNL     1      -3.815   0.254   8.261  0.00  0.00    +0.210 HD
ENDBRANCH  17  27
BRANCH  14  29
ATOM     29  C   UNL     1      -1.378   1.686   3.953  0.00  0.00    +0.088 C 
ATOM     30  N   UNL     1      -2.470   2.344   4.061  0.00  0.00    -0.280 NA
BRANCH  30  31
ATOM     31  C   UNL     1      -2.464   3.802   3.922  0.00  0.00    +0.259 C 
BRANCH  31  32
ATOM     32  C   UNL     1      -3.233   4.185   2.727  0.00  0.00    +0.086 C 
ATOM     33  N   UNL     1      -3.827   4.481   1.805  0.00  0.00    -0.195 NA
ENDBRANCH  31  32
ENDBRANCH  30  31
ENDBRANCH  14  29
BRANCH  13  34
ATOM     34  O   UNL     1      -0.496  -1.618   5.405  0.00  0.00    -0.388 OA
ATOM     35  H   UNL     1       0.054  -1.936   6.134  0.00  0.00    +0.210 HD
ENDBRANCH  13  34
TORSDOF 7
