REMARK  Name = ZINC65313609
REMARK  7 active torsions:
REMARK  status: ('A' for Active; 'I' for Inactive)
REMARK    1  A    between atoms: C_1  and  C_2
REMARK    2  A    between atoms: C_4  and  C_27
REMARK    3  A    between atoms: C_5  and  C_9
REMARK    4  A    between atoms: C_6  and  C_8
REMARK    5  A    between atoms: C_9  and  N_10
REMARK    6  A    between atoms: C_11  and  C_13
REMARK    7  A    between atoms: N_18  and  C_20
REMARK                            x       y       z     vdW  Elec       q    Type
REMARK                         _______ _______ _______ _____ _____    ______ ____
ROOT
ATOM      1  N   UNL     1       1.377  -4.803  -0.047  0.00  0.00    -0.311 N 
ATOM      2  C   UNL     1       1.664  -6.120  -0.065  0.00  0.00    +0.218 C 
ATOM      3  O   UNL     1       0.767  -6.936  -0.088  0.00  0.00    -0.275 OA
ATOM      4  H   UNL     1       2.095  -4.151  -0.028  0.00  0.00    +0.149 HD
ENDROOT
BRANCH   2   5
ATOM      5  C   UNL     1       3.100  -6.578  -0.055  0.00  0.00    +0.092 C 
ATOM      6  C   UNL     1       3.820  -6.028  -1.288  0.00  0.00    +0.016 C 
ATOM      7  C   UNL     1       5.286  -6.466  -1.262  0.00  0.00    +0.020 C 
ATOM      8  C   UNL     1       5.359  -7.995  -1.302  0.00  0.00    +0.105 C 
ATOM      9  N   UNL     1       4.548  -8.537  -0.203  0.00  0.00    -0.328 N 
ATOM     10  C   UNL     1       3.148  -8.109  -0.081  0.00  0.00    +0.118 C 
BRANCH   9  11
ATOM     11  C   UNL     1       5.093  -9.432   0.700  0.00  0.00    +0.055 A 
ATOM     12  C   UNL     1       6.395  -9.940   0.502  0.00  0.00    +0.156 A 
ATOM     13  N   UNL     1       6.911 -10.783   1.352  0.00  0.00    -0.178 NA
ATOM     14  N   UNL     1       6.191 -11.204   2.476  0.00  0.00    -0.243 N 
ATOM     15  C   UNL     1       4.945 -10.744   2.703  0.00  0.00    +0.266 A 
ATOM     16  O   UNL     1       4.323 -11.116   3.686  0.00  0.00    -0.266 OA
ATOM     17  C   UNL     1       4.369  -9.833   1.808  0.00  0.00    +0.096 A 
ATOM     18  H   UNL     1       6.593 -11.832   3.096  0.00  0.00    +0.192 HD
ENDBRANCH   9  11
ENDBRANCH   2   5
BRANCH   1  19
ATOM     19  C   UNL     1      -0.018  -4.358  -0.056  0.00  0.00    +0.140 C 
BRANCH  19  24
ATOM     20  C   UNL     1      -0.200   1.418   0.035  0.00  0.00    +0.044 C 
ATOM     21  C   UNL     1      -0.153  -0.088   0.012  0.00  0.00    -0.050 A 
ATOM     22  C   UNL     1      -0.116  -0.760  -1.196  0.00  0.00    +0.007 A 
ATOM     23  C   UNL     1      -0.072  -2.141  -1.218  0.00  0.00    -0.045 A 
ATOM     24  C   UNL     1      -0.065  -2.852  -0.032  0.00  0.00    -0.024 A 
ATOM     25  C   UNL     1      -0.101  -2.180   1.176  0.00  0.00    -0.045 A 
ATOM     26  C   UNL     1      -0.140  -0.798   1.198  0.00  0.00    +0.007 A 
ATOM     27  C   UNL     1      -0.094  -2.954   2.469  0.00  0.00    +0.044 C 
ATOM     28  C   UNL     1      -0.033  -2.873  -2.535  0.00  0.00    +0.044 C 
ENDBRANCH  19  24
ENDBRANCH   1  19
TORSDOF 4
