REMARK  Name = ZINC36993217
REMARK  5 active torsions:
REMARK  status: ('A' for Active; 'I' for Inactive)
REMARK    1  A    between atoms: C_1  and  C_2
REMARK    2  A    between atoms: C_2  and  C_3
REMARK    3  A    between atoms: C_3  and  C_5
REMARK    4  A    between atoms: C_3  and  N_10
REMARK    5  A    between atoms: N_10  and  C_11
REMARK                            x       y       z     vdW  Elec       q    Type
REMARK                         _______ _______ _______ _____ _____    ______ ____
ROOT
ATOM      1  C   UNL     1       0.113   1.156  -3.005  0.00  0.00    +0.050 A 
ATOM      2  C   UNL     1       1.018   2.049  -2.445  0.00  0.00    +0.072 A 
ATOM      3  C   UNL     1       1.182   3.303  -3.005  0.00  0.00    +0.144 A 
ATOM      4  C   UNL     1       0.440   3.667  -4.128  0.00  0.00    +0.077 A 
ATOM      5  C   UNL     1      -0.461   2.775  -4.685  0.00  0.00    +0.048 A 
ATOM      6  C   UNL     1      -0.621   1.518  -4.128  0.00  0.00    +0.064 A 
ATOM      7 CL   UNL     1      -1.744   0.396  -4.829  0.00  0.00    -0.082 Cl
ATOM      8  N   UNL     1       0.617   4.945  -4.683  0.00  0.00    -0.280 N 
ATOM      9  C   UNL     1       1.703   5.667  -4.329  0.00  0.00    +0.255 C 
ATOM     10  O   UNL     1       1.862   6.785  -4.771  0.00  0.00    -0.272 OA
ATOM     11  C   UNL     1       2.717   5.077  -3.382  0.00  0.00    +0.325 C 
ATOM     12  O   UNL     1       2.064   4.190  -2.470  0.00  0.00    -0.481 OA
ATOM     13  H   UNL     1      -0.029   5.304  -5.310  0.00  0.00    +0.155 HD
ENDROOT
BRANCH   1  14
ATOM     14  N   UNL     1      -0.055  -0.114  -2.441  0.00  0.00    -0.335 N 
ATOM     15  H   UNL     1      -0.683  -0.740  -2.833  0.00  0.00    +0.147 HD
BRANCH  14  16
ATOM     16  C   UNL     1       0.718  -0.497  -1.257  0.00  0.00    +0.107 C 
BRANCH  16  17
ATOM     17  C   UNL     1       0.847  -1.998  -1.206  0.00  0.00    +0.010 A 
ATOM     18  C   UNL     1       1.917  -2.751  -0.851  0.00  0.00    +0.013 A 
ATOM     19  C   UNL     1       1.806  -4.129  -0.879  0.00  0.00    +0.008 A 
ATOM     20  C   UNL     1       0.630  -4.686  -1.260  0.00  0.00    +0.045 A 
ATOM     21  S   UNL     1      -0.371  -3.245  -1.589  0.00  0.00    -0.100 S 
ENDBRANCH  16  17
BRANCH  16  23
ATOM     22  C   UNL     1      -0.019   1.526   0.010  0.00  0.00    +0.006 C 
ATOM     23  C   UNL     1       0.002  -0.004   0.002  0.00  0.00    +0.024 C 
ENDBRANCH  16  23
ENDBRANCH  14  16
ENDBRANCH   1  14
TORSDOF 4
