REMARK  Name = ZINC35047481
REMARK  6 active torsions:
REMARK  status: ('A' for Active; 'I' for Inactive)
REMARK    1  A    between atoms: C_1  and  C_2
REMARK    2  A    between atoms: C_2  and  C_4
REMARK    3  A    between atoms: C_2  and  N_7
REMARK    4  A    between atoms: N_7  and  C_8
REMARK    5  A    between atoms: C_8  and  C_9
REMARK    6  A    between atoms: C_13  and  N_15
REMARK                            x       y       z     vdW  Elec       q    Type
REMARK                         _______ _______ _______ _____ _____    ______ ____
ROOT
ATOM      1  C   UNL     1       2.122  -0.083   1.122  0.00  0.00    -0.046 C 
ENDROOT
BRANCH   1   2
ATOM      2  C   UNL     1       2.851  -0.582   2.343  0.00  0.00    -0.062 A 
ATOM      3  C   UNL     1       2.914   0.203   3.479  0.00  0.00    +0.003 A 
ATOM      4  C   UNL     1       3.582  -0.254   4.599  0.00  0.00    +0.018 A 
ATOM      5  C   UNL     1       4.187  -1.498   4.583  0.00  0.00    +0.048 A 
ATOM      6  C   UNL     1       4.124  -2.283   3.446  0.00  0.00    +0.140 A 
ATOM      7  C   UNL     1       3.451  -1.827   2.328  0.00  0.00    +0.035 A 
ATOM      8 BR   UNL     1       5.102  -2.124   6.115  0.00  0.00    -0.048 Br
BRANCH   6   9
ATOM      9  N   UNL     1       4.771  -3.614   3.429  0.00  0.00    +0.058 N 
ATOM     10  O   UNL     1       4.715  -4.300   2.435  0.00  0.00    -0.126 OA
ATOM     11  O   UNL     1       5.356  -4.015   4.408  0.00  0.00    -0.126 OA
ENDBRANCH   6   9
ENDBRANCH   1   2
BRANCH   1  12
ATOM     12  N   UNL     1       0.713  -0.491   1.192  0.00  0.00    +0.389 N 
ATOM     13  H   UNL     1       0.290  -0.099   2.020  0.00  0.00    -0.084 HD
ATOM     14  H   UNL     1       0.655  -1.497   1.230  0.00  0.00    -0.084 HD
BRANCH  12  16
ATOM     15  C   UNL     1      -0.019   1.526   0.010  0.00  0.00    -0.004 C 
ATOM     16  C   UNL     1       0.002  -0.004   0.002  0.00  0.00    +0.013 C 
BRANCH  16  17
ATOM     17  C   UNL     1      -1.412  -0.526   0.013  0.00  0.00    +0.196 C 
ATOM     18  O   UNL     1      -1.790  -1.233   0.922  0.00  0.00    -0.278 OA
ATOM     19  N   UNL     1      -2.256  -0.206  -0.988  0.00  0.00    -0.331 N 
ATOM     20  H   UNL     1      -1.953   0.360  -1.716  0.00  0.00    +0.145 HD
ATOM     21  H   UNL     1      -3.166  -0.542  -0.982  0.00  0.00    +0.145 HD
ENDBRANCH  16  17
ENDBRANCH  12  16
ENDBRANCH   1  12
TORSDOF 5
