REMARK  Name = ZINC59643879
REMARK  7 active torsions:
REMARK  status: ('A' for Active; 'I' for Inactive)
REMARK    1  A    between atoms: C_1  and  C_2
REMARK    2  A    between atoms: C_2  and  C_3
REMARK    3  A    between atoms: C_3  and  C_4
REMARK    4  A    between atoms: C_4  and  C_5
REMARK    5  A    between atoms: C_5  and  C_21
REMARK    6  A    between atoms: C_10  and  C_11
REMARK    7  A    between atoms: C_16  and  O_17
REMARK                            x       y       z     vdW  Elec       q    Type
REMARK                         _______ _______ _______ _____ _____    ______ ____
ROOT
ATOM      1  C   UNL     1       1.583  -2.503   2.417  0.00  0.00    +0.257 C 
ATOM      2  O   UNL     1       0.932  -1.828   3.500  0.00  0.00    -0.419 OA
ATOM      3  C   UNL     1       1.414  -2.115   4.742  0.00  0.00    +0.349 C 
ATOM      4  O   UNL     1       0.686  -2.364   5.684  0.00  0.00    -0.245 OA
ATOM      5  C   UNL     1       2.897  -2.102   4.858  0.00  0.00    +0.144 C 
ATOM      6  C   UNL     1       3.558  -1.693   6.000  0.00  0.00    +0.033 C 
ATOM      7  C   UNL     1       3.607  -2.568   3.635  0.00  0.00    +0.349 C 
ATOM      8  O   UNL     1       4.654  -3.183   3.681  0.00  0.00    -0.245 OA
ATOM      9  O   UNL     1       2.993  -2.254   2.461  0.00  0.00    -0.419 OA
ATOM     10  C   UNL     1       1.329  -4.007   2.533  0.00  0.00    +0.104 C 
ENDROOT
BRANCH   6  11
ATOM     11  C   UNL     1       5.013  -1.549   5.991  0.00  0.00    +0.017 A 
ATOM     12  C   UNL     1       5.673  -1.116   4.831  0.00  0.00    +0.011 A 
ATOM     13  C   UNL     1       7.043  -0.984   4.831  0.00  0.00    +0.001 A 
ATOM     14  C   UNL     1       7.775  -1.275   5.972  0.00  0.00    +0.004 A 
ATOM     15  C   UNL     1       7.141  -1.702   7.122  0.00  0.00    +0.046 A 
ATOM     16  C   UNL     1       5.762  -1.837   7.147  0.00  0.00    +0.124 A 
BRANCH  16  17
ATOM     17  O   UNL     1       5.138  -2.251   8.277  0.00  0.00    -0.506 OA
ATOM     18  H   UNL     1       5.038  -3.210   8.343  0.00  0.00    +0.292 HD
ENDBRANCH  16  17
ENDBRANCH   6  11
BRANCH   1  19
ATOM     19  C   UNL     1       1.018  -1.994   1.089  0.00  0.00    +0.093 C 
BRANCH  19  20
ATOM     20  C   UNL     1       1.275  -0.490   0.969  0.00  0.00    +0.007 C 
BRANCH  20  22
ATOM     21  C   UNL     1       0.968   1.522  -0.479  0.00  0.00    +0.004 C 
ATOM     22  C   UNL     1       0.711   0.019  -0.359  0.00  0.00    -0.003 C 
ENDBRANCH  20  22
ENDBRANCH  19  20
ENDBRANCH   1  19
TORSDOF 5
