REMARK  Name = ZINC15974574
REMARK  2 active torsions:
REMARK  status: ('A' for Active; 'I' for Inactive)
REMARK    1  A    between atoms: C_4  and  N_7
REMARK    2  A    between atoms: N_8  and  C_9
REMARK                            x       y       z     vdW  Elec       q    Type
REMARK                         _______ _______ _______ _____ _____    ______ ____
ROOT
ATOM      1  C   UNL     1       4.808  -2.580  -0.058  0.00  0.00    +0.169 A 
ATOM      2  C   UNL     1       6.100  -1.993  -0.062  0.00  0.00    +0.168 A 
ATOM      3  N   UNL     1       6.988  -2.956  -0.078  0.00  0.00    -0.145 NA
ATOM      4  N   UNL     1       6.331  -4.192  -0.086  0.00  0.00    -0.176 N 
ATOM      5  C   UNL     1       4.989  -3.962  -0.068  0.00  0.00    +0.167 A 
ATOM      6  N   UNL     1       4.109  -5.012  -0.063  0.00  0.00    -0.341 N 
ATOM      7  C   UNL     1       4.559  -6.306  -0.077  0.00  0.00    +0.026 A 
ATOM      8  C   UNL     1       5.883  -6.547  -0.101  0.00  0.00    +0.038 A 
ATOM      9  C   UNL     1       6.789  -5.457  -0.104  0.00  0.00    +0.278 A 
ATOM     10  O   UNL     1       7.989  -5.667  -0.109  0.00  0.00    -0.265 OA
ATOM     11  C   UNL     1       6.462  -7.937  -0.142  0.00  0.00    +0.042 C 
ATOM     12  C   UNL     1       5.421  -8.967   0.290  0.00  0.00    +0.005 C 
ATOM     13  C   UNL     1       4.140  -8.726  -0.517  0.00  0.00    +0.006 C 
ATOM     14  C   UNL     1       3.528  -7.404  -0.059  0.00  0.00    +0.054 C 
ATOM     15  N   UNL     1       6.376  -0.628  -0.051  0.00  0.00    -0.340 N 
ATOM     16  H   UNL     1       5.649   0.014  -0.039  0.00  0.00    +0.144 HD
ATOM     17  H   UNL     1       7.296  -0.319  -0.054  0.00  0.00    +0.144 HD
ATOM     18  H   UNL     1       3.155  -4.837  -0.049  0.00  0.00    +0.167 HD
ENDROOT
BRANCH   1  20
ATOM     19  N   UNL     1       3.600  -0.630  -0.036  0.00  0.00    -0.149 NA
ATOM     20  N   UNL     1       3.621  -1.920  -0.043  0.00  0.00    -0.142 NA
BRANCH  19  24
ATOM     21  C   UNL     1      -0.017   1.380   0.010  0.00  0.00    +0.000 A 
ATOM     22  C   UNL     1       1.168   2.094   0.002  0.00  0.00    +0.002 A 
ATOM     23  C   UNL     1       2.377   1.431  -0.013  0.00  0.00    +0.029 A 
ATOM     24  C   UNL     1       2.404   0.034  -0.021  0.00  0.00    +0.086 A 
ATOM     25  C   UNL     1       1.204  -0.681  -0.013  0.00  0.00    +0.029 A 
ATOM     26  C   UNL     1       0.002  -0.004   0.002  0.00  0.00    +0.002 A 
ENDBRANCH  19  24
ENDBRANCH   1  20
TORSDOF 2
