REMARK  Name = ZINC36213817
REMARK  11 active torsions:
REMARK  status: ('A' for Active; 'I' for Inactive)
REMARK    1  A    between atoms: C_1  and  C_2
REMARK    2  A    between atoms: C_2  and  C_4
REMARK    3  A    between atoms: C_2  and  N_12
REMARK    4  A    between atoms: C_13  and  C_15
REMARK    5  A    between atoms: C_15  and  C_17
REMARK    6  A    between atoms: C_15  and  S_18
REMARK    7  A    between atoms: S_18  and  C_19
REMARK    8  A    between atoms: C_22  and  C_25
REMARK    9  A    between atoms: N_23  and  N_24
REMARK   10  A    between atoms: C_30  and  O_31
REMARK   11  A    between atoms: O_31  and  C_32
REMARK                            x       y       z     vdW  Elec       q    Type
REMARK                         _______ _______ _______ _____ _____    ______ ____
ROOT
ATOM      1  S   UNL     1       4.532  -0.641   2.309  0.00  0.00    -0.072 S 
ENDROOT
BRANCH   1   2
ATOM      2  C   UNL     1       5.168  -1.077   3.893  0.00  0.00    +0.209 A 
ATOM      3  N   UNL     1       4.500  -1.643   4.872  0.00  0.00    -0.121 NA
ATOM      4  N   UNL     1       5.269  -1.821   5.887  0.00  0.00    -0.127 NA
ATOM      5  C   UNL     1       6.475  -1.379   5.617  0.00  0.00    +0.185 A 
ATOM      6  N   UNL     1       6.449  -0.894   4.330  0.00  0.00    -0.224 N 
BRANCH   5   7
ATOM      7  C   UNL     1       7.642  -1.404   6.524  0.00  0.00    +0.062 A 
ATOM      8  C   UNL     1       8.434  -0.265   6.678  0.00  0.00    +0.015 A 
ATOM      9  C   UNL     1       9.522  -0.294   7.526  0.00  0.00    +0.001 A 
ATOM     10  C   UNL     1       9.832  -1.448   8.224  0.00  0.00    +0.004 A 
ATOM     11  C   UNL     1       9.055  -2.582   8.079  0.00  0.00    +0.046 A 
ATOM     12  C   UNL     1       7.955  -2.567   7.237  0.00  0.00    +0.131 A 
BRANCH  12  13
ATOM     13  O   UNL     1       7.187  -3.679   7.098  0.00  0.00    -0.494 OA
ATOM     14  C   UNL     1       7.568  -4.829   7.857  0.00  0.00    +0.277 C 
ENDBRANCH  12  13
ENDBRANCH   5   7
BRANCH   6  15
ATOM     15  N   UNL     1       7.488  -0.341   3.636  0.00  0.00    -0.295 N 
ATOM     16  H   UNL     1       7.582   0.641   3.846  0.00  0.00    +0.163 HD
ATOM     17  H   UNL     1       8.349  -0.834   3.820  0.00  0.00    +0.163 HD
ENDBRANCH   6  15
ENDBRANCH   1   2
BRANCH   1  18
ATOM     18  C   UNL     1       2.791  -1.146   2.381  0.00  0.00    +0.137 C 
ATOM     19  C   UNL     1       2.707  -2.667   2.517  0.00  0.00    +0.029 C 
BRANCH  18  21
ATOM     20  N   UNL     1       0.758  -0.511   1.123  0.00  0.00    -0.308 N 
ATOM     21  C   UNL     1       2.091  -0.715   1.118  0.00  0.00    +0.227 C 
ATOM     22  O   UNL     1       2.725  -0.551   0.098  0.00  0.00    -0.275 OA
ATOM     23  H   UNL     1       0.250  -0.641   1.939  0.00  0.00    +0.149 HD
BRANCH  20  25
ATOM     24  C   UNL     1       0.162   1.430  -0.241  0.00  0.00    +0.033 C 
ATOM     25  C   UNL     1       0.077  -0.091  -0.105  0.00  0.00    +0.102 C 
BRANCH  25  26
ATOM     26  C   UNL     1      -1.369  -0.511  -0.045  0.00  0.00    -0.009 A 
ATOM     27  C   UNL     1      -1.986  -0.692   1.179  0.00  0.00    +0.008 A 
ATOM     28  C   UNL     1      -3.312  -1.077   1.234  0.00  0.00    +0.020 A 
ATOM     29  C   UNL     1      -4.024  -1.280   0.065  0.00  0.00    +0.042 A 
ATOM     30  C   UNL     1      -3.407  -1.098  -1.160  0.00  0.00    +0.040 A 
ATOM     31  C   UNL     1      -2.081  -0.709  -1.215  0.00  0.00    +0.047 A 
ATOM     32 CL   UNL     1      -1.308  -0.474  -2.751  0.00  0.00    -0.083 Cl
ATOM     33 CL   UNL     1      -5.689  -1.764   0.135  0.00  0.00    -0.083 Cl
ENDBRANCH  25  26
ENDBRANCH  20  25
ENDBRANCH  18  21
ENDBRANCH   1  18
TORSDOF 8
