REMARK  Name = ZINC59599298
REMARK  10 active torsions:
REMARK  status: ('A' for Active; 'I' for Inactive)
REMARK    1  A    between atoms: C_1  and  N_2
REMARK    2  A    between atoms: C_3  and  N_33
REMARK    3  A    between atoms: C_4  and  O_11
REMARK    4  A    between atoms: N_7  and  C_10
REMARK    5  A    between atoms: O_11  and  C_12
REMARK    6  A    between atoms: C_15  and  C_20
REMARK    7  A    between atoms: C_17  and  O_18
REMARK    8  A    between atoms: O_18  and  C_19
REMARK    9  A    between atoms: N_21  and  N_22
REMARK   10  A    between atoms: N_25  and  C_26
REMARK                            x       y       z     vdW  Elec       q    Type
REMARK                         _______ _______ _______ _____ _____    ______ ____
ROOT
ATOM      1  C   UNL     1      -3.459  -2.102  -0.025  0.00  0.00    +0.170 A 
ATOM      2  C   UNL     1      -3.445  -0.731  -0.240  0.00  0.00    +0.050 A 
ATOM      3  C   UNL     1      -4.630  -0.035  -0.349  0.00  0.00    +0.013 A 
ATOM      4  C   UNL     1      -5.849  -0.710  -0.243  0.00  0.00    -0.002 A 
ATOM      5  C   UNL     1      -5.863  -2.090  -0.027  0.00  0.00    +0.059 A 
ATOM      6  C   UNL     1      -4.671  -2.783   0.075  0.00  0.00    +0.163 A 
ENDROOT
BRANCH   6   7
ATOM      7  O   UNL     1      -4.681  -4.127   0.280  0.00  0.00    -0.491 OA
ATOM      8  C   UNL     1      -5.959  -4.760   0.373  0.00  0.00    +0.277 C 
ENDBRANCH   6   7
BRANCH   4   9
ATOM      9  C   UNL     1      -7.117   0.033  -0.359  0.00  0.00    +0.138 C 
ATOM     10  N   UNL     1      -7.103   1.315  -0.559  0.00  0.00    -0.186 NA
BRANCH  10  11
ATOM     11  N   UNL     1      -8.308   2.021  -0.669  0.00  0.00    -0.191 N 
ATOM     12  C   UNL     1      -8.293   3.352  -0.877  0.00  0.00    +0.323 C 
ATOM     13  O   UNL     1      -9.339   3.965  -0.973  0.00  0.00    -0.251 OA
ATOM     14  N   UNL     1      -7.118   4.005  -0.980  0.00  0.00    -0.268 N 
ATOM     15  H   UNL     1      -9.153   1.551  -0.596  0.00  0.00    +0.179 HD
ATOM     16  H   UNL     1      -6.285   3.529  -0.837  0.00  0.00    +0.156 HD
BRANCH  14  17
ATOM     17  C   UNL     1      -7.100   5.369  -1.292  0.00  0.00    +0.035 A 
ATOM     18  C   UNL     1      -6.087   5.887  -2.087  0.00  0.00    +0.024 A 
ATOM     19  C   UNL     1      -6.071   7.234  -2.393  0.00  0.00    +0.017 A 
ATOM     20  C   UNL     1      -7.065   8.066  -1.909  0.00  0.00    +0.018 A 
ATOM     21  C   UNL     1      -8.076   7.552  -1.116  0.00  0.00    +0.017 A 
ATOM     22  C   UNL     1      -8.099   6.205  -0.812  0.00  0.00    +0.024 A 
ATOM     23 BR   UNL     1      -7.041   9.909  -2.331  0.00  0.00    -0.050 Br
ENDBRANCH  14  17
ENDBRANCH  10  11
ENDBRANCH   4   9
BRANCH   1  24
ATOM     24  O   UNL     1      -2.288  -2.783   0.081  0.00  0.00    -0.443 OA
BRANCH  24  28
ATOM     25  C   UNL     1       1.876  -1.535  -2.023  0.00  0.00    +0.155 C 
ATOM     26  N   UNL     1       0.920  -1.433  -0.917  0.00  0.00    -0.282 N 
ATOM     27  C   UNL     1      -0.243  -2.168  -0.949  0.00  0.00    +0.149 A 
ATOM     28  C   UNL     1      -1.129  -2.066   0.089  0.00  0.00    +0.230 A 
ATOM     29  C   UNL     1      -0.826  -1.211   1.163  0.00  0.00    +0.301 A 
ATOM     30  O   UNL     1      -1.600  -1.104   2.099  0.00  0.00    -0.263 OA
ATOM     31  N   UNL     1       0.325  -0.510   1.152  0.00  0.00    -0.261 N 
ATOM     32  C   UNL     1       1.187  -0.626   0.126  0.00  0.00    +0.333 A 
ATOM     33  O   UNL     1       2.222   0.012   0.139  0.00  0.00    -0.246 OA
ATOM     34  C   UNL     1       0.643   0.382   2.270  0.00  0.00    +0.157 C 
BRANCH  27  35
ATOM     35  N   UNL     1      -0.512  -2.996  -2.013  0.00  0.00    -0.341 N 
ATOM     36  H   UNL     1       0.082  -3.009  -2.779  0.00  0.00    +0.144 HD
ATOM     37  H   UNL     1      -1.296  -3.567  -1.997  0.00  0.00    +0.144 HD
ENDBRANCH  27  35
ENDBRANCH  24  28
ENDBRANCH   1  24
TORSDOF 7
