REMARK  Name = ZINC19717068
REMARK  9 active torsions:
REMARK  status: ('A' for Active; 'I' for Inactive)
REMARK    1  A    between atoms: C_1  and  C_2
REMARK    2  A    between atoms: C_5  and  N_15
REMARK    3  A    between atoms: C_7  and  S_8
REMARK    4  A    between atoms: S_8  and  N_11
REMARK    5  A    between atoms: N_11  and  C_12
REMARK    6  A    between atoms: C_12  and  C_13
REMARK    7  A    between atoms: C_12  and  C_14
REMARK    8  A    between atoms: C_16  and  C_18
REMARK    9  A    between atoms: C_26  and  C_28
REMARK                            x       y       z     vdW  Elec       q    Type
REMARK                         _______ _______ _______ _____ _____    ______ ____
ROOT
ATOM      1  C   UNL     1       2.947   1.253  -0.427  0.00  0.00    +0.046 C 
ATOM      2  C   UNL     1       1.466   0.996  -0.523  0.00  0.00    -0.024 A 
ATOM      3  C   UNL     1       0.976  -0.288  -0.366  0.00  0.00    +0.007 A 
ATOM      4  C   UNL     1      -0.381  -0.527  -0.454  0.00  0.00    +0.024 A 
ATOM      5  C   UNL     1      -1.255   0.524  -0.701  0.00  0.00    +0.036 A 
ATOM      6  C   UNL     1      -0.760   1.812  -0.858  0.00  0.00    +0.052 A 
ATOM      7  C   UNL     1       0.598   2.045  -0.769  0.00  0.00    +0.110 A 
ENDROOT
BRANCH   5   8
ATOM      8  N   UNL     1      -2.630   0.286  -0.791  0.00  0.00    -0.281 N 
ATOM      9  C   UNL     1      -3.081  -0.931  -1.156  0.00  0.00    +0.255 C 
ATOM     10  O   UNL     1      -2.291  -1.823  -1.402  0.00  0.00    -0.270 OA
ATOM     11  H   UNL     1      -3.344   1.091  -0.564  0.00  0.00    +0.155 HD
BRANCH   9  12
ATOM     12  C   UNL     1      -4.523  -1.179  -1.257  0.00  0.00    +0.120 A 
ATOM     13  C   UNL     1      -5.005  -2.474  -1.481  0.00  0.00    +0.132 A 
ATOM     14  N   UNL     1      -6.312  -2.660  -1.561  0.00  0.00    -0.230 NA
ATOM     15  C   UNL     1      -7.158  -1.658  -1.445  0.00  0.00    +0.180 A 
ATOM     16  N   UNL     1      -6.782  -0.362  -1.230  0.00  0.00    -0.261 N 
ATOM     17  C   UNL     1      -5.441  -0.114  -1.134  0.00  0.00    +0.271 A 
ATOM     18  O   UNL     1      -5.041   1.021  -0.943  0.00  0.00    -0.266 OA
ATOM     19  C   UNL     1      -7.791   0.568  -1.132  0.00  0.00    +0.107 A 
ATOM     20  C   UNL     1      -9.061   0.179  -1.246  0.00  0.00    +0.007 A 
ATOM     21  S   UNL     1      -8.885  -1.577  -1.507  0.00  0.00    -0.054 S 
ATOM     22  C   UNL     1     -10.318   1.008  -1.174  0.00  0.00    +0.053 C 
ENDBRANCH   9  12
ENDBRANCH   5   8
BRANCH   7  23
ATOM     23  S   UNL     1       1.227   3.678  -0.969  0.00  0.00    +0.059 S 
ATOM     24  O   UNL     1       0.132   4.488  -1.376  0.00  0.00    -0.153 OA
ATOM     25  O   UNL     1       1.995   3.963   0.192  0.00  0.00    -0.153 OA
BRANCH  23  26
ATOM     26  N   UNL     1       2.287   3.643  -2.241  0.00  0.00    -0.187 NA
ATOM     27  H   UNL     1       3.364   3.757  -2.046  0.00  0.00    +0.148 HD
BRANCH  26  28
ATOM     28  C   UNL     1       1.822   3.246  -3.572  0.00  0.00    +0.070 C 
ATOM     29  C   UNL     1       1.455   4.495  -4.377  0.00  0.00    +0.025 C 
ATOM     30  C   UNL     1       2.933   2.482  -4.294  0.00  0.00    +0.025 C 
ENDBRANCH  26  28
ENDBRANCH  23  26
ENDBRANCH   7  23
TORSDOF 5
