REMARK  Name = ZINC47969689
REMARK  13 active torsions:
REMARK  status: ('A' for Active; 'I' for Inactive)
REMARK    1  A    between atoms: C_1  and  C_2
REMARK    2  A    between atoms: C_2  and  C_3
REMARK    3  A    between atoms: C_6  and  C_9
REMARK    4  A    between atoms: C_9  and  C_10
REMARK    5  A    between atoms: C_9  and  N_27
REMARK    6  A    between atoms: C_10  and  N_11
REMARK    7  A    between atoms: N_14  and  C_15
REMARK    8  A    between atoms: C_18  and  N_22
REMARK    9  A    between atoms: C_19  and  C_21
REMARK   10  A    between atoms: C_23  and  C_25
REMARK   11  A    between atoms: C_25  and  C_26
REMARK   12  A    between atoms: N_27  and  C_28
REMARK   13  A    between atoms: N_27  and  C_29
REMARK                            x       y       z     vdW  Elec       q    Type
REMARK                         _______ _______ _______ _____ _____    ______ ____
ROOT
ATOM      1  N   UNL     1       3.286  -3.601   6.261  0.00  0.00    -0.300 N 
ATOM      2  C   UNL     1       3.413  -4.902   6.591  0.00  0.00    +0.304 C 
ATOM      3  O   UNL     1       2.936  -5.760   5.874  0.00  0.00    -0.253 OA
ATOM      4  N   UNL     1       4.067  -5.251   7.716  0.00  0.00    -0.269 N 
ATOM      5  H   UNL     1       3.667  -2.916   6.833  0.00  0.00    +0.150 HD
ATOM      6  H   UNL     1       4.502  -4.571   8.255  0.00  0.00    +0.156 HD
ENDROOT
BRANCH   4   7
ATOM      7  C   UNL     1       4.120  -6.595   8.107  0.00  0.00    +0.035 A 
ATOM      8  C   UNL     1       4.088  -6.928   9.455  0.00  0.00    +0.025 A 
ATOM      9  C   UNL     1       4.140  -8.252   9.841  0.00  0.00    +0.025 A 
ATOM     10  C   UNL     1       4.224  -9.252   8.881  0.00  0.00    +0.036 A 
ATOM     11  C   UNL     1       4.256  -8.919   7.533  0.00  0.00    -0.027 A 
ATOM     12  C   UNL     1       4.198  -7.595   7.147  0.00  0.00    +0.028 A 
ATOM     13  C   UNL     1       4.347 -10.005   6.491  0.00  0.00    +0.046 C 
BRANCH  10  14
ATOM     14  N   UNL     1       4.277 -10.596   9.272  0.00  0.00    -0.285 N 
ATOM     15  C   UNL     1       4.759 -10.926  10.487  0.00  0.00    +0.217 C 
ATOM     16  O   UNL     1       5.085 -10.056  11.266  0.00  0.00    -0.275 OA
ATOM     17  H   UNL     1       3.967 -11.289   8.669  0.00  0.00    +0.155 HD
BRANCH  15  18
ATOM     18  C   UNL     1       4.891 -12.375  10.877  0.00  0.00    +0.093 C 
ATOM     19  C   UNL     1       5.458 -12.472  12.295  0.00  0.00    +0.013 C 
ENDBRANCH  15  18
ENDBRANCH  10  14
ENDBRANCH   4   7
BRANCH   1  20
ATOM     20  C   UNL     1       2.574  -3.221   5.038  0.00  0.00    +0.095 C 
BRANCH  20  21
ATOM     21  C   UNL     1       2.683  -1.709   4.833  0.00  0.00    -0.021 C 
BRANCH  21  25
ATOM     22  C   UNL     1       6.791  -0.625   4.390  0.00  0.00    -0.048 A 
ATOM     23  C   UNL     1       6.157  -0.449   5.606  0.00  0.00    +0.004 A 
ATOM     24  C   UNL     1       4.827  -0.799   5.749  0.00  0.00    +0.002 A 
ATOM     25  C   UNL     1       4.132  -1.326   4.677  0.00  0.00    -0.059 A 
ATOM     26  C   UNL     1       4.766  -1.502   3.461  0.00  0.00    +0.002 A 
ATOM     27  C   UNL     1       6.094  -1.147   3.316  0.00  0.00    +0.004 A 
BRANCH  22  29
ATOM     28  C   UNL     1       8.337   1.218   3.789  0.00  0.00    +0.009 C 
ATOM     29  C   UNL     1       8.240  -0.243   4.234  0.00  0.00    +0.032 C 
ENDBRANCH  22  29
ENDBRANCH  21  25
BRANCH  21  30
ATOM     30  N   UNL     1       1.941  -1.324   3.625  0.00  0.00    +0.382 N 
ATOM     31  C   UNL     1       0.511  -1.596   3.821  0.00  0.00    -0.096 C 
ATOM     32  C   UNL     1       2.136   0.109   3.367  0.00  0.00    -0.096 C 
ATOM     33  H   UNL     1       2.280  -1.857   2.838  0.00  0.00    -0.082 HD
ENDBRANCH  21  30
ENDBRANCH  20  21
ENDBRANCH   1  20
TORSDOF 8
