REMARK  Name = ZINC40005594
REMARK  7 active torsions:
REMARK  status: ('A' for Active; 'I' for Inactive)
REMARK    1  A    between atoms: C_1  and  C_2
REMARK    2  A    between atoms: C_5  and  N_9
REMARK    3  A    between atoms: C_10  and  C_12
REMARK    4  A    between atoms: C_14  and  C_22
REMARK    5  A    between atoms: C_16  and  C_19
REMARK    6  A    between atoms: C_17  and  C_18
REMARK    7  A    between atoms: C_19  and  C_21
REMARK                            x       y       z     vdW  Elec       q    Type
REMARK                         _______ _______ _______ _____ _____    ______ ____
ROOT
ATOM      1  N   UNL     1      -0.413  -4.221   0.090  0.00  0.00    -0.279 N 
ATOM      2  C   UNL     1      -0.461  -4.851  -1.100  0.00  0.00    +0.266 C 
ATOM      3  O   UNL     1      -0.598  -4.210  -2.123  0.00  0.00    -0.268 OA
ATOM      4  H   UNL     1      -0.220  -4.722   0.897  0.00  0.00    +0.155 HD
ENDROOT
BRANCH   1   9
ATOM      5  C   UNL     1      -1.350   1.367   0.378  0.00  0.00    +0.044 C 
ATOM      6  C   UNL     1      -1.101  -0.117   0.302  0.00  0.00    -0.049 A 
ATOM      7  C   UNL     1      -1.548  -0.837  -0.792  0.00  0.00    +0.005 A 
ATOM      8  C   UNL     1      -1.321  -2.197  -0.865  0.00  0.00    +0.025 A 
ATOM      9  C   UNL     1      -0.644  -2.843   0.161  0.00  0.00    +0.048 A 
ATOM     10  C   UNL     1      -0.196  -2.118   1.258  0.00  0.00    +0.039 A 
ATOM     11  C   UNL     1      -0.421  -0.756   1.323  0.00  0.00    +0.020 A 
ATOM     12 BR   UNL     1       0.727  -2.992   2.658  0.00  0.00    -0.048 Br
ENDBRANCH   1   9
BRANCH   2  13
ATOM     13  C   UNL     1      -0.345  -6.332  -1.162  0.00  0.00    +0.124 C 
ATOM     14  N   UNL     1      -0.202  -7.101  -0.129  0.00  0.00    -0.271 NA
ATOM     15  C   UNL     1      -0.125  -8.492  -0.591  0.00  0.00    +0.137 C 
ATOM     16  C   UNL     1      -0.248  -8.430  -2.097  0.00  0.00    +0.024 C 
ATOM     17  C   UNL     1      -0.384  -7.119  -2.402  0.00  0.00    -0.012 C 
ATOM     18  C   UNL     1      -0.545  -6.556  -3.790  0.00  0.00    +0.046 C 
ATOM     19  C   UNL     1       1.218  -9.108  -0.193  0.00  0.00    +0.038 C 
BRANCH  16  20
ATOM     20  C   UNL     1      -0.229  -9.554  -3.031  0.00  0.00    +0.159 C 
ATOM     21  O   UNL     1      -0.223  -9.350  -4.227  0.00  0.00    -0.293 OA
ATOM     22  C   UNL     1      -0.218 -10.968  -2.507  0.00  0.00    +0.091 C 
ENDBRANCH  16  20
ENDBRANCH   2  13
TORSDOF 3
