REMARK  Name = ZINC39771828
REMARK  11 active torsions:
REMARK  status: ('A' for Active; 'I' for Inactive)
REMARK    1  A    between atoms: C_1  and  C_2
REMARK    2  A    between atoms: C_2  and  C_4
REMARK    3  A    between atoms: C_2  and  N_21
REMARK    4  A    between atoms: C_9  and  C_12
REMARK    5  A    between atoms: C_22  and  C_24
REMARK    6  A    between atoms: C_26  and  O_34
REMARK    7  A    between atoms: C_27  and  O_32
REMARK    8  A    between atoms: C_28  and  O_30
REMARK    9  A    between atoms: O_30  and  C_31
REMARK   10  A    between atoms: O_32  and  C_33
REMARK   11  A    between atoms: O_34  and  C_35
REMARK                            x       y       z     vdW  Elec       q    Type
REMARK                         _______ _______ _______ _____ _____    ______ ____
ROOT
ATOM      1  C   UNL     1      -0.236   1.611  -0.589  0.00  0.00    +0.038 C 
ATOM      2  C   UNL     1      -0.167   0.100  -0.358  0.00  0.00    +0.156 C 
ENDROOT
BRANCH   2   3
ATOM      3  C   UNL     1       0.582  -0.547  -1.494  0.00  0.00    +0.236 C 
ATOM      4  O   UNL     1      -0.027  -1.013  -2.434  0.00  0.00    -0.274 OA
ATOM      5  N   UNL     1       1.928  -0.609  -1.466  0.00  0.00    -0.296 N 
ATOM      6  C   UNL     1       2.694  -1.132  -2.611  0.00  0.00    +0.113 C 
ATOM      7  C   UNL     1       3.573  -0.000  -3.149  0.00  0.00    +0.054 C 
ATOM      8  C   UNL     1       4.263   0.708  -2.021  0.00  0.00    -0.043 C 
ATOM      9  C   UNL     1       3.872   0.649  -0.753  0.00  0.00    -0.004 C 
ATOM     10  C   UNL     1       2.689  -0.151  -0.295  0.00  0.00    +0.135 C 
BRANCH   8  11
ATOM     11  C   UNL     1       5.399   1.485  -2.326  0.00  0.00    -0.016 C 
ATOM     12  C   UNL     1       5.904   1.774  -3.587  0.00  0.00    +0.003 A 
ATOM     13  C   UNL     1       5.484   1.417  -4.889  0.00  0.00    +0.010 A 
ATOM     14  C   UNL     1       6.186   1.853  -5.965  0.00  0.00    +0.001 A 
ATOM     15  C   UNL     1       7.324   2.653  -5.823  0.00  0.00    +0.002 A 
ATOM     16  C   UNL     1       7.785   3.034  -4.607  0.00  0.00    +0.026 A 
ATOM     17  C   UNL     1       7.104   2.618  -3.432  0.00  0.00    +0.043 A 
ATOM     18  N   UNL     1       7.343   2.847  -2.159  0.00  0.00    -0.380 N 
ATOM     19  C   UNL     1       6.319   2.182  -1.348  0.00  0.00    +0.149 C 
ATOM     20  H   UNL     1       8.078   3.377  -1.812  0.00  0.00    +0.160 HD
ENDBRANCH   8  11
ENDBRANCH   2   3
BRANCH   2  21
ATOM     21  N   UNL     1      -1.524  -0.447  -0.293  0.00  0.00    -0.300 N 
ATOM     22  C   UNL     1      -2.203  -0.430   0.872  0.00  0.00    +0.245 C 
ATOM     23  O   UNL     1      -1.687   0.038   1.868  0.00  0.00    -0.270 OA
ATOM     24  H   UNL     1      -1.935  -0.820  -1.088  0.00  0.00    +0.150 HD
BRANCH  22  25
ATOM     25  C   UNL     1      -3.570  -0.981   0.937  0.00  0.00    +0.044 A 
ATOM     26  C   UNL     1      -4.161  -1.525  -0.206  0.00  0.00    +0.062 A 
ATOM     27  C   UNL     1      -5.442  -2.041  -0.142  0.00  0.00    +0.166 A 
ATOM     28  C   UNL     1      -6.143  -2.018   1.061  0.00  0.00    +0.204 A 
ATOM     29  C   UNL     1      -5.557  -1.476   2.201  0.00  0.00    +0.166 A 
ATOM     30  C   UNL     1      -4.274  -0.965   2.144  0.00  0.00    +0.062 A 
BRANCH  29  31
ATOM     31  O   UNL     1      -6.245  -1.455   3.374  0.00  0.00    -0.491 OA
ATOM     32  C   UNL     1      -5.583  -0.884   4.505  0.00  0.00    +0.277 C 
ENDBRANCH  29  31
BRANCH  28  33
ATOM     33  O   UNL     1      -7.403  -2.526   1.121  0.00  0.00    -0.488 OA
ATOM     34  C   UNL     1      -7.529  -3.911   1.449  0.00  0.00    +0.277 C 
ENDBRANCH  28  33
BRANCH  27  35
ATOM     35  O   UNL     1      -6.018  -2.571  -1.254  0.00  0.00    -0.491 OA
ATOM     36  C   UNL     1      -5.241  -2.561  -2.454  0.00  0.00    +0.277 C 
ENDBRANCH  27  35
ENDBRANCH  22  25
ENDBRANCH   2  21
TORSDOF 7
