REMARK  Name = ZINC11380109
REMARK  4 active torsions:
REMARK  status: ('A' for Active; 'I' for Inactive)
REMARK    1  A    between atoms: C_13  and  C_16
REMARK    2  A    between atoms: N_18  and  C_19
REMARK    3  A    between atoms: C_19  and  C_20
REMARK    4  A    between atoms: C_20  and  C_21
REMARK                            x       y       z     vdW  Elec       q    Type
REMARK                         _______ _______ _______ _____ _____    ______ ____
ROOT
ATOM      1  C   UNL     1      -1.187   1.624   0.017  0.00  0.00    +0.216 C 
ATOM      2  O   UNL     1      -1.204   2.837   0.023  0.00  0.00    -0.276 OA
ATOM      3  N   UNL     1      -0.011   0.966   0.007  0.00  0.00    -0.315 N 
ATOM      4  H   UNL     1       0.002  -0.004   0.002  0.00  0.00    +0.149 HD
ENDROOT
BRANCH   1  17
ATOM      5  C   UNL     1      -9.938  -2.703  -2.482  0.00  0.00    +0.002 A 
ATOM      6  C   UNL     1     -10.385  -2.120  -1.307  0.00  0.00    +0.004 A 
ATOM      7  C   UNL     1      -9.560  -1.286  -0.581  0.00  0.00    +0.048 A 
ATOM      8  C   UNL     1      -8.274  -1.029  -1.026  0.00  0.00    +0.157 A 
ATOM      9  C   UNL     1      -7.816  -1.617  -2.215  0.00  0.00    +0.111 A 
ATOM     10  C   UNL     1      -8.661  -2.458  -2.940  0.00  0.00    +0.031 A 
ATOM     11  N   UNL     1      -6.537  -1.187  -2.396  0.00  0.00    -0.195 NA
ATOM     12  C   UNL     1      -6.217  -0.395  -1.404  0.00  0.00    +0.291 A 
ATOM     13  O   UNL     1      -7.250  -0.282  -0.551  0.00  0.00    -0.424 OA
ATOM     14  N   UNL     1      -4.998   0.226  -1.253  0.00  0.00    -0.285 N 
ATOM     15  C   UNL     1      -4.971   1.043  -0.033  0.00  0.00    +0.110 C 
ATOM     16  C   UNL     1      -3.660   1.831   0.026  0.00  0.00    +0.032 C 
ATOM     17  C   UNL     1      -2.482   0.853   0.018  0.00  0.00    +0.078 C 
ATOM     18  C   UNL     1      -2.560  -0.020  -1.237  0.00  0.00    +0.032 C 
ATOM     19  C   UNL     1      -3.903  -0.753  -1.261  0.00  0.00    +0.110 C 
ENDBRANCH   1  17
BRANCH   3  20
ATOM     20  C   UNL     1       1.248   1.716  -0.001  0.00  0.00    +0.112 C 
BRANCH  20  21
ATOM     21  C   UNL     1       2.424   0.737  -0.017  0.00  0.00    +0.095 C 
BRANCH  21  22
ATOM     22  C   UNL     1       3.719   1.508  -0.025  0.00  0.00    +0.135 A 
ATOM     23  N   UNL     1       4.396   1.899   1.022  0.00  0.00    -0.134 NA
ATOM     24  N   UNL     1       5.454   2.528   0.644  0.00  0.00    -0.134 NA
ATOM     25  C   UNL     1       5.500   2.561  -0.657  0.00  0.00    +0.133 A 
ATOM     26  N   UNL     1       4.400   1.920  -1.117  0.00  0.00    -0.315 N 
ATOM     27  C   UNL     1       4.025   1.730  -2.518  0.00  0.00    +0.125 C 
ATOM     28  C   UNL     1       5.288   1.701  -3.383  0.00  0.00    +0.022 C 
ATOM     29  C   UNL     1       5.641   3.120  -3.829  0.00  0.00    +0.002 C 
ATOM     30  C   UNL     1       5.928   4.004  -2.619  0.00  0.00    +0.008 C 
ATOM     31  C   UNL     1       6.577   3.175  -1.514  0.00  0.00    +0.076 C 
ENDBRANCH  21  22
ENDBRANCH  20  21
ENDBRANCH   3  20
TORSDOF 4
