REMARK  Name = ZINC07765536
REMARK  8 active torsions:
REMARK  status: ('A' for Active; 'I' for Inactive)
REMARK    1  A    between atoms: C_1  and  C_2
REMARK    2  A    between atoms: N_11  and  C_15
REMARK    3  A    between atoms: C_15  and  C_16
REMARK    4  A    between atoms: C_16  and  O_18
REMARK    5  A    between atoms: O_18  and  C_19
REMARK    6  A    between atoms: C_19  and  C_21
REMARK    7  A    between atoms: C_19  and  C_22
REMARK    8  A    between atoms: N_24  and  C_25
REMARK                            x       y       z     vdW  Elec       q    Type
REMARK                         _______ _______ _______ _____ _____    ______ ____
ROOT
ATOM      1  C   UNL     1       0.022  -0.620   1.195  0.00  0.00    +0.326 C 
ATOM      2  O   UNL     1       0.022   0.033   2.212  0.00  0.00    -0.249 OA
ENDROOT
BRANCH   1   3
ATOM      3  C   UNL     1       0.043  -2.125   1.265  0.00  0.00    +0.238 C 
BRANCH   3  13
ATOM      4  C   UNL     1       0.759  -5.546   3.993  0.00  0.00    +0.010 C 
ATOM      5  C   UNL     1       1.221  -4.576   5.083  0.00  0.00    +0.018 C 
ATOM      6  C   UNL     1       2.750  -4.574   5.150  0.00  0.00    +0.006 C 
ATOM      7  C   UNL     1       3.211  -3.589   6.226  0.00  0.00    +0.000 C 
ATOM      8  C   UNL     1       2.724  -2.182   5.872  0.00  0.00    +0.003 C 
ATOM      9  C   UNL     1       1.195  -2.174   5.809  0.00  0.00    +0.035 C 
ATOM     10  C   UNL     1       0.722  -3.172   4.758  0.00  0.00    +0.115 C 
ATOM     11  C   UNL     1       1.188  -2.757   3.381  0.00  0.00    +0.247 C 
ATOM     12  O   UNL     1       2.332  -2.634   3.000  0.00  0.00    -0.273 OA
ATOM     13  N   UNL     1       0.062  -2.548   2.668  0.00  0.00    -0.213 N 
ATOM     14  C   UNL     1      -1.035  -2.781   3.398  0.00  0.00    +0.310 C 
ATOM     15  O   UNL     1      -2.168  -2.664   2.973  0.00  0.00    -0.252 OA
ATOM     16  N   UNL     1      -0.743  -3.158   4.658  0.00  0.00    -0.285 N 
ATOM     17  H   UNL     1      -1.376  -3.377   5.360  0.00  0.00    +0.151 HD
ENDBRANCH   3  13
ENDBRANCH   1   3
BRANCH   1  18
ATOM     18  O   UNL     1       0.002  -0.004   0.002  0.00  0.00    -0.451 OA
BRANCH  18  19
ATOM     19  C   UNL     1      -0.018   1.448   0.010  0.00  0.00    +0.258 C 
ATOM     20  C   UNL     1       1.418   1.977  -0.001  0.00  0.00    +0.062 C 
BRANCH  19  21
ATOM     21  C   UNL     1      -0.747   1.947  -1.211  0.00  0.00    +0.254 C 
ATOM     22  O   UNL     1      -1.204   1.157  -2.009  0.00  0.00    -0.272 OA
ATOM     23  N   UNL     1      -0.890   3.271  -1.416  0.00  0.00    -0.309 N 
ATOM     24  H   UNL     1      -0.523   3.903  -0.777  0.00  0.00    +0.149 HD
BRANCH  23  25
ATOM     25  C   UNL     1      -1.598   3.757  -2.603  0.00  0.00    +0.073 C 
ATOM     26  C   UNL     1      -0.616   3.790  -3.792  0.00  0.00    +0.022 C 
ATOM     27  C   UNL     1      -1.413   3.781  -5.069  0.00  0.00    +0.002 C 
ATOM     28  C   UNL     1      -1.669   5.200  -5.612  0.00  0.00    +0.000 C 
ATOM     29  C   UNL     1      -2.034   6.207  -4.505  0.00  0.00    +0.000 C 
ATOM     30  C   UNL     1      -2.983   5.628  -3.491  0.00  0.00    +0.002 C 
ATOM     31  C   UNL     1      -2.160   5.068  -2.313  0.00  0.00    +0.022 C 
ENDBRANCH  23  25
ENDBRANCH  19  21
ENDBRANCH  18  19
ENDBRANCH   1  18
TORSDOF 6
