REMARK  Name = ZINC05208112
REMARK  8 active torsions:
REMARK  status: ('A' for Active; 'I' for Inactive)
REMARK    1  A    between atoms: C_2  and  C_23
REMARK    2  A    between atoms: N_9  and  C1*_10
REMARK    3  A    between atoms: C2*_12  and  O2*_22
REMARK    4  A    between atoms: C3*_14  and  O3*_21
REMARK    5  A    between atoms: C4*_16  and  C5*_19
REMARK    6  A    between atoms: C5*_19  and  O5*_20
REMARK    7  A    between atoms: C_23  and  C_24
REMARK    8  A    between atoms: C_24  and  C_25
REMARK                            x       y       z     vdW  Elec       q    Type
REMARK                         _______ _______ _______ _____ _____    ______ ____
ROOT
ATOM      1  C   UNL     1      -1.225   3.204  -0.230  0.00  0.00    +0.102 A 
ATOM      2  C   UNL     1      -0.074   3.910  -0.238  0.00  0.00    +0.033 A 
ATOM      3  C   UNL     1       1.147   3.239   0.018  0.00  0.00    +0.257 A 
ATOM      4  O   UNL     1       2.198   3.854   0.017  0.00  0.00    -0.267 OA
ATOM      5  N   UNL     1       1.134   1.913   0.264  0.00  0.00    -0.275 N 
ATOM      6  H   UNL     1       1.992   1.433   0.446  0.00  0.00    +0.173 HD
ATOM      7  C   UNL     1      -0.028   1.234   0.265  0.00  0.00    +0.331 A 
ATOM      8  O   UNL     1      -0.024   0.039   0.487  0.00  0.00    -0.246 OA
ATOM      9  N   UNL     1      -1.194   1.859   0.018  0.00  0.00    -0.271 N 
ENDROOT
BRANCH   9  10
ATOM     10  C1* UNL     1      -2.442   1.092   0.020  0.00  0.00    +0.255 C 
ATOM     11  C2* UNL     1      -3.517   1.817   0.860  0.00  0.00    +0.195 C 
ATOM     12  C3* UNL     1      -4.315   2.637  -0.179  0.00  0.00    +0.178 C 
ATOM     13  C4* UNL     1      -3.628   2.310  -1.523  0.00  0.00    +0.177 C 
ATOM     14  O4* UNL     1      -2.996   1.029  -1.312  0.00  0.00    -0.346 OA
BRANCH  12  15
ATOM     15  O3* UNL     1      -5.683   2.224  -0.199  0.00  0.00    -0.386 OA
ATOM     16  H3* UNL     1      -6.230   2.706  -0.834  0.00  0.00    +0.210 HD
ENDBRANCH  12  15
BRANCH  11  17
ATOM     17  O2* UNL     1      -2.905   2.683   1.817  0.00  0.00    -0.385 OA
ATOM     18  H2* UNL     1      -3.534   3.164   2.372  0.00  0.00    +0.210 HD
ENDBRANCH  11  17
BRANCH  13  19
ATOM     19  C5* UNL     1      -4.667   2.214  -2.643  0.00  0.00    +0.190 C 
BRANCH  19  20
ATOM     20  O5* UNL     1      -4.002   2.027  -3.894  0.00  0.00    -0.392 OA
ATOM     21  H5* UNL     1      -4.601   1.957  -4.650  0.00  0.00    +0.210 HD
ENDBRANCH  19  20
ENDBRANCH  13  19
ENDBRANCH   9  10
BRANCH   2  22
ATOM     22  C   UNL     1      -0.088   5.391  -0.515  0.00  0.00    +0.047 C 
BRANCH  22  23
ATOM     23  C   UNL     1      -0.119   6.157   0.809  0.00  0.00    +0.077 C 
BRANCH  23  24
ATOM     24  C   UNL     1      -0.133   7.661   0.528  0.00  0.00    +0.341 C 
ATOM     25  F   UNL     1      -1.323   8.002  -0.125  0.00  0.00    -0.209 F 
ATOM     26  F   UNL     1      -0.047   8.362   1.736  0.00  0.00    -0.209 F 
ENDBRANCH  23  24
ENDBRANCH  22  23
ENDBRANCH   2  22
TORSDOF 8
