REMARK  Name = ZINC06501194
REMARK  16 active torsions:
REMARK  status: ('A' for Active; 'I' for Inactive)
REMARK    1  A    between atoms: C_1  and  C_2
REMARK    2  A    between atoms: C_2  and  C_3
REMARK    3  A    between atoms: C_3  and  C_4
REMARK    4  A    between atoms: C_4  and  C_6
REMARK    5  A    between atoms: C_4  and  N_14
REMARK    6  A    between atoms: N_8  and  C_9
REMARK    7  A    between atoms: C_9  and  C_10
REMARK    8  A    between atoms: C_10  and  C_11
REMARK    9  A    between atoms: C_11  and  C_12
REMARK   10  A    between atoms: C_11  and  C_13
REMARK   11  A    between atoms: N_14  and  C_15
REMARK   12  A    between atoms: C_19  and  C_22
REMARK   13  A    between atoms: C_20  and  C_21
REMARK   14  A    between atoms: C_23  and  C_25
REMARK   15  A    between atoms: C_26  and  N_33
REMARK   16  A    between atoms: C_27  and  C_30
REMARK                            x       y       z     vdW  Elec       q    Type
REMARK                         _______ _______ _______ _____ _____    ______ ____
ROOT
ATOM      1  N   UNL     1      -0.604   0.150   0.368  0.00  0.00    -0.255 N 
ATOM      2  C   UNL     1      -0.633  -0.172   1.676  0.00  0.00    +0.261 C 
ATOM      3  O   UNL     1      -0.328   0.657   2.514  0.00  0.00    -0.269 OA
ENDROOT
BRANCH   1   4
ATOM      4  C   UNL     1      -0.888  -0.821  -0.598  0.00  0.00    +0.041 A 
ATOM      5  C   UNL     1       0.142  -1.401  -1.326  0.00  0.00    +0.024 A 
ATOM      6  C   UNL     1      -0.141  -2.364  -2.275  0.00  0.00    +0.002 A 
ATOM      7  C   UNL     1      -1.451  -2.742  -2.508  0.00  0.00    +0.004 A 
ATOM      8  C   UNL     1      -2.480  -2.162  -1.788  0.00  0.00    -0.046 A 
ATOM      9  C   UNL     1      -2.202  -1.203  -0.834  0.00  0.00    -0.026 A 
ATOM     10  C   UNL     1      -3.324  -0.572  -0.050  0.00  0.00    +0.046 C 
ATOM     11  C   UNL     1      -3.906  -2.577  -2.046  0.00  0.00    +0.044 C 
ENDBRANCH   1   4
BRANCH   2  12
ATOM     12  C   UNL     1      -1.032  -1.518   2.090  0.00  0.00    +0.116 A 
ATOM     13  C   UNL     1      -1.246  -2.022   3.375  0.00  0.00    +0.076 A 
ATOM     14  C   UNL     1      -1.624  -3.364   3.365  0.00  0.00    +0.155 A 
ATOM     15  N   UNL     1      -1.727  -3.996   2.217  0.00  0.00    -0.203 NA
ATOM     16  S   UNL     1      -1.367  -2.953   1.091  0.00  0.00    +0.019 S 
BRANCH  14  17
ATOM     17  C   UNL     1      -1.899  -4.070   4.630  0.00  0.00    +0.262 C 
ATOM     18  O   UNL     1      -1.801  -3.480   5.689  0.00  0.00    -0.269 OA
ATOM     19  N   UNL     1      -2.258  -5.369   4.614  0.00  0.00    -0.324 N 
ATOM     20  H   UNL     1      -2.336  -5.840   3.769  0.00  0.00    +0.145 HD
ATOM     21  H   UNL     1      -2.438  -5.833   5.446  0.00  0.00    +0.145 HD
ENDBRANCH  14  17
BRANCH  13  22
ATOM     22  N   UNL     1      -1.102  -1.269   4.532  0.00  0.00    -0.355 N 
ATOM     23  H   UNL     1      -0.838  -0.338   4.476  0.00  0.00    +0.142 HD
ATOM     24  H   UNL     1      -1.264  -1.675   5.398  0.00  0.00    +0.142 HD
ENDBRANCH  13  22
ENDBRANCH   2  12
BRANCH   1  25
ATOM     25  C   UNL     1      -0.273   1.517  -0.043  0.00  0.00    +0.167 C 
BRANCH  25  26
ATOM     26  C   UNL     1      -1.362   2.049  -0.939  0.00  0.00    +0.234 C 
ATOM     27  O   UNL     1      -1.993   1.290  -1.643  0.00  0.00    -0.274 OA
ATOM     28  N   UNL     1      -1.635   3.369  -0.957  0.00  0.00    -0.314 N 
ATOM     29  H   UNL     1      -1.130   3.976  -0.394  0.00  0.00    +0.149 HD
BRANCH  28  30
ATOM     30  C   UNL     1      -2.693   3.886  -1.828  0.00  0.00    +0.104 C 
BRANCH  30  31
ATOM     31  C   UNL     1      -2.797   5.404  -1.658  0.00  0.00    +0.022 C 
BRANCH  31  32
ATOM     32  C   UNL     1      -3.902   5.944  -2.567  0.00  0.00    -0.016 C 
ATOM     33  C   UNL     1      -5.254   5.393  -2.110  0.00  0.00    +0.007 C 
ATOM     34  C   UNL     1      -3.923   7.472  -2.492  0.00  0.00    +0.007 C 
ENDBRANCH  31  32
ENDBRANCH  30  31
ENDBRANCH  28  30
ENDBRANCH  25  26
BRANCH  25  35
ATOM     35  C   UNL     1       1.055   1.514  -0.802  0.00  0.00    +0.032 C 
BRANCH  35  37
ATOM     36  C   UNL     1       3.522   1.170  -0.596  0.00  0.00    +0.004 C 
ATOM     37  C   UNL     1       2.193   1.173   0.163  0.00  0.00    -0.001 C 
ENDBRANCH  35  37
ENDBRANCH  25  35
ENDBRANCH   1  25
TORSDOF 11
