REMARK  Name = ZINC19152649
REMARK  6 active torsions:
REMARK  status: ('A' for Active; 'I' for Inactive)
REMARK    1  A    between atoms: C_1  and  O_2
REMARK    2  A    between atoms: O_2  and  C_3
REMARK    3  A    between atoms: C_4  and  C_20
REMARK    4  A    between atoms: C_5  and  C_12
REMARK    5  A    between atoms: C_6  and  C_10
REMARK    6  A    between atoms: C_7  and  N_9
REMARK                            x       y       z     vdW  Elec       q    Type
REMARK                         _______ _______ _______ _____ _____    ______ ____
ROOT
ATOM      1  C   UNL     1       5.567  -1.733   1.096  0.00  0.00    +0.235 A 
ATOM      2  C   UNL     1       4.344  -1.045   1.161  0.00  0.00    +0.122 A 
ATOM      3  C   UNL     1       3.695  -0.689  -0.038  0.00  0.00    +0.027 A 
ATOM      4  C   UNL     1       4.317  -1.035  -1.255  0.00  0.00    +0.100 A 
ATOM      5  C   UNL     1       5.545  -1.720  -1.220  0.00  0.00    +0.138 A 
ATOM      6  N   UNL     1       6.114  -2.038  -0.068  0.00  0.00    -0.196 NA
ENDROOT
BRANCH   3   7
ATOM      7  C   UNL     1       2.404   0.031  -0.021  0.00  0.00    +0.005 A 
ATOM      8  C   UNL     1       1.204  -0.681  -0.014  0.00  0.00    +0.010 A 
ATOM      9  C   UNL     1       0.002  -0.004   0.002  0.00  0.00    +0.002 A 
ATOM     10  C   UNL     1      -0.017   1.380   0.010  0.00  0.00    +0.021 A 
ATOM     11  C   UNL     1       1.169   2.094   0.002  0.00  0.00    +0.060 A 
ATOM     12  C   UNL     1       2.380   1.427  -0.013  0.00  0.00    +0.067 A 
ATOM     13 CL   UNL     1       3.867   2.324  -0.022  0.00  0.00    -0.081 Cl
ATOM     14 CL   UNL     1       1.135   3.830   0.012  0.00  0.00    -0.082 Cl
ENDBRANCH   3   7
BRANCH   5  15
ATOM     15  N   UNL     1       6.165  -2.066  -2.404  0.00  0.00    -0.342 N 
ATOM     16  H   UNL     1       5.753  -1.837  -3.252  0.00  0.00    +0.144 HD
ATOM     17  H   UNL     1       7.012  -2.538  -2.388  0.00  0.00    +0.144 HD
ENDBRANCH   5  15
BRANCH   1  19
ATOM     18  C   UNL     1       7.439  -2.778   2.112  0.00  0.00    +0.279 C 
ATOM     19  O   UNL     1       6.196  -2.084   2.241  0.00  0.00    -0.479 OA
ENDBRANCH   1  19
BRANCH   4  20
ATOM     20  C   UNL     1       3.708  -0.695  -2.506  0.00  0.00    +0.103 C 
ATOM     21  N   UNL     1       3.225  -0.425  -3.498  0.00  0.00    -0.191 NA
ENDBRANCH   4  20
BRANCH   2  22
ATOM     22  C   UNL     1       3.762  -0.715   2.428  0.00  0.00    +0.105 C 
ATOM     23  N   UNL     1       3.301  -0.453   3.432  0.00  0.00    -0.191 NA
ENDBRANCH   2  22
TORSDOF 5
