REMARK  Name = ZINC44754798
REMARK  7 active torsions:
REMARK  status: ('A' for Active; 'I' for Inactive)
REMARK    1  A    between atoms: C_1  and  C_2
REMARK    2  A    between atoms: C_4  and  C_29
REMARK    3  A    between atoms: C_6  and  N_8
REMARK    4  A    between atoms: C_12  and  S_13
REMARK    5  A    between atoms: S_13  and  C_14
REMARK    6  A    between atoms: C_14  and  C_15
REMARK    7  A    between atoms: N_17  and  C_18
REMARK                            x       y       z     vdW  Elec       q    Type
REMARK                         _______ _______ _______ _____ _____    ______ ____
ROOT
ATOM      1  C   UNL     1       2.901  -1.612   5.168  0.00  0.00    +0.173 C 
ENDROOT
BRANCH   1   2
ATOM      2  C   UNL     1       4.023  -0.625   5.364  0.00  0.00    +0.227 C 
ATOM      3  O   UNL     1       4.298   0.164   4.484  0.00  0.00    -0.275 OA
ATOM      4  N   UNL     1       4.721  -0.618   6.517  0.00  0.00    -0.285 N 
ATOM      5  H   UNL     1       4.459  -1.202   7.246  0.00  0.00    +0.155 HD
BRANCH   4   6
ATOM      6  C   UNL     1       5.824   0.233   6.663  0.00  0.00    +0.036 A 
ATOM      7  C   UNL     1       6.929  -0.183   7.396  0.00  0.00    +0.027 A 
ATOM      8  C   UNL     1       8.020   0.650   7.543  0.00  0.00    +0.050 A 
ATOM      9  C   UNL     1       8.016   1.907   6.958  0.00  0.00    +0.157 A 
ATOM     10  C   UNL     1       6.908   2.326   6.221  0.00  0.00    +0.089 A 
ATOM     11  C   UNL     1       5.816   1.487   6.070  0.00  0.00    +0.052 A 
ATOM     12  N   UNL     1       7.195   3.613   5.766  0.00  0.00    -0.288 N 
ATOM     13  H   UNL     1       6.617   4.172   5.224  0.00  0.00    +0.172 HD
ATOM     14  C   UNL     1       8.423   3.937   6.217  0.00  0.00    +0.419 A 
ATOM     15  O   UNL     1       8.992   4.991   6.007  0.00  0.00    -0.223 OA
ATOM     16  O   UNL     1       8.921   2.917   6.933  0.00  0.00    -0.408 OA
ENDBRANCH   4   6
ENDBRANCH   1   2
BRANCH   1  17
ATOM     17  S   UNL     1       2.163  -1.371   3.528  0.00  0.00    -0.078 S 
BRANCH  17  22
ATOM     18  N   UNL     1       0.044  -2.790   2.401  0.00  0.00    -0.295 N 
ATOM     19  C   UNL     1      -0.791  -3.829   2.754  0.00  0.00    +0.113 A 
ATOM     20  C   UNL     1      -0.440  -4.210   3.994  0.00  0.00    +0.131 A 
ATOM     21  N   UNL     1       0.581  -3.436   4.402  0.00  0.00    -0.230 NA
ATOM     22  C   UNL     1       0.886  -2.582   3.453  0.00  0.00    +0.174 A 
BRANCH  18  28
ATOM     23  C   UNL     1       0.001   1.500  -0.005  0.00  0.00    +0.044 C 
ATOM     24  C   UNL     1       0.012  -0.007  -0.006  0.00  0.00    -0.048 A 
ATOM     25  C   UNL     1       0.013  -0.697  -1.204  0.00  0.00    +0.006 A 
ATOM     26  C   UNL     1       0.024  -2.080  -1.209  0.00  0.00    -0.048 A 
ATOM     27  C   UNL     1       0.034  -2.776  -0.016  0.00  0.00    +0.029 A 
ATOM     28  C   UNL     1       0.034  -2.086   1.188  0.00  0.00    +0.049 A 
ATOM     29  C   UNL     1       0.028  -0.698   1.190  0.00  0.00    +0.029 A 
ATOM     30  C   UNL     1       0.024  -2.828  -2.517  0.00  0.00    +0.044 C 
ENDBRANCH  18  28
ENDBRANCH  17  22
ENDBRANCH   1  17
TORSDOF 5
