REMARK  Name = ZINC33910434
REMARK  7 active torsions:
REMARK  status: ('A' for Active; 'I' for Inactive)
REMARK    1  A    between atoms: C_8  and  C_10
REMARK    2  A    between atoms: N_18  and  C_21
REMARK    3  A    between atoms: C_27  and  C_29
REMARK    4  A    between atoms: C_27  and  C_36
REMARK    5  A    between atoms: C_29  and  C_30
REMARK    6  A    between atoms: C_30  and  C_31
REMARK    7  A    between atoms: C_31  and  N_32
REMARK                            x       y       z     vdW  Elec       q    Type
REMARK                         _______ _______ _______ _____ _____    ______ ____
ROOT
ATOM      1  C   UNL     1       3.799  -3.358  -0.053  0.00  0.00    +0.010 C 
ATOM      2  C   UNL     1       4.368  -3.639   1.334  0.00  0.00    +0.080 C 
ATOM      3  C   UNL     1       5.469  -2.512   1.326  0.00  0.00    +0.086 C 
ATOM      4  C   UNL     1       5.795  -2.402   2.728  0.00  0.00    +0.225 C 
ATOM      5  O   UNL     1       6.873  -2.141   3.217  0.00  0.00    -0.275 OA
ATOM      6  N   UNL     1       4.617  -2.657   3.386  0.00  0.00    -0.239 N 
ATOM      7  C   UNL     1       3.647  -3.200   2.569  0.00  0.00    +0.225 C 
ATOM      8  O   UNL     1       2.460  -3.297   2.793  0.00  0.00    -0.275 OA
ATOM      9  C   UNL     1       6.130  -2.688   0.027  0.00  0.00    +0.048 C 
ATOM     10  N   UNL     1       5.024  -3.156  -0.893  0.00  0.00    +0.397 N 
ATOM     11  H   UNL     1       5.292  -4.029  -1.323  0.00  0.00    -0.083 HD
ATOM     12  H   UNL     1       4.842  -2.464  -1.604  0.00  0.00    -0.083 HD
ENDROOT
BRANCH   1  20
ATOM     13  C   UNL     1      -0.017   1.363   0.009  0.00  0.00    +0.001 A 
ATOM     14  C   UNL     1       1.170   2.082   0.002  0.00  0.00    +0.004 A 
ATOM     15  C   UNL     1       2.386   1.432  -0.013  0.00  0.00    +0.047 A 
ATOM     16  C   UNL     1       2.427   0.043  -0.021  0.00  0.00    +0.135 A 
ATOM     17  C   UNL     1       1.222  -0.679  -0.013  0.00  0.00    +0.020 A 
ATOM     18  C   UNL     1       0.002  -0.004   0.002  0.00  0.00    +0.011 A 
ATOM     19  C   UNL     1       1.613  -2.093  -0.025  0.00  0.00    +0.051 A 
ATOM     20  C   UNL     1       2.952  -2.111  -0.038  0.00  0.00    +0.093 A 
ATOM     21  O   UNL     1       3.432  -0.855  -0.036  0.00  0.00    -0.461 OA
ENDBRANCH   1  20
BRANCH   6  22
ATOM     22  C   UNL     1       4.413  -2.395   4.813  0.00  0.00    +0.084 C 
ATOM     23  C   UNL     1       4.066  -3.703   5.527  0.00  0.00    +0.023 C 
ATOM     24  C   UNL     1       3.852  -3.429   7.017  0.00  0.00    +0.002 C 
ATOM     25  C   UNL     1       2.705  -2.432   7.193  0.00  0.00    +0.000 C 
ATOM     26  C   UNL     1       3.052  -1.125   6.479  0.00  0.00    +0.002 C 
ATOM     27  C   UNL     1       3.265  -1.398   4.989  0.00  0.00    +0.023 C 
ENDBRANCH   6  22
BRANCH   9  28
ATOM     28  C   UNL     1       7.227  -3.717   0.131  0.00  0.00    +0.346 C 
ATOM     29  O   UNL     1       7.184  -4.725  -0.553  0.00  0.00    -0.248 OA
ATOM     30  O   UNL     1       8.157  -3.541   0.899  0.00  0.00    -0.248 OA
ENDBRANCH   9  28
BRANCH   9  31
ATOM     31  C   UNL     1       6.692  -1.355  -0.470  0.00  0.00    +0.001 C 
BRANCH  31  32
ATOM     32  C   UNL     1       7.265  -1.537  -1.878  0.00  0.00    +0.018 C 
BRANCH  32  33
ATOM     33  C   UNL     1       7.827  -0.204  -2.375  0.00  0.00    +0.105 C 
BRANCH  33  34
ATOM     34  N   UNL     1       8.376  -0.378  -3.723  0.00  0.00    -0.300 N 
ATOM     35  C   UNL     1       8.929   0.670  -4.365  0.00  0.00    +0.297 C 
ATOM     36  O   UNL     1       8.972   1.759  -3.827  0.00  0.00    -0.253 OA
ATOM     37  N   UNL     1       9.433   0.510  -5.605  0.00  0.00    -0.313 N 
ATOM     38  H   UNL     1       8.341  -1.247  -4.152  0.00  0.00    +0.150 HD
ATOM     39  H   UNL     1       9.399  -0.359  -6.034  0.00  0.00    +0.146 HD
ATOM     40  H   UNL     1       9.831   1.264  -6.068  0.00  0.00    +0.146 HD
ENDBRANCH  33  34
ENDBRANCH  32  33
ENDBRANCH  31  32
ENDBRANCH   9  31
TORSDOF 7
