REMARK  Name = ZINC60241823
REMARK  6 active torsions:
REMARK  status: ('A' for Active; 'I' for Inactive)
REMARK    1  A    between atoms: C_1  and  C_2
REMARK    2  A    between atoms: C_7  and  C_9
REMARK    3  A    between atoms: C_7  and  C_10
REMARK    4  A    between atoms: N_13  and  C_17
REMARK    5  A    between atoms: C_17  and  C_18
REMARK    6  A    between atoms: C_28  and  C_30
REMARK                            x       y       z     vdW  Elec       q    Type
REMARK                         _______ _______ _______ _____ _____    ______ ____
ROOT
ATOM      1  C   UNL     1      -4.079  -4.264  -1.458  0.00  0.00    +0.214 C 
ENDROOT
BRANCH   1  13
ATOM      2  C   UNL     1      -0.159   1.471  -0.048  0.00  0.00    +0.007 C 
ATOM      3  C   UNL     1      -0.085  -0.057  -0.027  0.00  0.00    -0.011 C 
ATOM      4  C   UNL     1      -1.501  -0.636   0.015  0.00  0.00    +0.038 C 
ATOM      5  C   UNL     1      -1.428  -2.159   0.057  0.00  0.00    +0.113 C 
ATOM      6  C   UNL     1      -0.642  -2.627   1.276  0.00  0.00    +0.041 C 
ATOM      7  C   UNL     1       0.772  -2.041   1.230  0.00  0.00    -0.032 C 
ATOM      8  C   UNL     1       0.688  -0.513   1.212  0.00  0.00    +0.009 C 
ATOM      9  C   UNL     1       1.485  -2.527  -0.033  0.00  0.00    +0.011 C 
ATOM     10  C   UNL     1       1.553  -2.495   2.465  0.00  0.00    +0.011 C 
ATOM     11  C   UNL     1      -2.817  -2.754   0.064  0.00  0.00    +0.247 C 
ATOM     12  O   UNL     1      -3.679  -2.595   0.901  0.00  0.00    -0.273 OA
ATOM     13  N   UNL     1      -2.895  -3.499  -1.058  0.00  0.00    -0.215 N 
ATOM     14  C   UNL     1      -1.756  -3.453  -1.761  0.00  0.00    +0.310 C 
ATOM     15  O   UNL     1      -1.585  -4.042  -2.810  0.00  0.00    -0.252 OA
ATOM     16  N   UNL     1      -0.823  -2.679  -1.176  0.00  0.00    -0.285 N 
ATOM     17  H   UNL     1       0.073  -2.500  -1.504  0.00  0.00    +0.151 HD
ENDBRANCH   1  13
BRANCH   1  18
ATOM     18  C   UNL     1      -4.972  -3.399  -2.310  0.00  0.00    +0.238 C 
ATOM     19  O   UNL     1      -4.651  -2.256  -2.558  0.00  0.00    -0.273 OA
ATOM     20  N   UNL     1      -6.127  -3.895  -2.795  0.00  0.00    -0.258 N 
ATOM     21  C   UNL     1      -6.600  -5.192  -2.570  0.00  0.00    +0.040 A 
ATOM     22  C   UNL     1      -6.025  -6.228  -1.831  0.00  0.00    +0.024 A 
ATOM     23  C   UNL     1      -6.660  -7.447  -1.731  0.00  0.00    +0.002 A 
ATOM     24  C   UNL     1      -7.873  -7.653  -2.363  0.00  0.00    +0.000 A 
ATOM     25  C   UNL     1      -8.449  -6.632  -3.096  0.00  0.00    +0.005 A 
ATOM     26  C   UNL     1      -7.816  -5.408  -3.198  0.00  0.00    -0.024 A 
ATOM     27  C   UNL     1      -8.215  -4.143  -3.923  0.00  0.00    +0.069 C 
ATOM     28  C   UNL     1      -7.075  -3.154  -3.631  0.00  0.00    +0.171 C 
BRANCH  28  29
ATOM     29  C   UNL     1      -7.599  -1.952  -2.888  0.00  0.00    +0.232 C 
ATOM     30  O   UNL     1      -7.221  -1.726  -1.758  0.00  0.00    -0.274 OA
ATOM     31  N   UNL     1      -8.488  -1.129  -3.478  0.00  0.00    -0.328 N 
ATOM     32  H   UNL     1      -8.790  -1.310  -4.382  0.00  0.00    +0.145 HD
ATOM     33  H   UNL     1      -8.825  -0.356  -3.000  0.00  0.00    +0.145 HD
ENDBRANCH  28  29
ENDBRANCH   1  18
TORSDOF 3
