REMARK  Name = ZINC41309514
REMARK  9 active torsions:
REMARK  status: ('A' for Active; 'I' for Inactive)
REMARK    1  A    between atoms: C_1  and  C_2
REMARK    2  A    between atoms: C_2  and  O_3
REMARK    3  A    between atoms: O_3  and  C_4
REMARK    4  A    between atoms: C_4  and  C_6
REMARK    5  A    between atoms: C_10  and  N_11
REMARK    6  A    between atoms: C_12  and  C_14
REMARK    7  A    between atoms: C_18  and  C_23
REMARK    8  A    between atoms: C_23  and  C_24
REMARK    9  A    between atoms: C_23  and  C_25
REMARK                            x       y       z     vdW  Elec       q    Type
REMARK                         _______ _______ _______ _____ _____    ______ ____
ROOT
ATOM      1  N   UNL     1      -0.602  -2.455  -3.925  0.00  0.00    -0.273 N 
ATOM      2  C   UNL     1      -1.117  -2.782  -5.127  0.00  0.00    +0.284 C 
ATOM      3  O   UNL     1      -0.393  -3.227  -5.998  0.00  0.00    -0.266 OA
ATOM      4  H   UNL     1      -1.179  -2.100  -3.231  0.00  0.00    +0.156 HD
ENDROOT
BRANCH   1   9
ATOM      5  C   UNL     1       1.449  -2.344  -2.516  0.00  0.00    +0.091 A 
ATOM      6  C   UNL     1       2.875  -2.619  -2.515  0.00  0.00    -0.021 A 
ATOM      7  C   UNL     1       3.342  -3.118  -3.680  0.00  0.00    -0.004 A 
ATOM      8  S   UNL     1       1.922  -3.213  -4.730  0.00  0.00    -0.077 S 
ATOM      9  C   UNL     1       0.750  -2.624  -3.682  0.00  0.00    +0.087 A 
ATOM     10  C   UNL     1       4.756  -3.499  -3.993  0.00  0.00    +0.043 C 
ATOM     11  C   UNL     1       5.669  -2.888  -2.920  0.00  0.00    +0.005 C 
ATOM     12  C   UNL     1       5.082  -3.191  -1.538  0.00  0.00    +0.005 C 
ATOM     13  C   UNL     1       3.799  -2.383  -1.329  0.00  0.00    +0.037 C 
BRANCH   5  14
ATOM     14  C   UNL     1       0.776  -1.800  -1.335  0.00  0.00    +0.342 C 
ATOM     15  O   UNL     1       0.312  -2.552  -0.499  0.00  0.00    -0.245 OA
BRANCH  14  16
ATOM     16  O   UNL     1       0.671  -0.465  -1.174  0.00  0.00    -0.461 OA
BRANCH  16  18
ATOM     17  C   UNL     1      -0.019   1.526   0.010  0.00  0.00    +0.048 C 
ATOM     18  C   UNL     1       0.002  -0.004   0.002  0.00  0.00    +0.229 C 
ENDBRANCH  16  18
ENDBRANCH  14  16
ENDBRANCH   5  14
ENDBRANCH   1   9
BRANCH   2  19
ATOM     19  C   UNL     1      -2.552  -2.603  -5.385  0.00  0.00    +0.191 A 
ATOM     20  C   UNL     1      -3.180  -2.902  -6.552  0.00  0.00    +0.063 A 
ATOM     21  C   UNL     1      -4.588  -2.563  -6.353  0.00  0.00    +0.021 A 
ATOM     22  C   UNL     1      -5.730  -2.634  -7.155  0.00  0.00    +0.015 A 
ATOM     23  C   UNL     1      -6.934  -2.225  -6.656  0.00  0.00    -0.044 A 
ATOM     24  C   UNL     1      -7.030  -1.740  -5.359  0.00  0.00    +0.007 A 
ATOM     25  C   UNL     1      -5.916  -1.662  -4.552  0.00  0.00    +0.047 A 
ATOM     26  C   UNL     1      -4.680  -2.073  -5.037  0.00  0.00    +0.136 A 
ATOM     27  O   UNL     1      -3.446  -2.120  -4.497  0.00  0.00    -0.450 OA
BRANCH  23  28
ATOM     28  C   UNL     1      -8.166  -2.300  -7.521  0.00  0.00    +0.013 C 
ATOM     29  C   UNL     1      -9.199  -3.214  -6.857  0.00  0.00    +0.012 C 
ATOM     30  C   UNL     1      -8.758  -0.899  -7.688  0.00  0.00    +0.012 C 
ENDBRANCH  23  28
ENDBRANCH   2  19
TORSDOF 6
