REMARK  Name = ZINC15208118
REMARK  3 active torsions:
REMARK  status: ('A' for Active; 'I' for Inactive)
REMARK    1  A    between atoms: C_1  and  C_2
REMARK    2  A    between atoms: N_17  and  C_20
REMARK    3  A    between atoms: C_25  and  O_26
REMARK                            x       y       z     vdW  Elec       q    Type
REMARK                         _______ _______ _______ _____ _____    ______ ____
ROOT
ATOM      1  C   UNL     1      -7.584  -3.011   0.148  0.00  0.00    +0.088 C 
ATOM      2  C   UNL     1      -6.300  -3.798   0.104  0.00  0.00    +0.129 A 
ATOM      3  N   UNL     1      -5.147  -3.153   0.096  0.00  0.00    -0.217 NA
ATOM      4  C   UNL     1      -3.986  -3.787   0.058  0.00  0.00    +0.133 A 
ATOM      5  C   UNL     1      -3.977  -5.208   0.019  0.00  0.00    +0.051 A 
ATOM      6  C   UNL     1      -2.819  -6.116  -0.022  0.00  0.00    -0.025 A 
ATOM      7  C   UNL     1      -3.080  -7.433  -0.044  0.00  0.00    -0.004 A 
ATOM      8  S   UNL     1      -4.854  -7.554  -0.009  0.00  0.00    -0.073 S 
ATOM      9  C   UNL     1      -5.241  -5.825   0.037  0.00  0.00    +0.114 A 
ATOM     10  N   UNL     1      -6.354  -5.116   0.075  0.00  0.00    -0.225 NA
ATOM     11  C   UNL     1      -1.823  -8.260  -0.086  0.00  0.00    +0.043 C 
ATOM     12  C   UNL     1      -0.705  -7.289   0.350  0.00  0.00    +0.010 C 
ATOM     13  C   UNL     1      -1.300  -5.926  -0.053  0.00  0.00    +0.037 C 
ATOM     14  N   UNL     1      -2.798  -3.077   0.051  0.00  0.00    -0.312 N 
ATOM     15  C   UNL     1      -2.699  -2.230  -1.145  0.00  0.00    +0.125 C 
ATOM     16  C   UNL     1      -1.340  -1.524  -1.155  0.00  0.00    +0.124 C 
ATOM     17  N   UNL     1      -1.199  -0.722   0.068  0.00  0.00    -0.324 N 
ATOM     18  C   UNL     1      -1.299  -1.569   1.264  0.00  0.00    +0.124 C 
ATOM     19  C   UNL     1      -2.657  -2.275   1.274  0.00  0.00    +0.125 C 
ENDROOT
BRANCH  17  20
ATOM     20  C   UNL     1       0.002  -0.004   0.060  0.00  0.00    +0.072 A 
ATOM     21  C   UNL     1       1.214  -0.676  -0.013  0.00  0.00    +0.027 A 
ATOM     22  C   UNL     1       2.399   0.036  -0.021  0.00  0.00    +0.002 A 
ATOM     23  C   UNL     1       2.380   1.417   0.045  0.00  0.00    +0.004 A 
ATOM     24  C   UNL     1       1.177   2.093   0.119  0.00  0.00    +0.047 A 
ATOM     25  C   UNL     1      -0.015   1.387   0.127  0.00  0.00    +0.138 A 
BRANCH  25  26
ATOM     26  O   UNL     1      -1.200   2.052   0.194  0.00  0.00    -0.505 OA
ATOM     27  H   UNL     1      -1.517   2.202   1.095  0.00  0.00    +0.292 HD
ENDBRANCH  25  26
ENDBRANCH  17  20
TORSDOF 2
