REMARK  Name = ZINC39759664
REMARK  9 active torsions:
REMARK  status: ('A' for Active; 'I' for Inactive)
REMARK    1  A    between atoms: C_1  and  C_2
REMARK    2  A    between atoms: C_2  and  C_4
REMARK    3  A    between atoms: C_2  and  S_12
REMARK    4  A    between atoms: C_4  and  N_6
REMARK    5  A    between atoms: S_12  and  C_13
REMARK    6  A    between atoms: C_16  and  C_19
REMARK    7  A    between atoms: N_17  and  C_18
REMARK    8  A    between atoms: C_19  and  C_20
REMARK    9  A    between atoms: N_22  and  C_23
REMARK                            x       y       z     vdW  Elec       q    Type
REMARK                         _______ _______ _______ _____ _____    ______ ____
ROOT
ATOM      1  C   UNL     1      -2.356  -0.077  -1.536  0.00  0.00    +0.192 A 
ATOM      2  N   UNL     1      -1.725   0.604  -2.464  0.00  0.00    -0.122 NA
ATOM      3  N   UNL     1      -2.511   0.820  -3.458  0.00  0.00    -0.133 NA
ATOM      4  C   UNL     1      -3.680   0.293  -3.225  0.00  0.00    +0.143 A 
ATOM      5  N   UNL     1      -3.621  -0.302  -1.995  0.00  0.00    -0.309 N 
ATOM      6  C   UNL     1      -4.695  -1.028  -1.312  0.00  0.00    +0.152 C 
ENDROOT
BRANCH   1   7
ATOM      7  S   UNL     1      -1.691  -0.608   0.007  0.00  0.00    -0.073 S 
BRANCH   7   9
ATOM      8  C   UNL     1      -0.001   1.542  -0.014  0.00  0.00    +0.029 C 
ATOM      9  C   UNL     1       0.013   0.012  -0.012  0.00  0.00    +0.139 C 
BRANCH   9  10
ATOM     10  C   UNL     1       0.741  -0.482   1.212  0.00  0.00    +0.251 C 
ATOM     11  O   UNL     1       0.113  -0.861   2.181  0.00  0.00    -0.272 OA
BRANCH  10  12
ATOM     12  N   UNL     1       2.072  -0.502   1.231  0.00  0.00    -0.158 NA
ATOM     13  C   UNL     1       2.713  -0.938   2.309  0.00  0.00    +0.146 C 
ATOM     14  N   UNL     1       4.055  -1.007   2.465  0.00  0.00    -0.325 N 
ATOM     15  C   UNL     1       4.616  -1.506   3.704  0.00  0.00    +0.114 C 
ATOM     16  C   UNL     1       3.505  -1.899   4.700  0.00  0.00    +0.095 C 
ATOM     17  S   UNL     1       2.006  -1.493   3.723  0.00  0.00    -0.092 S 
ATOM     18  H   UNL     1       4.642  -0.722   1.747  0.00  0.00    +0.148 HD
ENDBRANCH  10  12
ENDBRANCH   9  10
ENDBRANCH   7   9
ENDBRANCH   1   7
BRANCH   4  19
ATOM     19  C   UNL     1      -4.874   0.328  -4.144  0.00  0.00    +0.172 C 
BRANCH  19  20
ATOM     20  C   UNL     1      -4.845  -0.875  -5.051  0.00  0.00    +0.225 C 
ATOM     21  O   UNL     1      -3.944  -1.681  -4.961  0.00  0.00    -0.275 OA
ATOM     22  N   UNL     1      -5.821  -1.054  -5.964  0.00  0.00    -0.284 N 
ATOM     23  H   UNL     1      -6.583  -0.455  -5.983  0.00  0.00    +0.155 HD
BRANCH  22  24
ATOM     24  C   UNL     1      -5.734  -2.106  -6.883  0.00  0.00    +0.052 A 
ATOM     25  C   UNL     1      -4.495  -2.633  -7.223  0.00  0.00    +0.025 A 
ATOM     26  C   UNL     1      -4.413  -3.671  -8.130  0.00  0.00    +0.002 A 
ATOM     27  C   UNL     1      -5.563  -4.186  -8.701  0.00  0.00    +0.002 A 
ATOM     28  C   UNL     1      -6.799  -3.665  -8.365  0.00  0.00    +0.022 A 
ATOM     29  C   UNL     1      -6.888  -2.629  -7.453  0.00  0.00    +0.062 A 
ATOM     30 CL   UNL     1      -8.441  -1.979  -7.026  0.00  0.00    -0.082 Cl
ENDBRANCH  22  24
ENDBRANCH  19  20
ENDBRANCH   4  19
TORSDOF 7
