REMARK  Name = ZINC50641031
REMARK  6 active torsions:
REMARK  status: ('A' for Active; 'I' for Inactive)
REMARK    1  A    between atoms: C_1  and  C_2
REMARK    2  A    between atoms: C_8  and  N_10
REMARK    3  A    between atoms: N_10  and  S_11
REMARK    4  A    between atoms: S_11  and  C_14
REMARK    5  A    between atoms: C_16  and  N_21
REMARK    6  A    between atoms: C_19  and  N_20
REMARK                            x       y       z     vdW  Elec       q    Type
REMARK                         _______ _______ _______ _____ _____    ______ ____
ROOT
ATOM      1  S   UNL     1       0.921   0.248   3.876  0.00  0.00    +0.060 S 
ATOM      2  O   UNL     1       0.064   0.576   4.960  0.00  0.00    -0.153 OA
ATOM      3  O   UNL     1       1.807  -0.863   3.914  0.00  0.00    -0.153 OA
ENDROOT
BRANCH   1   4
ATOM      4  C   UNL     1       1.913   1.671   3.569  0.00  0.00    +0.128 A 
ATOM      5  C   UNL     1       3.284   1.547   3.453  0.00  0.00    +0.063 A 
ATOM      6  C   UNL     1       4.063   2.664   3.212  0.00  0.00    +0.128 A 
ATOM      7  C   UNL     1       3.473   3.909   3.086  0.00  0.00    +0.034 A 
ATOM      8  C   UNL     1       2.103   4.040   3.200  0.00  0.00    +0.027 A 
ATOM      9  C   UNL     1       1.317   2.919   3.437  0.00  0.00    +0.051 A 
BRANCH   9  10
ATOM     10  N   UNL     1      -0.070   3.047   3.547  0.00  0.00    -0.356 N 
ATOM     11  H   UNL     1      -0.625   2.256   3.631  0.00  0.00    +0.142 HD
ATOM     12  H   UNL     1      -0.477   3.927   3.541  0.00  0.00    +0.142 HD
ENDBRANCH   9  10
BRANCH   6  13
ATOM     13  N   UNL     1       5.531   2.527   3.089  0.00  0.00    +0.056 N 
ATOM     14  O   UNL     1       6.049   1.440   3.200  0.00  0.00    -0.126 OA
ATOM     15  O   UNL     1       6.214   3.503   2.879  0.00  0.00    -0.126 OA
ENDBRANCH   6  13
ENDBRANCH   1   4
BRANCH   1  16
ATOM     16  N   UNL     1      -0.050   0.033   2.552  0.00  0.00    -0.187 NA
ATOM     17  H   UNL     1      -1.011   0.134   2.635  0.00  0.00    +0.148 HD
BRANCH  16  24
ATOM     18  C   UNL     1      -0.244   1.870   0.321  0.00  0.00    +0.009 C 
ATOM     19  C   UNL     1      -0.264   0.351   0.137  0.00  0.00    +0.005 C 
ATOM     20  C   UNL     1      -1.709  -0.149   0.185  0.00  0.00    +0.005 C 
ATOM     21  C   UNL     1      -1.730  -1.668   0.001  0.00  0.00    +0.000 C 
ATOM     22  C   UNL     1      -0.923  -2.329   1.121  0.00  0.00    +0.002 C 
ATOM     23  C   UNL     1       0.522  -1.828   1.072  0.00  0.00    +0.020 C 
ATOM     24  C   UNL     1       0.542  -0.309   1.257  0.00  0.00    +0.079 C 
ENDBRANCH  16  24
ENDBRANCH   1  16
TORSDOF 5
