REMARK  Name = ZINC03229928
REMARK  10 active torsions:
REMARK  status: ('A' for Active; 'I' for Inactive)
REMARK    1  A    between atoms: C_1  and  C_2
REMARK    2  A    between atoms: C_5  and  N_9
REMARK    3  A    between atoms: C_6  and  C_8
REMARK    4  A    between atoms: N_9  and  S_10
REMARK    5  A    between atoms: S_10  and  C_13
REMARK    6  A    between atoms: C_17  and  C_19
REMARK    7  A    between atoms: N_21  and  N_22
REMARK    8  A    between atoms: N_22  and  C_23
REMARK    9  A    between atoms: C_23  and  N_25
REMARK   10  A    between atoms: C_26  and  C_28
REMARK                            x       y       z     vdW  Elec       q    Type
REMARK                         _______ _______ _______ _____ _____    ______ ____
ROOT
ATOM      1  C   UNL     1      -7.934  -2.858   0.156  0.00  0.00    +0.109 A 
ATOM      2  C   UNL     1      -6.880  -3.754   0.156  0.00  0.00    +0.029 A 
ATOM      3  C   UNL     1      -5.576  -3.298   0.231  0.00  0.00    +0.003 A 
ATOM      4  C   UNL     1      -5.319  -1.944   0.301  0.00  0.00    +0.013 A 
ATOM      5  C   UNL     1      -6.377  -1.035   0.307  0.00  0.00    +0.040 A 
ATOM      6  C   UNL     1      -7.691  -1.502   0.231  0.00  0.00    +0.042 A 
ENDROOT
BRANCH   5   7
ATOM      7  C   UNL     1      -6.109   0.417   0.386  0.00  0.00    +0.260 C 
ATOM      8  O   UNL     1      -7.033   1.206   0.386  0.00  0.00    -0.269 OA
ATOM      9  N   UNL     1      -4.840   0.865   0.460  0.00  0.00    -0.231 N 
ATOM     10  H   UNL     1      -4.103   0.234   0.460  0.00  0.00    +0.173 HD
BRANCH   9  11
ATOM     11  N   UNL     1      -4.586   2.240   0.535  0.00  0.00    -0.245 N 
ATOM     12  H   UNL     1      -5.323   2.870   0.534  0.00  0.00    +0.172 HD
BRANCH  11  13
ATOM     13  C   UNL     1      -3.317   2.688   0.608  0.00  0.00    +0.153 C 
ATOM     14  S   UNL     1      -3.006   4.369   0.700  0.00  0.00    -0.017 S 
BRANCH  13  15
ATOM     15  N   UNL     1      -2.292   1.812   0.609  0.00  0.00    -0.262 N 
ATOM     16  C   UNL     1      -1.023   2.260   0.682  0.00  0.00    +0.256 C 
ATOM     17  O   UNL     1      -0.802   3.455   0.747  0.00  0.00    -0.269 OA
ATOM     18  H   UNL     1      -2.468   0.860   0.556  0.00  0.00    +0.157 HD
BRANCH  16  19
ATOM     19  C   UNL     1       0.090   1.309   0.683  0.00  0.00    +0.074 A 
ATOM     20  C   UNL     1       1.453   1.558   0.745  0.00  0.00    +0.021 A 
ATOM     21  C   UNL     1       2.289   0.470   0.723  0.00  0.00    +0.008 A 
ATOM     22  C   UNL     1       1.753  -0.777   0.644  0.00  0.00    +0.046 A 
ATOM     23  S   UNL     1       0.047  -0.473   0.596  0.00  0.00    -0.092 S 
ENDBRANCH  16  19
ENDBRANCH  13  15
ENDBRANCH  11  13
ENDBRANCH   9  11
ENDBRANCH   5   7
BRANCH   1  24
ATOM     24  S   UNL     1      -9.591  -3.450   0.060  0.00  0.00    +0.072 S 
ATOM     25  O   UNL     1      -9.575  -4.784   0.550  0.00  0.00    -0.150 OA
ATOM     26  O   UNL     1     -10.416  -2.441   0.627  0.00  0.00    -0.150 OA
BRANCH  24  27
ATOM     27  N   UNL     1      -9.987  -3.539  -1.545  0.00  0.00    -0.216 N 
ATOM     28  H   UNL     1     -10.726  -3.016  -1.892  0.00  0.00    +0.174 HD
BRANCH  27  33
ATOM     29  C   UNL     1      -7.022  -6.904  -5.015  0.00  0.00    +0.044 C 
ATOM     30  C   UNL     1      -7.809  -6.010  -4.093  0.00  0.00    -0.050 A 
ATOM     31  C   UNL     1      -8.042  -6.399  -2.786  0.00  0.00    +0.005 A 
ATOM     32  C   UNL     1      -8.764  -5.582  -1.939  0.00  0.00    +0.025 A 
ATOM     33  C   UNL     1      -9.256  -4.368  -2.400  0.00  0.00    +0.051 A 
ATOM     34  C   UNL     1      -9.024  -3.982  -3.713  0.00  0.00    -0.028 A 
ATOM     35  C   UNL     1      -8.297  -4.801  -4.554  0.00  0.00    +0.008 A 
ATOM     36  C   UNL     1      -9.561  -2.667  -4.219  0.00  0.00    +0.046 C 
ENDBRANCH  27  33
ENDBRANCH  24  27
ENDBRANCH   1  24
TORSDOF 8
