REMARK  Name = ZINC39668794
REMARK  8 active torsions:
REMARK  status: ('A' for Active; 'I' for Inactive)
REMARK    1  A    between atoms: C_1  and  C_2
REMARK    2  A    between atoms: C_6  and  C_7
REMARK    3  A    between atoms: C_11  and  C_20
REMARK    4  A    between atoms: N_22  and  C_23
REMARK    5  A    between atoms: C_23  and  C_24
REMARK    6  A    between atoms: C_24  and  C_26
REMARK    7  A    between atoms: C_24  and  O_27
REMARK    8  A    between atoms: O_27  and  C_28
REMARK                            x       y       z     vdW  Elec       q    Type
REMARK                         _______ _______ _______ _____ _____    ______ ____
ROOT
ATOM      1  C   UNL     1      -0.006  -0.272   2.586  0.00  0.00    +0.254 C 
ATOM      2  O   UNL     1       0.080   0.917   2.833  0.00  0.00    -0.269 OA
ATOM      3  N   UNL     1      -0.081  -1.166   3.592  0.00  0.00    -0.296 N 
ATOM      4  C   UNL     1      -0.065  -2.644   3.496  0.00  0.00    +0.121 C 
ATOM      5  C   UNL     1       0.792  -3.104   4.697  0.00  0.00    +0.100 C 
ATOM      6  C   UNL     1       0.700  -1.951   5.710  0.00  0.00    -0.004 C 
ATOM      7  C   UNL     1      -0.191  -0.891   5.045  0.00  0.00    +0.115 C 
ATOM      8  C   UNL     1       2.086  -1.373   5.979  0.00  0.00    -0.010 C 
ATOM      9  C   UNL     1       1.976  -0.266   7.032  0.00  0.00    -0.082 C 
ATOM     10  N   UNL     1       1.405  -0.818   8.266  0.00  0.00    +0.379 N 
ATOM     11  C   UNL     1       0.037  -1.288   8.019  0.00  0.00    -0.082 C 
ATOM     12  C   UNL     1       0.065  -2.437   7.008  0.00  0.00    -0.010 C 
ATOM     13  H   UNL     1       1.973  -1.590   8.582  0.00  0.00    -0.086 HD
ATOM     14  H   UNL     1       1.391  -0.102   8.977  0.00  0.00    -0.086 HD
ENDROOT
BRANCH   1  20
ATOM     15  C   UNL     1      -0.061   1.524   0.041  0.00  0.00    +0.045 C 
ATOM     16  C   UNL     1      -0.052   0.017   0.027  0.00  0.00    -0.031 A 
ATOM     17  C   UNL     1      -0.062  -0.703  -1.143  0.00  0.00    +0.011 A 
ATOM     18  C   UNL     1      -0.052  -2.058  -1.084  0.00  0.00    +0.046 A 
ATOM     19  S   UNL     1      -0.029  -2.398   0.561  0.00  0.00    -0.092 S 
ATOM     20  C   UNL     1      -0.026  -0.731   1.194  0.00  0.00    +0.077 A 
ENDBRANCH   1  20
BRANCH   5  21
ATOM     21  C   UNL     1       0.230  -4.371   5.288  0.00  0.00    +0.218 C 
ATOM     22  O   UNL     1      -0.946  -4.635   5.151  0.00  0.00    -0.275 OA
ATOM     23  N   UNL     1       1.033  -5.212   5.970  0.00  0.00    -0.312 N 
ATOM     24  H   UNL     1       1.974  -5.001   6.079  0.00  0.00    +0.149 HD
BRANCH  23  25
ATOM     25  C   UNL     1       0.487  -6.443   6.544  0.00  0.00    +0.148 C 
BRANCH  25  26
ATOM     26  C   UNL     1       1.601  -7.210   7.260  0.00  0.00    +0.187 C 
ATOM     27  C   UNL     1       1.060  -8.554   7.753  0.00  0.00    +0.053 C 
BRANCH  26  28
ATOM     28  O   UNL     1       2.065  -6.446   8.375  0.00  0.00    -0.486 OA
BRANCH  28  29
ATOM     29  C   UNL     1       3.333  -6.685   8.802  0.00  0.00    +0.139 A 
ATOM     30  C   UNL     1       4.160  -7.557   8.102  0.00  0.00    +0.049 A 
ATOM     31  C   UNL     1       5.445  -7.769   8.575  0.00  0.00    +0.023 A 
ATOM     32  C   UNL     1       5.859  -7.112   9.719  0.00  0.00    +0.111 A 
ATOM     33  N   UNL     1       5.050  -6.291  10.359  0.00  0.00    -0.260 NA
ATOM     34  C   UNL     1       3.822  -6.058   9.938  0.00  0.00    +0.156 A 
ENDBRANCH  28  29
ENDBRANCH  26  28
ENDBRANCH  25  26
ENDBRANCH  23  25
ENDBRANCH   5  21
TORSDOF 6
