REMARK  Name = ZINC57342197
REMARK  2 active torsions:
REMARK  status: ('A' for Active; 'I' for Inactive)
REMARK    1  A    between atoms: C_1  and  C_2
REMARK    2  A    between atoms: C_4  and  N_9
REMARK                            x       y       z     vdW  Elec       q    Type
REMARK                         _______ _______ _______ _____ _____    ______ ____
ROOT
ATOM      1  N   UNL     1       0.028  -2.771  -2.419  0.00  0.00    -0.285 N 
ATOM      2  C   UNL     1       0.516  -2.171  -3.551  0.00  0.00    +0.200 A 
ATOM      3  N   UNL     1       1.074  -0.980  -3.463  0.00  0.00    -0.224 NA
ATOM      4  C   UNL     1       1.560  -0.362  -4.537  0.00  0.00    +0.119 A 
ATOM      5  C   UNL     1       1.487  -0.959  -5.762  0.00  0.00    +0.090 A 
ATOM      6  C   UNL     1       0.893  -2.229  -5.865  0.00  0.00    +0.253 A 
ATOM      7  N   UNL     1       0.420  -2.817  -4.745  0.00  0.00    -0.295 N 
ATOM      8  O   UNL     1       0.811  -2.792  -6.944  0.00  0.00    -0.268 OA
ATOM      9  H   UNL     1      -0.309  -3.679  -2.459  0.00  0.00    +0.155 HD
ATOM     10  H   UNL     1       0.010  -3.695  -4.792  0.00  0.00    +0.172 HD
ENDROOT
BRANCH   1  14
ATOM     11  C   UNL     1      -0.423   1.476   0.015  0.00  0.00    +0.045 C 
ATOM     12  C   UNL     1      -0.199  -0.014   0.003  0.00  0.00    -0.035 A 
ATOM     13  C   UNL     1      -0.189  -0.700  -1.196  0.00  0.00    +0.027 A 
ATOM     14  C   UNL     1       0.018  -2.073  -1.207  0.00  0.00    +0.034 A 
ATOM     15  C   UNL     1       0.214  -2.753  -0.011  0.00  0.00    +0.024 A 
ATOM     16  C   UNL     1       0.202  -2.062   1.184  0.00  0.00    +0.017 A 
ATOM     17  C   UNL     1       0.001  -0.693   1.191  0.00  0.00    +0.021 A 
ATOM     18 BR   UNL     1      -0.007   0.251   2.830  0.00  0.00    -0.050 Br
ENDBRANCH   1  14
TORSDOF 1
