REMARK  Name = ZINC20275565
REMARK  6 active torsions:
REMARK  status: ('A' for Active; 'I' for Inactive)
REMARK    1  A    between atoms: C_1  and  C_2
REMARK    2  A    between atoms: C_2  and  C_22
REMARK    3  A    between atoms: N_5  and  C_14
REMARK    4  A    between atoms: C_8  and  N_13
REMARK    5  A    between atoms: C_14  and  C_15
REMARK    6  A    between atoms: C_15  and  C_16
REMARK                            x       y       z     vdW  Elec       q    Type
REMARK                         _______ _______ _______ _____ _____    ______ ____
ROOT
ATOM      1  C   UNL     1       8.983  -0.913  -0.878  0.00  0.00    +0.065 C 
ATOM      2  C   UNL     1       7.892  -1.734  -1.568  0.00  0.00    +0.181 C 
ATOM      3  C   UNL     1       6.586  -0.982  -1.518  0.00  0.00    +0.263 C 
ATOM      4  O   UNL     1       6.584   0.231  -1.487  0.00  0.00    -0.271 OA
ATOM      5  N   UNL     1       5.420  -1.663  -1.505  0.00  0.00    -0.265 N 
ATOM      6  C   UNL     1       5.451  -3.065  -1.513  0.00  0.00    +0.080 A 
ATOM      7  C   UNL     1       4.316  -3.795  -1.823  0.00  0.00    +0.050 A 
ATOM      8  C   UNL     1       4.368  -5.182  -1.826  0.00  0.00    +0.027 A 
ATOM      9  C   UNL     1       5.555  -5.834  -1.516  0.00  0.00    +0.026 A 
ATOM     10  C   UNL     1       6.688  -5.105  -1.207  0.00  0.00    +0.049 A 
ATOM     11  C   UNL     1       6.641  -3.722  -1.204  0.00  0.00    +0.143 A 
ATOM     12  O   UNL     1       7.749  -2.992  -0.902  0.00  0.00    -0.475 OA
ATOM     13  C   UNL     1       8.280  -1.972  -3.028  0.00  0.00    +0.065 C 
ENDROOT
BRANCH   8  14
ATOM     14  N   UNL     1       3.224  -5.925  -2.139  0.00  0.00    -0.358 N 
ATOM     15  H   UNL     1       3.265  -7.024  -2.141  0.00  0.00    +0.142 HD
ATOM     16  H   UNL     1       2.284  -5.409  -2.384  0.00  0.00    +0.142 HD
ENDBRANCH   8  14
BRANCH   5  17
ATOM     17  C   UNL     1       4.142  -0.948  -1.488  0.00  0.00    +0.118 C 
BRANCH  17  18
ATOM     18  C   UNL     1       3.711  -0.707  -0.039  0.00  0.00    +0.054 C 
BRANCH  18  19
ATOM     19  C   UNL     1       2.396   0.029  -0.022  0.00  0.00    -0.046 A 
ATOM     20  C   UNL     1       1.208  -0.679  -0.014  0.00  0.00    +0.004 A 
ATOM     21  C   UNL     1       0.002  -0.004   0.002  0.00  0.00    +0.000 A 
ATOM     22  C   UNL     1      -0.017   1.378   0.010  0.00  0.00    +0.000 A 
ATOM     23  C   UNL     1       1.171   2.086   0.002  0.00  0.00    +0.000 A 
ATOM     24  C   UNL     1       2.377   1.411  -0.014  0.00  0.00    +0.004 A 
ENDBRANCH  18  19
ENDBRANCH  17  18
ENDBRANCH   5  17
TORSDOF 4
