REMARK  Name = ZINC01083329
REMARK  6 active torsions:
REMARK  status: ('A' for Active; 'I' for Inactive)
REMARK    1  A    between atoms: C_4  and  C_7
REMARK    2  A    between atoms: C_7  and  C_8
REMARK    3  A    between atoms: C_7  and  C_14
REMARK    4  A    between atoms: C_7  and  O_27
REMARK    5  A    between atoms: N_16  and  N_17
REMARK    6  A    between atoms: C_18  and  C_19
REMARK                            x       y       z     vdW  Elec       q    Type
REMARK                         _______ _______ _______ _____ _____    ______ ____
ROOT
ATOM      1  C   UNL     1      -7.337   4.612   0.097  0.00  0.00    +0.194 C 
ENDROOT
BRANCH   1   5
ATOM      2  C   UNL     1     -10.719   4.691  -2.512  0.00  0.00    +0.000 A 
ATOM      3  C   UNL     1     -10.694   5.495  -1.389  0.00  0.00    +0.000 A 
ATOM      4  C   UNL     1      -9.600   5.470  -0.544  0.00  0.00    +0.007 A 
ATOM      5  C   UNL     1      -8.530   4.639  -0.824  0.00  0.00    -0.003 A 
ATOM      6  C   UNL     1      -8.553   3.839  -1.950  0.00  0.00    +0.007 A 
ATOM      7  C   UNL     1      -9.649   3.861  -2.792  0.00  0.00    +0.000 A 
ENDBRANCH   1   5
BRANCH   1   8
ATOM      8  C   UNL     1      -6.797   6.009   0.260  0.00  0.00    -0.003 A 
ATOM      9  C   UNL     1      -7.412   6.891   1.129  0.00  0.00    +0.007 A 
ATOM     10  C   UNL     1      -6.913   8.171   1.282  0.00  0.00    +0.000 A 
ATOM     11  C   UNL     1      -5.805   8.572   0.560  0.00  0.00    +0.000 A 
ATOM     12  C   UNL     1      -5.193   7.692  -0.313  0.00  0.00    +0.000 A 
ATOM     13  C   UNL     1      -5.689   6.410  -0.462  0.00  0.00    +0.007 A 
ENDBRANCH   1   8
BRANCH   1  14
ATOM     14  C   UNL     1      -7.753   4.073   1.441  0.00  0.00    +0.273 C 
ATOM     15  O   UNL     1      -8.907   4.167   1.802  0.00  0.00    -0.270 OA
ATOM     16  N   UNL     1      -6.841   3.488   2.243  0.00  0.00    -0.204 N 
ATOM     17  H   UNL     1      -5.918   3.413   1.955  0.00  0.00    +0.177 HD
BRANCH  16  18
ATOM     18  N   UNL     1      -7.228   2.987   3.494  0.00  0.00    -0.188 NA
ATOM     19  C   UNL     1      -6.350   2.423   4.266  0.00  0.00    +0.138 C 
BRANCH  19  20
ATOM     20  C   UNL     1      -6.757   1.896   5.582  0.00  0.00    -0.004 A 
ATOM     21  C   UNL     1      -5.814   1.289   6.416  0.00  0.00    +0.011 A 
ATOM     22  C   UNL     1      -6.200   0.798   7.645  0.00  0.00    +0.022 A 
ATOM     23  C   UNL     1      -7.519   0.906   8.055  0.00  0.00    +0.059 A 
ATOM     24  C   UNL     1      -8.459   1.507   7.233  0.00  0.00    +0.060 A 
ATOM     25  C   UNL     1      -8.086   1.998   5.998  0.00  0.00    +0.031 A 
ATOM     26 CL   UNL     1     -10.109   1.638   7.755  0.00  0.00    -0.082 Cl
ATOM     27 CL   UNL     1      -7.996   0.285   9.604  0.00  0.00    -0.082 Cl
ENDBRANCH  19  20
ENDBRANCH  16  18
ENDBRANCH   1  14
BRANCH   1  28
ATOM     28  O   UNL     1      -6.325   3.772  -0.461  0.00  0.00    -0.371 OA
ATOM     29  H   UNL     1      -6.604   2.855  -0.595  0.00  0.00    +0.212 HD
ENDBRANCH   1  28
TORSDOF 6
