REMARK  Name = ZINC64718320
REMARK  4 active torsions:
REMARK  status: ('A' for Active; 'I' for Inactive)
REMARK    1  A    between atoms: C_5  and  C_7
REMARK    2  A    between atoms: C_10  and  C_12
REMARK    3  A    between atoms: C_12  and  N_13
REMARK    4  A    between atoms: N_13  and  C_14
REMARK                            x       y       z     vdW  Elec       q    Type
REMARK                         _______ _______ _______ _____ _____    ______ ____
ROOT
ATOM      1  C   UNL     1       1.249  -2.160  -0.021  0.00  0.00    +0.138 A 
ATOM      2  C   UNL     1       0.560  -2.976   0.821  0.00  0.00    +0.050 A 
ATOM      3  C   UNL     1       0.880  -4.299   0.456  0.00  0.00    +0.046 A 
ATOM      4  C   UNL     1       1.739  -4.227  -0.579  0.00  0.00    +0.120 A 
ATOM      5  O   UNL     1       1.956  -2.933  -0.869  0.00  0.00    -0.458 OA
ENDROOT
BRANCH   1  10
ATOM      6  C   UNL     1      -0.017   1.375   0.010  0.00  0.00    +0.001 A 
ATOM      7  C   UNL     1       1.170   2.087   0.002  0.00  0.00    +0.003 A 
ATOM      8  C   UNL     1       2.383   1.423  -0.013  0.00  0.00    +0.039 A 
ATOM      9  C   UNL     1       2.417   0.042  -0.021  0.00  0.00    +0.134 A 
ATOM     10  C   UNL     1       1.222  -0.683  -0.013  0.00  0.00    +0.052 A 
ATOM     11  C   UNL     1       0.002  -0.004   0.002  0.00  0.00    +0.014 A 
ATOM     12  F   UNL     1       3.602  -0.607  -0.037  0.00  0.00    -0.205 F 
ENDBRANCH   1  10
BRANCH   4  13
ATOM     13  C   UNL     1       2.351  -5.402  -1.297  0.00  0.00    +0.158 C 
BRANCH  13  14
ATOM     14  N   UNL     1       1.484  -5.798  -2.415  0.00  0.00    -0.273 NA
ATOM     15  H   UNL     1       0.549  -6.000  -2.094  0.00  0.00    +0.126 HD
BRANCH  14  16
ATOM     16  C   UNL     1       2.051  -6.944  -3.139  0.00  0.00    +0.286 C 
ATOM     17  N   UNL     1       1.355  -7.133  -4.430  0.00  0.00    -0.187 NA
ATOM     18  N   UNL     1       0.801  -8.383  -4.341  0.00  0.00    -0.181 N 
ATOM     19  N   UNL     1       1.118  -8.939  -3.102  0.00  0.00    -0.068 NA
ATOM     20  N   UNL     1       1.805  -8.190  -2.400  0.00  0.00    -0.134 NA
ATOM     21  H   UNL     1       2.004  -7.079  -5.201  0.00  0.00    +0.149 HD
ATOM     22  H   UNL     1       0.273  -8.813  -5.031  0.00  0.00    +0.191 HD
ENDBRANCH  14  16
ENDBRANCH  13  14
ENDBRANCH   4  13
TORSDOF 4
