REMARK  Name = ZINC57147593
REMARK  3 active torsions:
REMARK  status: ('A' for Active; 'I' for Inactive)
REMARK    1  A    between atoms: C_1  and  C_2
REMARK    2  A    between atoms: N_8  and  C_9
REMARK    3  A    between atoms: C_10  and  N_12
REMARK                            x       y       z     vdW  Elec       q    Type
REMARK                         _______ _______ _______ _____ _____    ______ ____
ROOT
ATOM      1  N   UNL     1       0.051  -2.633   2.421  0.00  0.00    -0.310 N 
ATOM      2  C   UNL     1      -0.032  -4.100   2.483  0.00  0.00    +0.113 C 
ATOM      3  C   UNL     1       1.271  -4.651   3.072  0.00  0.00    +0.072 C 
ATOM      4  C   UNL     1       1.644  -3.838   4.289  0.00  0.00    +0.023 A 
ATOM      5  C   UNL     1       1.150  -2.610   4.560  0.00  0.00    -0.002 A 
ATOM      6  C   UNL     1       1.751  -2.170   5.801  0.00  0.00    +0.006 A 
ATOM      7  C   UNL     1       1.622  -1.001   6.557  0.00  0.00    +0.010 A 
ATOM      8  C   UNL     1       2.362  -0.922   7.710  0.00  0.00    +0.002 A 
ATOM      9  C   UNL     1       3.201  -1.946   8.118  0.00  0.00    +0.017 A 
ATOM     10  C   UNL     1       3.348  -3.115   7.391  0.00  0.00    +0.042 A 
ATOM     11  C   UNL     1       2.608  -3.222   6.213  0.00  0.00    +0.061 A 
ATOM     12  N   UNL     1       2.517  -4.212   5.277  0.00  0.00    -0.357 N 
ATOM     13  H   UNL     1       2.998  -5.054   5.307  0.00  0.00    +0.166 HD
ATOM     14 BR   UNL     1       4.498  -4.500   7.966  0.00  0.00    -0.048 Br
ATOM     15  C   UNL     1       0.157  -1.889   3.688  0.00  0.00    +0.144 C 
ENDROOT
BRANCH   1  25
ATOM     16  C   UNL     1       2.475  -0.821  -1.289  0.00  0.00    +0.088 C 
ATOM     17  C   UNL     1       1.160  -1.083  -0.601  0.00  0.00    +0.130 A 
ATOM     18  N   UNL     1       0.052  -0.673  -1.180  0.00  0.00    -0.213 NA
ATOM     19  C   UNL     1      -1.132  -0.883  -0.608  0.00  0.00    +0.163 A 
ATOM     20  C   UNL     1      -1.178  -1.554   0.630  0.00  0.00    +0.078 A 
ATOM     21  C   UNL     1      -2.537  -1.640   1.003  0.00  0.00    +0.148 A 
ATOM     22  N   UNL     1      -3.256  -1.074   0.076  0.00  0.00    -0.177 NA
ATOM     23  N   UNL     1      -2.421  -0.592  -0.941  0.00  0.00    -0.249 N 
ATOM     24  C   UNL     1      -2.858   0.105  -2.152  0.00  0.00    +0.174 C 
ATOM     25  C   UNL     1       0.035  -1.972   1.209  0.00  0.00    +0.136 A 
ATOM     26  N   UNL     1       1.165  -1.719   0.557  0.00  0.00    -0.217 NA
ENDBRANCH   1  25
TORSDOF 1
