REMARK  Name = ZINC06894712
REMARK  7 active torsions:
REMARK  status: ('A' for Active; 'I' for Inactive)
REMARK    1  A    between atoms: C_1  and  N_66
REMARK    2  A    between atoms: C_2  and  C_3
REMARK    3  A    between atoms: C_2  and  N_66
REMARK    4  A    between atoms: C_3  and  C_4
REMARK    5  A    between atoms: C_4  and  N_5
REMARK    6  A    between atoms: C_6  and  C_8
REMARK    7  A    between atoms: C_26  and  N_66
REMARK                            x       y       z     vdW  Elec       q    Type
REMARK                         _______ _______ _______ _____ _____    ______ ____
ROOT
ATOM      1  C   UNL     1       1.126   3.904  -1.244  0.00  0.00    +0.076 C 
ATOM      2  C   UNL     1       0.881   3.573   0.253  0.00  0.00    -0.003 C 
ATOM      3  C   UNL     1      -0.157   2.430   0.158  0.00  0.00    -0.066 C 
ATOM      4  C   UNL     1      -0.014   1.512   1.382  0.00  0.00    -0.017 C 
ATOM      5  C   UNL     1       0.479   0.159   0.820  0.00  0.00    -0.020 C 
ATOM      6  C   UNL     1       1.134   0.562  -0.524  0.00  0.00    -0.077 C 
ATOM      7  C   UNL     1       1.017   2.529  -1.921  0.00  0.00    +0.052 C 
ATOM      8  C   UNL     1       0.360   2.650  -3.271  0.00  0.00    -0.027 A 
ATOM      9  C   UNL     1      -0.879   3.089  -3.681  0.00  0.00    +0.004 A 
ATOM     10  C   UNL     1      -1.204   3.083  -5.026  0.00  0.00    +0.000 A 
ATOM     11  C   UNL     1      -0.282   2.635  -5.955  0.00  0.00    +0.002 A 
ATOM     12  C   UNL     1       0.960   2.193  -5.547  0.00  0.00    +0.023 A 
ATOM     13  C   UNL     1       1.297   2.201  -4.195  0.00  0.00    +0.036 A 
ATOM     14  N   UNL     1       2.467   1.805  -3.544  0.00  0.00    -0.286 N 
ATOM     15  C   UNL     1       2.386   1.968  -2.210  0.00  0.00    +0.212 C 
ATOM     16  O   UNL     1       3.249   1.712  -1.397  0.00  0.00    -0.277 OA
ATOM     17  H   UNL     1       3.249   1.457  -4.000  0.00  0.00    +0.155 HD
ATOM     18  N   UNL     1       0.264   1.653  -1.002  0.00  0.00    +0.394 N 
ATOM     19  H   UNL     1      -0.554   1.264  -1.485  0.00  0.00    -0.079 HD
ENDROOT
BRANCH   1  21
ATOM     20  N   UNL     1       0.335   5.656  -2.801  0.00  0.00    -0.315 N 
ATOM     21  C   UNL     1       0.065   4.840  -1.764  0.00  0.00    +0.216 C 
ATOM     22  O   UNL     1      -1.033   4.858  -1.248  0.00  0.00    -0.276 OA
ATOM     23  H   UNL     1       1.213   5.642  -3.213  0.00  0.00    +0.149 HD
BRANCH  20  24
ATOM     24  C   UNL     1      -0.696   6.566  -3.306  0.00  0.00    +0.102 C 
BRANCH  24  25
ATOM     25  C   UNL     1      -0.134   7.375  -4.477  0.00  0.00    +0.000 C 
BRANCH  25  26
ATOM     26  C   UNL     1      -1.212   8.325  -5.004  0.00  0.00    -0.077 C 
BRANCH  26  28
ATOM     27  C   UNL     1      -0.380   8.232  -7.276  0.00  0.00    -0.096 C 
ATOM     28  N   UNL     1      -0.647   9.113  -6.120  0.00  0.00    +0.380 N 
ATOM     29  H   UNL     1       0.235   9.539  -5.814  0.00  0.00    -0.082 HD
BRANCH  28  30
ATOM     30  C   UNL     1      -1.589  10.184  -6.508  0.00  0.00    -0.069 C 
ATOM     31  C   UNL     1      -2.892   9.586  -7.042  0.00  0.00    -0.015 C 
ATOM     32  C   UNL     1      -3.847  10.714  -7.437  0.00  0.00    -0.002 C 
ATOM     33  C   UNL     1      -3.198  11.575  -8.523  0.00  0.00    -0.000 C 
ATOM     34  C   UNL     1      -1.895  12.173  -7.990  0.00  0.00    -0.002 C 
ATOM     35  C   UNL     1      -0.940  11.044  -7.594  0.00  0.00    -0.015 C 
ENDBRANCH  28  30
ENDBRANCH  26  28
ENDBRANCH  25  26
ENDBRANCH  24  25
ENDBRANCH  20  24
ENDBRANCH   1  21
TORSDOF 6
