REMARK  Name = ZINC13029000
REMARK  7 active torsions:
REMARK  status: ('A' for Active; 'I' for Inactive)
REMARK    1  A    between atoms: C_1  and  C_2
REMARK    2  A    between atoms: C_5  and  C_17
REMARK    3  A    between atoms: N_8  and  C_10
REMARK    4  A    between atoms: C_17  and  O_19
REMARK    5  A    between atoms: O_19  and  C_20
REMARK    6  A    between atoms: C_20  and  C_21
REMARK    7  A    between atoms: C_21  and  C_23
REMARK                            x       y       z     vdW  Elec       q    Type
REMARK                         _______ _______ _______ _____ _____    ______ ____
ROOT
ATOM      1  C   UNL     1       7.135   2.410  -2.464  0.00  0.00    +0.346 C 
ATOM      2  O   UNL     1       8.158   1.754  -2.424  0.00  0.00    -0.244 OA
ENDROOT
BRANCH   1   7
ATOM      3  C   UNL     1       4.584  -1.695   0.918  0.00  0.00    +0.068 C 
ATOM      4  C   UNL     1       3.911  -0.450   0.399  0.00  0.00    +0.069 A 
ATOM      5  C   UNL     1       4.530   0.548  -0.423  0.00  0.00    +0.031 A 
ATOM      6  C   UNL     1       5.772   0.812  -1.018  0.00  0.00    +0.034 A 
ATOM      7  C   UNL     1       5.938   1.943  -1.762  0.00  0.00    +0.099 A 
ATOM      8  S   UNL     1       4.330   2.713  -1.665  0.00  0.00    -0.062 S 
ATOM      9  C   UNL     1       3.525   1.499  -0.653  0.00  0.00    +0.113 A 
ATOM     10  N   UNL     1       2.404   1.105  -0.015  0.00  0.00    -0.225 N 
ATOM     11  N   UNL     1       2.678  -0.110   0.626  0.00  0.00    -0.170 NA
BRANCH  10  12
ATOM     12  C   UNL     1       1.180   1.787   0.000  0.00  0.00    +0.067 A 
ATOM     13  C   UNL     1      -0.013   1.076   0.008  0.00  0.00    +0.029 A 
ATOM     14  C   UNL     1      -1.218   1.751   0.017  0.00  0.00    +0.022 A 
ATOM     15  C   UNL     1      -1.237   3.134   0.030  0.00  0.00    +0.041 A 
ATOM     16  C   UNL     1      -0.050   3.845   0.023  0.00  0.00    +0.022 A 
ATOM     17  C   UNL     1       1.158   3.175   0.008  0.00  0.00    +0.029 A 
ATOM     18 CL   UNL     1      -2.753   3.979   0.048  0.00  0.00    -0.084 Cl
ENDBRANCH  10  12
ENDBRANCH   1   7
BRANCH   1  19
ATOM     19  O   UNL     1       7.103   3.568  -3.155  0.00  0.00    -0.453 OA
BRANCH  19  20
ATOM     20  C   UNL     1       8.326   3.969  -3.826  0.00  0.00    +0.311 C 
BRANCH  20  21
ATOM     21  C   UNL     1       8.102   5.277  -4.540  0.00  0.00    +0.200 C 
ATOM     22  O   UNL     1       7.018   5.818  -4.488  0.00  0.00    -0.288 OA
BRANCH  21  23
ATOM     23  C   UNL     1       9.196   5.897  -5.299  0.00  0.00    +0.023 A 
ATOM     24  C   UNL     1      10.450   5.277  -5.355  0.00  0.00    +0.015 A 
ATOM     25  C   UNL     1      11.475   5.854  -6.072  0.00  0.00    +0.048 A 
ATOM     26  C   UNL     1      11.271   7.059  -6.730  0.00  0.00    +0.142 A 
ATOM     27  C   UNL     1      10.024   7.687  -6.674  0.00  0.00    +0.076 A 
ATOM     28  C   UNL     1       8.990   7.113  -5.963  0.00  0.00    +0.038 A 
ATOM     29  N   UNL     1       9.839   8.905  -7.345  0.00  0.00    -0.280 N 
ATOM     30  C   UNL     1      10.742   9.282  -8.276  0.00  0.00    +0.255 C 
ATOM     31  O   UNL     1      10.619  10.344  -8.849  0.00  0.00    -0.272 OA
ATOM     32  C   UNL     1      11.903   8.377  -8.601  0.00  0.00    +0.325 C 
ATOM     33  O   UNL     1      12.277   7.638  -7.435  0.00  0.00    -0.481 OA
ATOM     34  H   UNL     1       9.075   9.467  -7.144  0.00  0.00    +0.155 HD
ENDBRANCH  21  23
ENDBRANCH  20  21
ENDBRANCH  19  20
ENDBRANCH   1  19
TORSDOF 6
