REMARK  Name = ZINC53169909
REMARK  3 active torsions:
REMARK  status: ('A' for Active; 'I' for Inactive)
REMARK    1  A    between atoms: C_1  and  C_2
REMARK    2  A    between atoms: C_2  and  C_4
REMARK    3  A    between atoms: C_2  and  N_9
REMARK                            x       y       z     vdW  Elec       q    Type
REMARK                         _______ _______ _______ _____ _____    ______ ____
ROOT
ATOM      1  N   UNL     1       0.688  -0.476  -1.203  0.00  0.00    -0.299 N 
ATOM      2  C   UNL     1       1.827  -1.266  -1.246  0.00  0.00    +0.109 A 
ATOM      3  C   UNL     1       2.115  -1.463  -2.605  0.00  0.00    +0.094 A 
ATOM      4  C   UNL     1       3.224  -2.230  -2.970  0.00  0.00    +0.033 A 
ATOM      5  C   UNL     1       4.024  -2.785  -1.996  0.00  0.00    +0.043 A 
ATOM      6  C   UNL     1       3.736  -2.590  -0.652  0.00  0.00    +0.161 A 
ATOM      7  C   UNL     1       2.641  -1.832  -0.275  0.00  0.00    +0.184 A 
ATOM      8  F   UNL     1       2.366  -1.644   1.034  0.00  0.00    -0.200 F 
ATOM      9  F   UNL     1       4.529  -3.141   0.292  0.00  0.00    -0.202 F 
ATOM     10  N   UNL     1       1.163  -0.801  -3.316  0.00  0.00    -0.215 NA
ATOM     11  C   UNL     1       0.321  -0.227  -2.495  0.00  0.00    +0.195 A 
ATOM     12  N   UNL     1      -0.773   0.523  -2.877  0.00  0.00    -0.329 N 
ATOM     13  H   UNL     1      -1.348   0.919  -2.204  0.00  0.00    +0.145 HD
ATOM     14  H   UNL     1      -0.966   0.654  -3.818  0.00  0.00    +0.145 HD
ENDROOT
BRANCH   1  16
ATOM     15  C   UNL     1      -0.019   1.526   0.010  0.00  0.00    +0.039 C 
ATOM     16  C   UNL     1       0.002  -0.004   0.002  0.00  0.00    +0.153 C 
BRANCH  16  17
ATOM     17  C   UNL     1      -1.412  -0.526   0.013  0.00  0.00    +0.127 A 
ATOM     18  C   UNL     1      -1.954  -1.310   0.961  0.00  0.00    +0.047 A 
ATOM     19  C   UNL     1      -3.291  -1.558   0.574  0.00  0.00    +0.041 A 
ATOM     20  C   UNL     1      -3.486  -0.909  -0.588  0.00  0.00    +0.195 A 
ATOM     21  O   UNL     1      -2.346  -0.281  -0.920  0.00  0.00    -0.466 OA
ENDBRANCH  16  17
ENDBRANCH   1  16
TORSDOF 2
