REMARK  Name = ZINC09256528
REMARK  12 active torsions:
REMARK  status: ('A' for Active; 'I' for Inactive)
REMARK    1  A    between atoms: C_1  and  C_2
REMARK    2  A    between atoms: C_3  and  C_32
REMARK    3  A    between atoms: C_4  and  C_31
REMARK    4  A    between atoms: C_7  and  C_8
REMARK    5  A    between atoms: C_8  and  C_10
REMARK    6  A    between atoms: C_10  and  C_12
REMARK    7  A    between atoms: C_10  and  N_57
REMARK    8  A    between atoms: C_13  and  C_14
REMARK    9  A    between atoms: C_13  and  N_57
REMARK   10  A    between atoms: C_14  and  C_16
REMARK   11  A    between atoms: C_14  and  C_21
REMARK   12  A    between atoms: C_32  and  C_34
REMARK                            x       y       z     vdW  Elec       q    Type
REMARK                         _______ _______ _______ _____ _____    ______ ____
ROOT
ATOM      1  N   UNL     1      -0.100   0.346  -0.541  0.00  0.00    +0.386 N 
ATOM      2  H   UNL     1      -0.184  -0.663  -0.711  0.00  0.00    -0.085 HD
ATOM      3  H   UNL     1      -0.453   0.565   0.397  0.00  0.00    -0.085 HD
ENDROOT
BRANCH   1   4
ATOM      4  C   UNL     1      -0.897   1.076  -1.545  0.00  0.00    -0.001 C 
ATOM      5  C   UNL     1      -0.842   0.333  -2.881  0.00  0.00    -0.006 C 
BRANCH   4   6
ATOM      6  C   UNL     1      -2.327   1.159  -1.075  0.00  0.00    +0.165 C 
ATOM      7  O   UNL     1      -2.711   0.446  -0.170  0.00  0.00    -0.292 OA
BRANCH   6  14
ATOM      8  C   UNL     1      -5.312   1.511  -0.287  0.00  0.00    +0.047 C 
ATOM      9  C   UNL     1      -4.548   2.243  -1.361  0.00  0.00    -0.012 A 
ATOM     10  C   UNL     1      -5.055   3.241  -2.223  0.00  0.00    +0.041 A 
ATOM     11  C   UNL     1      -4.011   3.635  -3.048  0.00  0.00    +0.024 A 
ATOM     12  N   UNL     1      -2.918   2.934  -2.720  0.00  0.00    -0.355 N 
ATOM     13  H   UNL     1      -2.049   3.020  -3.142  0.00  0.00    +0.166 HD
ATOM     14  C   UNL     1      -3.223   2.067  -1.690  0.00  0.00    +0.084 A 
ATOM     15  C   UNL     1      -4.092   4.684  -4.128  0.00  0.00    +0.064 C 
BRANCH  10  16
ATOM     16  C   UNL     1      -6.425   3.763  -2.242  0.00  0.00    +0.162 C 
ATOM     17  O   UNL     1      -7.273   3.217  -2.917  0.00  0.00    -0.292 OA
ATOM     18  C   UNL     1      -6.781   4.978  -1.424  0.00  0.00    +0.091 C 
ENDBRANCH  10  16
ENDBRANCH   6  14
ENDBRANCH   4   6
ENDBRANCH   1   4
BRANCH   1  19
ATOM     19  C   UNL     1       1.319   0.738  -0.631  0.00  0.00    -0.068 C 
BRANCH  19  20
ATOM     20  C   UNL     1       2.120  -0.034   0.419  0.00  0.00    +0.041 C 
BRANCH  20  21
ATOM     21  C   UNL     1       3.548   0.449   0.418  0.00  0.00    -0.016 A 
ATOM     22  C   UNL     1       4.402   0.410  -0.617  0.00  0.00    +0.087 A 
ATOM     23  N   UNL     1       5.609   0.938  -0.244  0.00  0.00    -0.360 N 
ATOM     24  H   UNL     1       6.384   1.018  -0.822  0.00  0.00    +0.165 HD
ATOM     25  C   UNL     1       5.559   1.339   1.072  0.00  0.00    +0.047 A 
ATOM     26  C   UNL     1       4.263   1.056   1.542  0.00  0.00    +0.003 A 
ATOM     27  C   UNL     1       3.918   1.365   2.859  0.00  0.00    +0.010 A 
ATOM     28  C   UNL     1       4.840   1.944   3.684  0.00  0.00    +0.001 A 
ATOM     29  C   UNL     1       6.118   2.229   3.224  0.00  0.00    +0.002 A 
ATOM     30  C   UNL     1       6.482   1.926   1.930  0.00  0.00    +0.026 A 
ENDBRANCH  20  21
BRANCH  20  31
ATOM     31  C   UNL     1       2.087  -1.506   0.094  0.00  0.00    -0.005 A 
ATOM     32  C   UNL     1       1.617  -2.534   0.841  0.00  0.00    +0.012 A 
ATOM     33  C   UNL     1       1.687  -3.818   0.333  0.00  0.00    +0.008 A 
ATOM     34  C   UNL     1       2.235  -4.011  -0.892  0.00  0.00    +0.045 A 
ATOM     35  S   UNL     1       2.666  -2.346  -1.371  0.00  0.00    -0.101 S 
ENDBRANCH  20  31
ENDBRANCH  19  20
ENDBRANCH   1  19
TORSDOF 8
