REMARK  Name = ZINC39668351
REMARK  9 active torsions:
REMARK  status: ('A' for Active; 'I' for Inactive)
REMARK    1  A    between atoms: C_1  and  C_2
REMARK    2  A    between atoms: C_2  and  C_3
REMARK    3  A    between atoms: C_2  and  C_4
REMARK    4  A    between atoms: C_4  and  C_6
REMARK    5  A    between atoms: C_4  and  O_32
REMARK    6  A    between atoms: C_10  and  C_19
REMARK    7  A    between atoms: N_21  and  C_22
REMARK    8  A    between atoms: C_22  and  C_23
REMARK    9  A    between atoms: O_32  and  C_33
REMARK                            x       y       z     vdW  Elec       q    Type
REMARK                         _______ _______ _______ _____ _____    ______ ____
ROOT
ATOM      1  C   UNL     1      -1.638  -2.225   1.310  0.00  0.00    +0.257 C 
ATOM      2  O   UNL     1      -1.904  -3.096   0.509  0.00  0.00    -0.272 OA
ATOM      3  N   UNL     1      -1.056  -2.544   2.483  0.00  0.00    -0.297 N 
ATOM      4  C   UNL     1      -0.767  -1.648   3.627  0.00  0.00    +0.121 C 
ATOM      5  C   UNL     1      -1.083  -2.498   4.878  0.00  0.00    +0.100 C 
ATOM      6  C   UNL     1      -0.942  -3.955   4.408  0.00  0.00    -0.004 C 
ATOM      7  C   UNL     1      -0.564  -3.872   2.922  0.00  0.00    +0.115 C 
ATOM      8  C   UNL     1       0.157  -4.661   5.196  0.00  0.00    -0.010 C 
ATOM      9  C   UNL     1       0.238  -6.124   4.751  0.00  0.00    -0.082 C 
ATOM     10  N   UNL     1      -1.054  -6.780   4.982  0.00  0.00    +0.379 N 
ATOM     11  C   UNL     1      -2.089  -6.154   4.150  0.00  0.00    -0.082 C 
ATOM     12  C   UNL     1      -2.268  -4.692   4.569  0.00  0.00    -0.010 C 
ATOM     13  H   UNL     1      -0.980  -7.758   4.746  0.00  0.00    -0.086 HD
ATOM     14  H   UNL     1      -1.307  -6.690   5.955  0.00  0.00    -0.086 HD
ENDROOT
BRANCH   5  15
ATOM     15  C   UNL     1      -2.488  -2.230   5.354  0.00  0.00    +0.218 C 
ATOM     16  O   UNL     1      -3.358  -1.964   4.552  0.00  0.00    -0.275 OA
ATOM     17  N   UNL     1      -2.776  -2.287   6.669  0.00  0.00    -0.311 N 
ATOM     18  H   UNL     1      -2.080  -2.499   7.309  0.00  0.00    +0.149 HD
BRANCH  17  19
ATOM     19  C   UNL     1      -4.142  -2.026   7.131  0.00  0.00    +0.139 C 
BRANCH  19  20
ATOM     20  C   UNL     1      -4.197  -2.152   8.632  0.00  0.00    -0.030 A 
ATOM     21  C   UNL     1      -4.474  -3.374   9.216  0.00  0.00    +0.009 A 
ATOM     22  C   UNL     1      -4.522  -3.495  10.589  0.00  0.00    +0.046 A 
ATOM     23  C   UNL     1      -4.291  -2.386  11.399  0.00  0.00    +0.124 A 
ATOM     24  C   UNL     1      -4.021  -1.162  10.801  0.00  0.00    -0.002 A 
ATOM     25  C   UNL     1      -3.965  -1.046   9.429  0.00  0.00    +0.012 A 
ATOM     26  C   UNL     1      -3.840  -0.151  11.917  0.00  0.00    +0.080 C 
ATOM     27  C   UNL     1      -4.435  -0.904  13.130  0.00  0.00    +0.234 C 
ATOM     28  O   UNL     1      -4.277  -2.284  12.757  0.00  0.00    -0.491 OA
ENDBRANCH  19  20
ENDBRANCH  17  19
ENDBRANCH   5  15
BRANCH   1  29
ATOM     29  C   UNL     1      -1.960  -0.787   0.995  0.00  0.00    +0.261 C 
BRANCH  29  31
ATOM     30  C   UNL     1      -1.022   1.379   0.175  0.00  0.00    +0.011 C 
ATOM     31  C   UNL     1      -0.712  -0.096   0.441  0.00  0.00    +0.033 C 
ATOM     32  C   UNL     1       0.424  -0.202   1.460  0.00  0.00    +0.011 C 
ENDBRANCH  29  31
BRANCH  29  33
ATOM     33  O   UNL     1      -3.005  -0.735   0.022  0.00  0.00    -0.479 OA
BRANCH  33  34
ATOM     34  C   UNL     1      -3.974   0.199   0.207  0.00  0.00    +0.122 A 
ATOM     35  C   UNL     1      -5.084   0.224  -0.625  0.00  0.00    +0.045 A 
ATOM     36  C   UNL     1      -6.068   1.174  -0.434  0.00  0.00    +0.004 A 
ATOM     37  C   UNL     1      -5.948   2.100   0.585  0.00  0.00    +0.000 A 
ATOM     38  C   UNL     1      -4.843   2.079   1.416  0.00  0.00    +0.004 A 
ATOM     39  C   UNL     1      -3.859   1.126   1.233  0.00  0.00    +0.045 A 
ENDBRANCH  33  34
ENDBRANCH  29  33
ENDBRANCH   1  29
TORSDOF 7
