REMARK  Name = ZINC38794634
REMARK  10 active torsions:
REMARK  status: ('A' for Active; 'I' for Inactive)
REMARK    1  A    between atoms: C_1  and  C_2
REMARK    2  A    between atoms: C_2  and  C_3
REMARK    3  A    between atoms: C_2  and  C_4
REMARK    4  A    between atoms: C_4  and  C_6
REMARK    5  A    between atoms: C_4  and  N_24
REMARK    6  A    between atoms: C_10  and  S_13
REMARK    7  A    between atoms: S_13  and  C_16
REMARK    8  A    between atoms: C_16  and  C_17
REMARK    9  A    between atoms: N_24  and  S_25
REMARK   10  A    between atoms: S_25  and  C_28
REMARK                            x       y       z     vdW  Elec       q    Type
REMARK                         _______ _______ _______ _____ _____    ______ ____
ROOT
ATOM      1  C   UNL     1      -1.427  -0.534   0.139  0.00  0.00    +0.124 C 
ENDROOT
BRANCH   1   2
ATOM      2  C   UNL     1      -2.115   0.154   1.319  0.00  0.00    +0.222 C 
ATOM      3  N   UNL     1      -3.408  -0.509   1.605  0.00  0.00    -0.224 NA
ATOM      4  N   UNL     1      -4.301   0.608   1.961  0.00  0.00    -0.208 NA
ATOM      5  C   UNL     1      -3.837   1.687   1.050  0.00  0.00    +0.348 C 
ATOM      6  O   UNL     1      -2.404   1.521   0.987  0.00  0.00    -0.321 OA
ATOM      7  H   UNL     1      -3.320  -1.159   2.371  0.00  0.00    +0.143 HD
ATOM      8  H   UNL     1      -4.180   0.873   2.927  0.00  0.00    +0.145 HD
BRANCH   5   9
ATOM      9  S   UNL     1      -4.255   3.315   1.733  0.00  0.00    +0.015 S 
ATOM     10  O   UNL     1      -3.658   4.312   0.916  0.00  0.00    -0.170 OA
ATOM     11  O   UNL     1      -5.656   3.358   1.965  0.00  0.00    -0.170 OA
BRANCH   9  12
ATOM     12  C   UNL     1      -3.408   3.305   3.338  0.00  0.00    +0.205 C 
BRANCH  12  13
ATOM     13  C   UNL     1      -3.660   4.611   4.046  0.00  0.00    -0.026 A 
ATOM     14  C   UNL     1      -2.801   5.678   3.854  0.00  0.00    +0.008 A 
ATOM     15  C   UNL     1      -3.031   6.876   4.503  0.00  0.00    +0.038 A 
ATOM     16  C   UNL     1      -4.122   7.008   5.345  0.00  0.00    +0.123 A 
ATOM     17  C   UNL     1      -4.981   5.940   5.537  0.00  0.00    +0.038 A 
ATOM     18  C   UNL     1      -4.752   4.744   4.883  0.00  0.00    +0.008 A 
ATOM     19  F   UNL     1      -4.347   8.179   5.980  0.00  0.00    -0.205 F 
ENDBRANCH  12  13
ENDBRANCH   9  12
ENDBRANCH   5   9
ENDBRANCH   1   2
BRANCH   1  21
ATOM     20  C   UNL     1      -0.207   1.577  -0.408  0.00  0.00    +0.009 C 
ATOM     21  C   UNL     1      -0.047   0.090  -0.082  0.00  0.00    +0.005 C 
ATOM     22  C   UNL     1       0.792  -0.066   1.188  0.00  0.00    +0.009 C 
ENDBRANCH   1  21
BRANCH   1  23
ATOM     23  N   UNL     1      -2.239  -0.363  -1.069  0.00  0.00    -0.183 NA
ATOM     24  H   UNL     1      -2.736   0.458  -1.206  0.00  0.00    +0.148 HD
BRANCH  23  25
ATOM     25  S   UNL     1      -2.309  -1.572  -2.198  0.00  0.00    +0.059 S 
ATOM     26  O   UNL     1      -3.186  -1.122  -3.221  0.00  0.00    -0.153 OA
ATOM     27  O   UNL     1      -0.967  -1.961  -2.460  0.00  0.00    -0.153 OA
BRANCH  25  28
ATOM     28  C   UNL     1      -3.093  -2.954  -1.435  0.00  0.00    +0.109 A 
ATOM     29  C   UNL     1      -2.328  -3.895  -0.764  0.00  0.00    +0.031 A 
ATOM     30  C   UNL     1      -2.927  -4.980  -0.162  0.00  0.00    +0.033 A 
ATOM     31  C   UNL     1      -4.313  -5.130  -0.229  0.00  0.00    +0.113 A 
ATOM     32  C   UNL     1      -5.083  -4.175  -0.908  0.00  0.00    +0.161 A 
ATOM     33  C   UNL     1      -4.465  -3.087  -1.504  0.00  0.00    +0.077 A 
ATOM     34  O   UNL     1      -6.370  -4.580  -0.806  0.00  0.00    -0.406 OA
ATOM     35  C   UNL     1      -6.394  -5.724  -0.101  0.00  0.00    +0.441 A 
ATOM     36  O   UNL     1      -7.511  -6.423   0.202  0.00  0.00    -0.221 OA
ATOM     37  N   UNL     1      -5.182  -6.063   0.248  0.00  0.00    -0.172 NA
ENDBRANCH  25  28
ENDBRANCH  23  25
ENDBRANCH   1  23
TORSDOF 8
