REMARK  Name = ZINC66661108
REMARK  9 active torsions:
REMARK  status: ('A' for Active; 'I' for Inactive)
REMARK    1  A    between atoms: C_1  and  C_2
REMARK    2  A    between atoms: C_2  and  C_4
REMARK    3  A    between atoms: C_2  and  N_7
REMARK    4  A    between atoms: C_8  and  N_12
REMARK    5  A    between atoms: C_13  and  C_15
REMARK    6  A    between atoms: C_15  and  C_16
REMARK    7  A    between atoms: C_16  and  C_17
REMARK    8  A    between atoms: C_17  and  N_18
REMARK    9  A    between atoms: N_21  and  C_22
REMARK                            x       y       z     vdW  Elec       q    Type
REMARK                         _______ _______ _______ _____ _____    ______ ____
ROOT
ATOM      1  C   UNL     1      -2.963  -3.058  -3.263  0.00  0.00    +0.098 C 
ENDROOT
BRANCH   1   3
ATOM      2  N   UNL     1      -1.151  -1.753  -2.200  0.00  0.00    -0.271 N 
ATOM      3  C   UNL     1      -1.556  -2.521  -3.231  0.00  0.00    +0.218 C 
ATOM      4  O   UNL     1      -0.787  -2.779  -4.133  0.00  0.00    -0.275 OA
ATOM      5  H   UNL     1      -1.766  -1.546  -1.479  0.00  0.00    +0.156 HD
BRANCH   2   7
ATOM      6  N   UNL     1       0.688  -0.476  -1.203  0.00  0.00    -0.247 N 
ATOM      7  C   UNL     1       0.151  -1.255  -2.171  0.00  0.00    +0.123 A 
ATOM      8  C   UNL     1       1.114  -1.465  -3.110  0.00  0.00    +0.065 A 
ATOM      9  C   UNL     1       2.268  -0.792  -2.698  0.00  0.00    +0.136 A 
ATOM     10  N   UNL     1       2.013  -0.197  -1.561  0.00  0.00    -0.178 NA
BRANCH   6  12
ATOM     11  C   UNL     1      -0.019   1.526   0.010  0.00  0.00    +0.033 C 
ATOM     12  C   UNL     1       0.002  -0.004   0.002  0.00  0.00    +0.109 C 
BRANCH  12  13
ATOM     13  C   UNL     1       0.742  -0.511   1.242  0.00  0.00    +0.013 C 
ATOM     14  C   UNL     1       0.038  -1.559   2.105  0.00  0.00    +0.006 C 
ATOM     15  C   UNL     1       0.178  -0.122   2.610  0.00  0.00    +0.006 C 
ENDBRANCH  12  13
ENDBRANCH   6  12
ENDBRANCH   2   7
ENDBRANCH   1   3
BRANCH   1  16
ATOM     16  C   UNL     1      -3.162  -3.892  -4.530  0.00  0.00    +0.028 C 
BRANCH  16  17
ATOM     17  C   UNL     1      -4.591  -4.438  -4.563  0.00  0.00    +0.106 C 
BRANCH  17  18
ATOM     18  N   UNL     1      -4.781  -5.237  -5.776  0.00  0.00    -0.299 N 
ATOM     19  C   UNL     1      -5.971  -5.821  -6.019  0.00  0.00    +0.300 C 
ATOM     20  O   UNL     1      -6.887  -5.685  -5.230  0.00  0.00    -0.253 OA
ATOM     21  N   UNL     1      -6.146  -6.556  -7.135  0.00  0.00    -0.297 N 
ATOM     22  H   UNL     1      -4.051  -5.345  -6.405  0.00  0.00    +0.150 HD
ATOM     23  H   UNL     1      -5.416  -6.664  -7.764  0.00  0.00    +0.151 HD
BRANCH  21  24
ATOM     24  C   UNL     1      -7.440  -7.191  -7.399  0.00  0.00    +0.074 C 
ATOM     25  C   UNL     1      -7.503  -8.539  -6.678  0.00  0.00    +0.022 C 
ATOM     26  C   UNL     1      -8.854  -9.202  -6.953  0.00  0.00    +0.002 C 
ATOM     27  C   UNL     1      -9.017  -9.420  -8.459  0.00  0.00    +0.000 C 
ATOM     28  C   UNL     1      -8.955  -8.072  -9.179  0.00  0.00    +0.002 C 
ATOM     29  C   UNL     1      -7.604  -7.409  -8.904  0.00  0.00    +0.022 C 
ENDBRANCH  21  24
ENDBRANCH  17  18
ENDBRANCH  16  17
ENDBRANCH   1  16
TORSDOF 8
