REMARK  Name = ZINC00848938
REMARK  4 active torsions:
REMARK  status: ('A' for Active; 'I' for Inactive)
REMARK    1  A    between atoms: C_1  and  C_2
REMARK    2  A    between atoms: C_5  and  C_28
REMARK    3  A    between atoms: C_6  and  N_8
REMARK    4  A    between atoms: C_12  and  N_25
REMARK                            x       y       z     vdW  Elec       q    Type
REMARK                         _______ _______ _______ _____ _____    ______ ____
ROOT
ATOM      1  N   UNL     1       0.050  -2.798   2.392  0.00  0.00    -0.293 N 
ATOM      2  C   UNL     1       1.255  -3.124   2.981  0.00  0.00    +0.056 A 
ATOM      3  C   UNL     1       2.449  -2.746   2.371  0.00  0.00    +0.029 A 
ATOM      4  C   UNL     1       3.653  -3.070   2.956  0.00  0.00    +0.035 A 
ATOM      5  C   UNL     1       3.692  -3.773   4.154  0.00  0.00    +0.127 A 
ATOM      6  C   UNL     1       2.538  -4.155   4.772  0.00  0.00    +0.042 A 
ATOM      7  C   UNL     1       1.297  -3.837   4.196  0.00  0.00    +0.002 A 
ATOM      8  C   UNL     1       0.096  -4.230   4.833  0.00  0.00    +0.027 A 
ATOM      9  C   UNL     1      -1.108  -3.903   4.244  0.00  0.00    +0.083 A 
ATOM     10  C   UNL     1      -2.402  -4.273   4.839  0.00  0.00    +0.263 A 
ATOM     11  O   UNL     1      -2.466  -4.888   5.887  0.00  0.00    -0.267 OA
ATOM     12  N   UNL     1      -3.519  -3.899   4.171  0.00  0.00    -0.273 N 
ATOM     13  H   UNL     1      -4.389  -4.125   4.534  0.00  0.00    +0.174 HD
ATOM     14  C   UNL     1      -3.442  -3.220   3.018  0.00  0.00    +0.350 A 
ATOM     15  O   UNL     1      -4.484  -2.912   2.465  0.00  0.00    -0.245 OA
ATOM     16  N   UNL     1      -2.300  -2.862   2.439  0.00  0.00    -0.175 NA
ATOM     17  C   UNL     1      -1.126  -3.156   2.982  0.00  0.00    +0.156 A 
ENDROOT
BRANCH   1  23
ATOM     18  C   UNL     1      -0.018   1.503   0.010  0.00  0.00    +0.044 C 
ATOM     19  C   UNL     1       0.002  -0.004   0.002  0.00  0.00    -0.048 A 
ATOM     20  C   UNL     1       0.006  -0.688  -1.200  0.00  0.00    +0.004 A 
ATOM     21  C   UNL     1       0.024  -2.071  -1.212  0.00  0.00    +0.005 A 
ATOM     22  C   UNL     1       0.039  -2.773  -0.023  0.00  0.00    -0.027 A 
ATOM     23  C   UNL     1       0.035  -2.089   1.186  0.00  0.00    +0.052 A 
ATOM     24  C   UNL     1       0.023  -0.700   1.194  0.00  0.00    +0.029 A 
ATOM     25  C   UNL     1       0.059  -4.280  -0.037  0.00  0.00    +0.046 C 
ENDBRANCH   1  23
BRANCH   5  26
ATOM     26  N   UNL     1       4.997  -4.111   4.764  0.00  0.00    +0.056 N 
ATOM     27  O   UNL     1       6.024  -3.775   4.221  0.00  0.00    -0.126 OA
ATOM     28  O   UNL     1       5.038  -4.722   5.807  0.00  0.00    -0.126 OA
ENDBRANCH   5  26
TORSDOF 2
