REMARK  Name = ZINC06933844
REMARK  6 active torsions:
REMARK  status: ('A' for Active; 'I' for Inactive)
REMARK    1  A    between atoms: C_1  and  C_2
REMARK    2  A    between atoms: C_2  and  C_3
REMARK    3  A    between atoms: C_3  and  C_5
REMARK    4  A    between atoms: C_3  and  N_8
REMARK    5  A    between atoms: C_9  and  C_11
REMARK    6  A    between atoms: C_14  and  C_16
REMARK                            x       y       z     vdW  Elec       q    Type
REMARK                         _______ _______ _______ _____ _____    ______ ____
ROOT
ATOM      1  N   UNL     1       1.390  -0.473  -0.014  0.00  0.00    -0.299 N 
ATOM      2  C   UNL     1       2.050  -0.587  -1.183  0.00  0.00    +0.264 C 
ATOM      3  O   UNL     1       1.493  -0.299  -2.226  0.00  0.00    -0.268 OA
ATOM      4  H   UNL     1       1.834  -0.703   0.818  0.00  0.00    +0.150 HD
ENDROOT
BRANCH   2   5
ATOM      5  C   UNL     1       3.444  -1.059  -1.199  0.00  0.00    +0.133 A 
ATOM      6  C   UNL     1       4.138  -1.189  -2.376  0.00  0.00    +0.079 A 
ATOM      7  S   UNL     1       5.676  -1.758  -1.810  0.00  0.00    -0.081 S 
ATOM      8  C   UNL     1       5.317  -1.797  -0.114  0.00  0.00    +0.065 A 
ATOM      9  N   UNL     1       4.078  -1.381  -0.071  0.00  0.00    -0.241 NA
BRANCH   8  10
ATOM     10  C   UNL     1       6.211  -2.209   1.028  0.00  0.00    -0.015 C 
ATOM     11  C   UNL     1       7.255  -1.109   1.319  0.00  0.00    -0.011 C 
ATOM     12  C   UNL     1       8.547  -1.869   1.682  0.00  0.00    -0.020 C 
ATOM     13  C   UNL     1       8.176  -3.364   1.580  0.00  0.00    -0.082 C 
ATOM     14  N   UNL     1       7.024  -3.375   0.677  0.00  0.00    +0.385 N 
ATOM     15  H   UNL     1       7.337  -3.308  -0.299  0.00  0.00    -0.085 HD
ATOM     16  H   UNL     1       6.481  -4.237   0.805  0.00  0.00    -0.085 HD
ENDBRANCH   8  10
ENDBRANCH   2   5
BRANCH   1  17
ATOM     17  C   UNL     1       0.002  -0.004   0.002  0.00  0.00    +0.159 C 
BRANCH  17  18
ATOM     18  C   UNL     1      -0.018   1.503   0.010  0.00  0.00    +0.231 C 
ATOM     19  O   UNL     1       1.024   2.123   0.004  0.00  0.00    -0.274 OA
ATOM     20  N   UNL     1      -1.195   2.161   0.019  0.00  0.00    -0.328 N 
ATOM     21  H   UNL     1      -2.028   1.664   0.021  0.00  0.00    +0.145 HD
ATOM     22  H   UNL     1      -1.208   3.131   0.025  0.00  0.00    +0.145 HD
ENDBRANCH  17  18
BRANCH  17  24
ATOM     23  C   UNL     1      -0.790  -2.056   1.187  0.00  0.00    +0.006 C 
ATOM     24  C   UNL     1      -0.700  -0.530   1.255  0.00  0.00    +0.028 C 
ENDBRANCH  17  24
ENDBRANCH   1  17
TORSDOF 5
