REMARK  Name = ZINC14033096
REMARK  9 active torsions:
REMARK  status: ('A' for Active; 'I' for Inactive)
REMARK    1  A    between atoms: C_1  and  C_2
REMARK    2  A    between atoms: C_2  and  C_3
REMARK    3  A    between atoms: C_3  and  C_4
REMARK    4  A    between atoms: C_13  and  C_15
REMARK    5  A    between atoms: C_15  and  C_16
REMARK    6  A    between atoms: N_18  and  C_19
REMARK    7  A    between atoms: C_19  and  C_21
REMARK    8  A    between atoms: C_19  and  C_22
REMARK    9  A    between atoms: C_22  and  C_23
REMARK                            x       y       z     vdW  Elec       q    Type
REMARK                         _______ _______ _______ _____ _____    ______ ____
ROOT
ATOM      1  C   UNL     1      -4.361  -0.567  -1.696  0.00  0.00    +0.049 A 
ATOM      2  C   UNL     1      -4.189   0.164  -0.557  0.00  0.00    +0.093 A 
ATOM      3  C   UNL     1      -3.003   0.883  -0.374  0.00  0.00    +0.255 A 
ATOM      4  O   UNL     1      -2.840   1.539   0.642  0.00  0.00    -0.268 OA
ATOM      5  N   UNL     1      -2.024   0.850  -1.332  0.00  0.00    -0.283 N 
ATOM      6  C   UNL     1      -2.275   0.097  -2.438  0.00  0.00    +0.172 A 
ATOM      7  N   UNL     1      -3.393  -0.578  -2.608  0.00  0.00    -0.228 NA
ATOM      8  S   UNL     1      -0.849   0.242  -3.493  0.00  0.00    -0.086 S 
ATOM      9  C   UNL     1       0.174   1.353  -2.459  0.00  0.00    +0.103 C 
ATOM     10  C   UNL     1      -0.748   1.559  -1.248  0.00  0.00    +0.112 C 
ENDROOT
BRANCH   1  11
ATOM     11  C   UNL     1      -5.630  -1.350  -1.919  0.00  0.00    +0.055 C 
BRANCH  11  13
ATOM     12  C   UNL     1      -7.894  -1.308  -2.973  0.00  0.00    +0.004 C 
ATOM     13  C   UNL     1      -6.606  -0.513  -2.747  0.00  0.00    +0.003 C 
ENDBRANCH  11  13
ENDBRANCH   1  11
BRANCH  10  14
ATOM     14  C   UNL     1      -0.013   1.086   0.008  0.00  0.00    +0.121 C 
BRANCH  14  15
ATOM     15  C   UNL     1       1.235   1.909   0.199  0.00  0.00    +0.215 C 
ATOM     16  O   UNL     1       1.453   2.857  -0.526  0.00  0.00    -0.276 OA
ATOM     17  N   UNL     1       2.108   1.592   1.176  0.00  0.00    -0.313 N 
ATOM     18  H   UNL     1       1.934   0.834   1.755  0.00  0.00    +0.149 HD
BRANCH  17  19
ATOM     19  C   UNL     1       3.321   2.392   1.361  0.00  0.00    +0.070 C 
ATOM     20  C   UNL     1       4.416   1.886   0.420  0.00  0.00    +0.028 C 
BRANCH  19  21
ATOM     21  C   UNL     1       3.797   2.268   2.810  0.00  0.00    +0.018 C 
ATOM     22  C   UNL     1       2.756   2.888   3.744  0.00  0.00    +0.005 C 
ENDBRANCH  19  21
ENDBRANCH  17  19
ENDBRANCH  14  15
ENDBRANCH  10  14
TORSDOF 6
