REMARK  Name = ZINC20644853
REMARK  13 active torsions:
REMARK  status: ('A' for Active; 'I' for Inactive)
REMARK    1  A    between atoms: C_1  and  C_2
REMARK    2  A    between atoms: C_2  and  C_3
REMARK    3  A    between atoms: C_3  and  C_5
REMARK    4  A    between atoms: C_3  and  S_15
REMARK    5  A    between atoms: N_7  and  C_8
REMARK    6  A    between atoms: C_8  and  C_9
REMARK    7  A    between atoms: S_15  and  C_16
REMARK    8  A    between atoms: C_20  and  C_34
REMARK    9  A    between atoms: C_21  and  C_23
REMARK   10  A    between atoms: N_25  and  C_26
REMARK   11  A    between atoms: C_29  and  C_33
REMARK   12  A    between atoms: C_31  and  C_32
REMARK   13  A    between atoms: N_37  and  N_38
REMARK                            x       y       z     vdW  Elec       q    Type
REMARK                         _______ _______ _______ _____ _____    ______ ____
ROOT
ATOM      1  C   UNL     1       7.962  -3.318   0.197  0.00  0.00    +0.190 A 
ATOM      2  N   UNL     1       7.580  -2.059   0.125  0.00  0.00    -0.215 NA
ATOM      3  C   UNL     1       6.310  -1.730  -0.044  0.00  0.00    +0.117 A 
ATOM      4  C   UNL     1       5.291  -2.706  -0.158  0.00  0.00    +0.077 A 
ATOM      5  C   UNL     1       3.995  -2.214  -0.328  0.00  0.00    -0.017 A 
ATOM      6  C   UNL     1       3.781  -0.868  -0.384  0.00  0.00    +0.080 A 
ATOM      7  S   UNL     1       5.424  -0.198  -0.184  0.00  0.00    -0.064 S 
ATOM      8  C   UNL     1       2.836  -3.168  -0.453  0.00  0.00    +0.046 C 
ATOM      9  C   UNL     1       5.753  -4.109  -0.074  0.00  0.00    +0.280 A 
ATOM     10  O   UNL     1       4.961  -5.032  -0.159  0.00  0.00    -0.265 OA
ATOM     11  N   UNL     1       7.068  -4.343   0.099  0.00  0.00    -0.209 N 
ENDROOT
BRANCH   6  12
ATOM     12  C   UNL     1       2.517  -0.150  -0.558  0.00  0.00    +0.255 C 
ATOM     13  O   UNL     1       1.477  -0.770  -0.681  0.00  0.00    -0.269 OA
ATOM     14  N   UNL     1       2.505   1.198  -0.583  0.00  0.00    -0.281 N 
ATOM     15  H   UNL     1       3.452   1.757  -0.555  0.00  0.00    +0.155 HD
BRANCH  14  16
ATOM     16  C   UNL     1       1.289   1.885  -0.643  0.00  0.00    +0.037 A 
ATOM     17  C   UNL     1       0.220   1.348  -1.350  0.00  0.00    +0.024 A 
ATOM     18  C   UNL     1      -0.978   2.032  -1.412  0.00  0.00    +0.005 A 
ATOM     19  C   UNL     1      -1.118   3.244  -0.762  0.00  0.00    -0.050 A 
ATOM     20  C   UNL     1      -0.057   3.781  -0.057  0.00  0.00    +0.008 A 
ATOM     21  C   UNL     1       1.146   3.105   0.004  0.00  0.00    -0.029 A 
ATOM     22  C   UNL     1       2.303   3.691   0.773  0.00  0.00    +0.045 C 
ATOM     23  C   UNL     1      -2.429   3.985  -0.826  0.00  0.00    +0.044 C 
ENDBRANCH  14  16
ENDBRANCH   6  12
BRANCH  11  24
ATOM     24  N   UNL     1       7.514  -5.631   0.179  0.00  0.00    -0.293 N 
ATOM     25  H   UNL     1       6.802  -6.466   0.101  0.00  0.00    +0.163 HD
ATOM     26  H   UNL     1       8.586  -5.834   0.321  0.00  0.00    +0.163 HD
ENDBRANCH  11  24
BRANCH   1  27
ATOM     27  S   UNL     1       9.670  -3.687   0.423  0.00  0.00    -0.073 S 
BRANCH  27  28
ATOM     28  C   UNL     1      10.325  -2.014   0.645  0.00  0.00    +0.140 C 
BRANCH  28  29
ATOM     29  C   UNL     1       9.776  -1.424   1.918  0.00  0.00    +0.226 C 
ATOM     30  O   UNL     1       9.411  -2.153   2.816  0.00  0.00    -0.275 OA
ATOM     31  N   UNL     1       9.689  -0.086   2.058  0.00  0.00    -0.312 N 
ATOM     32  H   UNL     1      10.020   0.575   1.244  0.00  0.00    +0.149 HD
BRANCH  31  33
ATOM     33  C   UNL     1       9.155   0.487   3.296  0.00  0.00    +0.135 C 
BRANCH  33  34
ATOM     34  C   UNL     1       9.166   2.014   3.197  0.00  0.00    +0.135 C 
ATOM     35  C   UNL     1       8.724   2.643   4.537  0.00  0.00    +0.035 C 
ATOM     36  C   UNL     1       7.891   3.875   4.116  0.00  0.00    +0.031 C 
ATOM     37  C   UNL     1       7.928   3.844   2.572  0.00  0.00    +0.160 C 
ATOM     38  O   UNL     1       8.185   2.463   2.237  0.00  0.00    -0.375 OA
ENDBRANCH  33  34
ENDBRANCH  31  33
ENDBRANCH  28  29
BRANCH  28  40
ATOM     39  C   UNL     1      12.417  -2.561  -0.607  0.00  0.00    +0.005 C 
ATOM     40  C   UNL     1      11.852  -2.071   0.728  0.00  0.00    +0.020 C 
ENDBRANCH  28  40
ENDBRANCH  27  28
ENDBRANCH   1  27
TORSDOF 9
