REMARK  Name = ZINC64592277
REMARK  5 active torsions:
REMARK  status: ('A' for Active; 'I' for Inactive)
REMARK    1  A    between atoms: C_1  and  N_2
REMARK    2  A    between atoms: C_10  and  N_12
REMARK    3  A    between atoms: C_13  and  C_15
REMARK    4  A    between atoms: N_17  and  C_18
REMARK    5  A    between atoms: C_18  and  C_19
REMARK                            x       y       z     vdW  Elec       q    Type
REMARK                         _______ _______ _______ _____ _____    ______ ____
ROOT
ATOM      1  N   UNL     1       4.966  -2.508   0.296  0.00  0.00    -0.278 N 
ATOM      2  C   UNL     1       6.092  -1.790   0.112  0.00  0.00    +0.303 C 
ATOM      3  O   UNL     1       6.027  -0.586  -0.028  0.00  0.00    -0.265 OA
ATOM      4  H   UNL     1       5.023  -3.458   0.485  0.00  0.00    +0.155 HD
ENDROOT
BRANCH   1  14
ATOM      5  C   UNL     1      -1.177  -0.660   0.618  0.00  0.00    +0.129 C 
ATOM      6  N   UNL     1      -0.015  -0.039  -0.022  0.00  0.00    -0.333 N 
ATOM      7  C   UNL     1      -0.151   1.234  -0.742  0.00  0.00    +0.105 C 
ATOM      8  C   UNL     1       0.616   1.109  -2.065  0.00  0.00    +0.024 C 
ATOM      9  C   UNL     1       2.099   0.899  -1.758  0.00  0.00    +0.038 C 
ATOM     10  C   UNL     1       2.280  -0.229  -0.777  0.00  0.00    -0.025 A 
ATOM     11  C   UNL     1       1.245  -0.647   0.047  0.00  0.00    +0.033 A 
ATOM     12  C   UNL     1       1.446  -1.685   0.951  0.00  0.00    +0.025 A 
ATOM     13  C   UNL     1       2.677  -2.302   1.035  0.00  0.00    +0.025 A 
ATOM     14  C   UNL     1       3.717  -1.885   0.214  0.00  0.00    +0.034 A 
ATOM     15  C   UNL     1       3.513  -0.853  -0.697  0.00  0.00    +0.028 A 
ENDBRANCH   1  14
BRANCH   2  16
ATOM     16  C   UNL     1       7.418  -2.475   0.080  0.00  0.00    +0.300 C 
ATOM     17  O   UNL     1       7.483  -3.678   0.220  0.00  0.00    -0.265 OA
ATOM     18  N   UNL     1       8.543  -1.756  -0.104  0.00  0.00    -0.300 N 
ATOM     19  H   UNL     1       8.492  -0.794  -0.215  0.00  0.00    +0.150 HD
BRANCH  18  20
ATOM     20  C   UNL     1       9.845  -2.428  -0.135  0.00  0.00    +0.179 C 
BRANCH  20  21
ATOM     21  C   UNL     1      10.932  -1.407  -0.352  0.00  0.00    +0.123 A 
ATOM     22  C   UNL     1      11.583  -0.760   0.625  0.00  0.00    +0.055 A 
ATOM     23  C   UNL     1      12.544   0.126  -0.042  0.00  0.00    +0.020 A 
ATOM     24  C   UNL     1      13.497   1.041   0.403  0.00  0.00    +0.011 A 
ATOM     25  C   UNL     1      14.254   1.727  -0.506  0.00  0.00    +0.001 A 
ATOM     26  C   UNL     1      14.079   1.518  -1.867  0.00  0.00    +0.004 A 
ATOM     27  C   UNL     1      13.142   0.617  -2.325  0.00  0.00    +0.047 A 
ATOM     28  C   UNL     1      12.363  -0.091  -1.418  0.00  0.00    +0.135 A 
ATOM     29  O   UNL     1      11.394  -1.018  -1.553  0.00  0.00    -0.458 OA
ENDBRANCH  20  21
ENDBRANCH  18  20
ENDBRANCH   2  16
TORSDOF 4
