REMARK  Name = ZINC63079099
REMARK  5 active torsions:
REMARK  status: ('A' for Active; 'I' for Inactive)
REMARK    1  A    between atoms: C_1  and  N_2
REMARK    2  A    between atoms: C_9  and  C_11
REMARK    3  A    between atoms: C_11  and  S_12
REMARK    4  A    between atoms: S_12  and  C_13
REMARK    5  A    between atoms: C_19  and  N_21
REMARK                            x       y       z     vdW  Elec       q    Type
REMARK                         _______ _______ _______ _____ _____    ______ ____
ROOT
ATOM      1  C   UNL     1      -0.001  -1.232  -4.754  0.00  0.00    +0.153 C 
ENDROOT
BRANCH   1  10
ATOM      2  C   UNL     1      -0.018   1.461   0.010  0.00  0.00    +0.174 C 
ATOM      3  N   UNL     1       0.002  -0.004   0.002  0.00  0.00    -0.249 N 
ATOM      4  C   UNL     1       0.008  -0.787  -1.113  0.00  0.00    +0.163 A 
ATOM      5  C   UNL     1       0.028  -2.127  -0.668  0.00  0.00    +0.075 A 
ATOM      6  C   UNL     1       0.034  -2.075   0.788  0.00  0.00    +0.147 A 
ATOM      7  N   UNL     1       0.024  -0.820   1.138  0.00  0.00    -0.177 NA
ATOM      8  C   UNL     1       0.038  -3.148  -1.623  0.00  0.00    +0.143 A 
ATOM      9  N   UNL     1       0.028  -2.814  -2.903  0.00  0.00    -0.219 NA
ATOM     10  C   UNL     1       0.009  -1.547  -3.281  0.00  0.00    +0.143 A 
ATOM     11  N   UNL     1      -0.001  -0.551  -2.422  0.00  0.00    -0.212 NA
ATOM     12 CL   UNL     1       0.063  -4.815  -1.141  0.00  0.00    -0.061 Cl
ENDBRANCH   1  10
BRANCH   1  13
ATOM     13  S   UNL     1      -1.716  -1.129  -5.339  0.00  0.00    -0.080 S 
BRANCH  13  14
ATOM     14  C   UNL     1      -1.559  -0.760  -7.055  0.00  0.00    +0.171 A 
ATOM     15  N   UNL     1      -2.683  -0.607  -7.810  0.00  0.00    -0.302 N 
ATOM     16  H   UNL     1      -3.557  -0.702  -7.401  0.00  0.00    +0.171 HD
ATOM     17  C   UNL     1      -2.582  -0.324  -9.125  0.00  0.00    +0.254 A 
ATOM     18  O   UNL     1      -3.584  -0.186  -9.809  0.00  0.00    -0.268 OA
ATOM     19  C   UNL     1      -1.311  -0.193  -9.692  0.00  0.00    +0.113 A 
ATOM     20  C   UNL     1      -0.197  -0.357  -8.880  0.00  0.00    +0.124 A 
ATOM     21  N   UNL     1      -0.358  -0.632  -7.581  0.00  0.00    -0.209 NA
BRANCH  20  22
ATOM     22  N   UNL     1       1.071  -0.234  -9.410  0.00  0.00    -0.343 N 
ATOM     23  H   UNL     1       1.186  -0.031 -10.351  0.00  0.00    +0.144 HD
ATOM     24  H   UNL     1       1.848  -0.349  -8.841  0.00  0.00    +0.144 HD
ENDBRANCH  20  22
ENDBRANCH  13  14
ENDBRANCH   1  13
TORSDOF 4
