REMARK  Name = ZINC47469727
REMARK  10 active torsions:
REMARK  status: ('A' for Active; 'I' for Inactive)
REMARK    1  A    between atoms: C_1  and  C_2
REMARK    2  A    between atoms: C_2  and  C_3
REMARK    3  A    between atoms: C_3  and  N_4
REMARK    4  A    between atoms: C_5  and  C_7
REMARK    5  A    between atoms: C_7  and  C_9
REMARK    6  A    between atoms: C_7  and  N_10
REMARK    7  A    between atoms: N_13  and  C_14
REMARK    8  A    between atoms: C_14  and  C_15
REMARK    9  A    between atoms: C_15  and  C_17
REMARK   10  A    between atoms: C_15  and  C_22
REMARK                            x       y       z     vdW  Elec       q    Type
REMARK                         _______ _______ _______ _____ _____    ______ ____
ROOT
ATOM      1  C   UNL     1      -5.735  -7.732   1.045  0.00  0.00    +0.119 C 
ENDROOT
BRANCH   1   5
ATOM      2  N   UNL     1      -3.925  -4.702   0.014  0.00  0.00    -0.288 N 
ATOM      3  C   UNL     1      -4.187  -5.930   0.503  0.00  0.00    +0.300 C 
ATOM      4  O   UNL     1      -3.282  -6.618   0.936  0.00  0.00    -0.253 OA
ATOM      5  N   UNL     1      -5.451  -6.397   0.513  0.00  0.00    -0.298 N 
ATOM      6  H   UNL     1      -4.647  -4.154  -0.331  0.00  0.00    +0.151 HD
ATOM      7  H   UNL     1      -6.173  -5.849   0.168  0.00  0.00    +0.150 HD
BRANCH   2   8
ATOM      8  C   UNL     1      -2.551  -4.195   0.004  0.00  0.00    +0.157 C 
ATOM      9  C   UNL     1      -1.835  -4.688  -1.255  0.00  0.00    +0.038 C 
BRANCH   8  11
ATOM     10  N   UNL     1      -1.413  -1.998   0.005  0.00  0.00    -0.314 N 
ATOM     11  C   UNL     1      -2.571  -2.688   0.012  0.00  0.00    +0.233 C 
ATOM     12  O   UNL     1      -3.630  -2.096   0.025  0.00  0.00    -0.274 OA
ATOM     13  H   UNL     1      -0.567  -2.472  -0.006  0.00  0.00    +0.149 HD
BRANCH  10  14
ATOM     14  C   UNL     1      -1.433  -0.534   0.013  0.00  0.00    +0.104 C 
BRANCH  14  16
ATOM     15  C   UNL     1      -0.019   1.526   0.010  0.00  0.00    +0.005 C 
ATOM     16  C   UNL     1       0.002  -0.004   0.002  0.00  0.00    +0.015 C 
ENDBRANCH  14  16
ENDBRANCH  10  14
ENDBRANCH   8  11
ENDBRANCH   2   8
ENDBRANCH   1   5
BRANCH   1  17
ATOM     17  C   UNL     1      -7.235  -8.014   0.940  0.00  0.00    +0.075 C 
BRANCH  17  18
ATOM     18  C   UNL     1      -7.545  -9.335   1.597  0.00  0.00    -0.013 A 
ATOM     19  C   UNL     1      -7.044 -10.533   1.258  0.00  0.00    +0.088 A 
ATOM     20  N   UNL     1      -7.554 -11.501   2.079  0.00  0.00    -0.360 N 
ATOM     21  H   UNL     1      -7.339 -12.446   2.027  0.00  0.00    +0.165 HD
ATOM     22  C   UNL     1      -8.419 -10.936   2.989  0.00  0.00    +0.047 A 
ATOM     23  C   UNL     1      -8.447  -9.553   2.731  0.00  0.00    +0.003 A 
ATOM     24  C   UNL     1      -9.243  -8.714   3.513  0.00  0.00    +0.010 A 
ATOM     25  C   UNL     1      -9.991  -9.242   4.527  0.00  0.00    +0.001 A 
ATOM     26  C   UNL     1      -9.964 -10.604   4.788  0.00  0.00    +0.002 A 
ATOM     27  C   UNL     1      -9.192 -11.451   4.024  0.00  0.00    +0.026 A 
ENDBRANCH  17  18
BRANCH  17  28
ATOM     28  C   UNL     1      -7.635  -8.070  -0.512  0.00  0.00    -0.001 A 
ATOM     29  C   UNL     1      -8.525  -7.298  -1.183  0.00  0.00    +0.012 A 
ATOM     30  C   UNL     1      -8.734  -7.532  -2.529  0.00  0.00    +0.008 A 
ATOM     31  C   UNL     1      -8.043  -8.525  -3.139  0.00  0.00    +0.045 A 
ATOM     32  S   UNL     1      -7.054  -9.165  -1.798  0.00  0.00    -0.101 S 
ENDBRANCH  17  28
ENDBRANCH   1  17
TORSDOF 8
