REMARK  Name = ZINC36395097
REMARK  11 active torsions:
REMARK  status: ('A' for Active; 'I' for Inactive)
REMARK    1  A    between atoms: C_1  and  C_2
REMARK    2  A    between atoms: C_6  and  N_9
REMARK    3  A    between atoms: C_7  and  C_8
REMARK    4  A    between atoms: C_11  and  C_15
REMARK    5  A    between atoms: N_17  and  C_18
REMARK    6  A    between atoms: C_20  and  S_26
REMARK    7  A    between atoms: C_23  and  O_24
REMARK    8  A    between atoms: O_24  and  C_25
REMARK    9  A    between atoms: S_26  and  N_29
REMARK   10  A    between atoms: N_29  and  C_30
REMARK   11  A    between atoms: N_29  and  C_31
REMARK                            x       y       z     vdW  Elec       q    Type
REMARK                         _______ _______ _______ _____ _____    ______ ____
ROOT
ATOM      1  C   UNL     1       4.322  -2.095   3.818  0.00  0.00    +0.222 C 
ATOM      2  O   UNL     1       4.563  -1.504   2.787  0.00  0.00    -0.275 OA
ATOM      3  N   UNL     1       5.017  -1.810   4.937  0.00  0.00    -0.282 N 
ATOM      4  H   UNL     1       4.881  -2.337   5.740  0.00  0.00    +0.155 HD
ENDROOT
BRANCH   1   7
ATOM      5  N   UNL     1       1.425  -2.408   2.474  0.00  0.00    -0.297 N 
ATOM      6  C   UNL     1       2.586  -3.305   2.460  0.00  0.00    +0.121 C 
ATOM      7  C   UNL     1       3.245  -3.149   3.848  0.00  0.00    +0.101 C 
ATOM      8  C   UNL     1       2.049  -2.693   4.715  0.00  0.00    +0.110 C 
ATOM      9  C   UNL     1       1.101  -2.048   3.728  0.00  0.00    +0.217 C 
ATOM     10  O   UNL     1       0.182  -1.315   4.025  0.00  0.00    -0.276 OA
BRANCH   5  16
ATOM     11  C   UNL     1      -2.884  -2.590   0.056  0.00  0.00    +0.008 C 
ATOM     12  C   UNL     1      -1.456  -2.038   0.040  0.00  0.00    -0.009 C 
ATOM     13  C   UNL     1      -0.728  -2.545  -1.207  0.00  0.00    +0.003 C 
ATOM     14  C   UNL     1       0.699  -1.994  -1.223  0.00  0.00    +0.002 C 
ATOM     15  C   UNL     1       1.442  -2.464   0.029  0.00  0.00    +0.023 C 
ATOM     16  C   UNL     1       0.713  -1.957   1.275  0.00  0.00    +0.079 C 
ATOM     17  C   UNL     1      -0.714  -2.509   1.292  0.00  0.00    +0.009 C 
ATOM     18  C   UNL     1      -0.669  -4.038   1.313  0.00  0.00    +0.009 C 
ENDBRANCH   5  16
ENDBRANCH   1   7
BRANCH   3  19
ATOM     19  C   UNL     1       5.937  -0.752   4.940  0.00  0.00    +0.077 A 
ATOM     20  C   UNL     1       5.801   0.290   4.034  0.00  0.00    +0.055 A 
ATOM     21  C   UNL     1       6.709   1.332   4.039  0.00  0.00    +0.107 A 
ATOM     22  C   UNL     1       7.753   1.339   4.945  0.00  0.00    +0.032 A 
ATOM     23  C   UNL     1       7.895   0.304   5.851  0.00  0.00    +0.049 A 
ATOM     24  C   UNL     1       6.986  -0.742   5.856  0.00  0.00    +0.141 A 
BRANCH  21  25
ATOM     25  S   UNL     1       6.535   2.655   2.888  0.00  0.00    +0.060 S 
ATOM     26  O   UNL     1       7.824   3.233   2.736  0.00  0.00    -0.153 OA
ATOM     27  O   UNL     1       5.795   2.141   1.789  0.00  0.00    -0.153 OA
BRANCH  25  28
ATOM     28  N   UNL     1       5.582   3.804   3.604  0.00  0.00    -0.183 NA
ATOM     29  C   UNL     1       6.194   4.869   4.403  0.00  0.00    +0.131 C 
ATOM     30  C   UNL     1       4.127   3.757   3.438  0.00  0.00    +0.131 C 
ENDBRANCH  25  28
ENDBRANCH  21  25
BRANCH  24  31
ATOM     31  O   UNL     1       7.120  -1.757   6.750  0.00  0.00    -0.493 OA
ATOM     32  C   UNL     1       8.220  -1.680   7.659  0.00  0.00    +0.277 C 
ENDBRANCH  24  31
ENDBRANCH   3  19
TORSDOF 6
