REMARK  Name = ZINC36821168
REMARK  7 active torsions:
REMARK  status: ('A' for Active; 'I' for Inactive)
REMARK    1  A    between atoms: C_1  and  C_2
REMARK    2  A    between atoms: C_2  and  C_3
REMARK    3  A    between atoms: C_8  and  N_9
REMARK    4  A    between atoms: C_12  and  C_17
REMARK    5  A    between atoms: C_17  and  S_18
REMARK    6  A    between atoms: S_18  and  C_19
REMARK    7  A    between atoms: C_22  and  C_25
REMARK                            x       y       z     vdW  Elec       q    Type
REMARK                         _______ _______ _______ _____ _____    ______ ____
ROOT
ATOM      1  N   UNL     1       2.833  -0.268  -0.114  0.00  0.00    -0.283 N 
ATOM      2  C   UNL     1       4.198  -0.480  -0.092  0.00  0.00    +0.224 A 
ATOM      3  N   UNL     1       4.888  -0.259   1.025  0.00  0.00    -0.198 NA
ATOM      4  C   UNL     1       6.194  -0.461   1.047  0.00  0.00    +0.146 A 
ATOM      5  N   UNL     1       6.820  -0.882  -0.039  0.00  0.00    -0.199 NA
ATOM      6  C   UNL     1       6.136  -1.104  -1.159  0.00  0.00    +0.217 A 
ATOM      7  N   UNL     1       4.822  -0.908  -1.183  0.00  0.00    -0.181 NA
ATOM      8  N   UNL     1       6.790  -1.543  -2.292  0.00  0.00    -0.327 N 
ATOM      9  H   UNL     1       2.364  -0.042   0.705  0.00  0.00    +0.155 HD
ATOM     10  H   UNL     1       7.748  -1.690  -2.272  0.00  0.00    +0.145 HD
ATOM     11  H   UNL     1       6.291  -1.705  -3.108  0.00  0.00    +0.145 HD
ENDROOT
BRANCH   1  17
ATOM     12  C   UNL     1       0.796  -0.778  -1.307  0.00  0.00    -0.026 A 
ATOM     13  C   UNL     1       0.101  -0.882  -2.495  0.00  0.00    +0.005 A 
ATOM     14  C   UNL     1       0.729  -0.596  -3.693  0.00  0.00    +0.000 A 
ATOM     15  C   UNL     1       2.056  -0.205  -3.706  0.00  0.00    +0.002 A 
ATOM     16  C   UNL     1       2.757  -0.100  -2.521  0.00  0.00    +0.023 A 
ATOM     17  C   UNL     1       2.127  -0.381  -1.316  0.00  0.00    +0.037 A 
BRANCH  12  19
ATOM     18  C   UNL     1      -0.425   0.206   0.614  0.00  0.00    +0.009 C 
ATOM     19  C   UNL     1       0.111  -1.089  -0.002  0.00  0.00    +0.033 C 
ENDBRANCH  12  19
ENDBRANCH   1  17
BRANCH   4  20
ATOM     20  C   UNL     1       6.972  -0.210   2.313  0.00  0.00    +0.153 C 
BRANCH  20  21
ATOM     21  S   UNL     1       7.026  -1.731   3.300  0.00  0.00    -0.079 S 
BRANCH  21  22
ATOM     22  C   UNL     1       7.957  -1.280   4.727  0.00  0.00    +0.185 A 
ATOM     23  N   UNL     1       8.472  -0.095   4.970  0.00  0.00    -0.201 NA
ATOM     24  H   UNL     1       8.011  -3.022   5.867  0.00  0.00    +0.191 HD
ATOM     25  C   UNL     1       9.114  -0.116   6.148  0.00  0.00    +0.185 A 
ATOM     26  N   UNL     1       9.012  -1.318   6.667  0.00  0.00    -0.151 NA
ATOM     27  N   UNL     1       8.261  -2.090   5.765  0.00  0.00    -0.253 N 
BRANCH  25  28
ATOM     28  C   UNL     1       9.823   1.033   6.764  0.00  0.00    +0.056 A 
ATOM     29  C   UNL     1       9.855   2.265   6.115  0.00  0.00    +0.014 A 
ATOM     30  C   UNL     1      10.516   3.330   6.692  0.00  0.00    +0.001 A 
ATOM     31  C   UNL     1      11.146   3.177   7.915  0.00  0.00    +0.003 A 
ATOM     32  C   UNL     1      11.118   1.958   8.565  0.00  0.00    +0.039 A 
ATOM     33  C   UNL     1      10.455   0.884   7.999  0.00  0.00    +0.134 A 
ATOM     34  F   UNL     1      10.423  -0.306   8.638  0.00  0.00    -0.205 F 
ENDBRANCH  25  28
ENDBRANCH  21  22
ENDBRANCH  20  21
ENDBRANCH   4  20
TORSDOF 6
