REMARK  Name = ZINC18142279
REMARK  3 active torsions:
REMARK  status: ('A' for Active; 'I' for Inactive)
REMARK    1  A    between atoms: C_1  and  C_2
REMARK    2  A    between atoms: C_5  and  C_8
REMARK    3  A    between atoms: C_16  and  C_22
REMARK                            x       y       z     vdW  Elec       q    Type
REMARK                         _______ _______ _______ _____ _____    ______ ____
ROOT
ATOM      1  C   UNL     1       0.058  -4.251  -0.021  0.00  0.00    +0.250 C 
ATOM      2  O   UNL     1       0.061  -4.853  -1.077  0.00  0.00    -0.270 OA
ATOM      3  N   UNL     1       0.073  -4.931   1.142  0.00  0.00    -0.249 N 
ATOM      4  C   UNL     1       0.091  -6.329   1.134  0.00  0.00    +0.242 A 
ATOM      5  N   UNL     1       0.101  -7.101   0.038  0.00  0.00    -0.180 NA
ATOM      6  C   UNL     1       0.118  -8.357   0.390  0.00  0.00    +0.222 A 
ATOM      7  N   UNL     1       0.118  -8.414   1.745  0.00  0.00    -0.223 N 
ATOM      8  N   UNL     1       0.106  -7.098   2.201  0.00  0.00    -0.131 NA
ATOM      9  C   UNL     1       0.131  -9.670   2.493  0.00  0.00    +0.149 C 
ATOM     10  C   UNL     1      -0.568 -10.746   1.656  0.00  0.00    +0.128 C 
ATOM     11  C   UNL     1      -0.133 -10.684   0.219  0.00  0.00    +0.222 C 
ATOM     12  O   UNL     1      -0.021 -11.714  -0.410  0.00  0.00    -0.275 OA
ATOM     13  N   UNL     1       0.136  -9.507  -0.390  0.00  0.00    -0.255 N 
ATOM     14  H   UNL     1       0.071  -4.451   1.985  0.00  0.00    +0.158 HD
ATOM     15  H   UNL     1       0.334  -9.467  -1.339  0.00  0.00    +0.158 HD
ENDROOT
BRANCH   1  20
ATOM     16  C   UNL     1      -0.018   1.503   0.010  0.00  0.00    +0.044 C 
ATOM     17  C   UNL     1       0.002  -0.004   0.002  0.00  0.00    -0.050 A 
ATOM     18  C   UNL     1       0.006  -0.686  -1.202  0.00  0.00    +0.004 A 
ATOM     19  C   UNL     1       0.024  -2.066  -1.216  0.00  0.00    +0.013 A 
ATOM     20  C   UNL     1       0.039  -2.773  -0.013  0.00  0.00    +0.037 A 
ATOM     21  C   UNL     1       0.036  -2.079   1.198  0.00  0.00    +0.013 A 
ATOM     22  C   UNL     1       0.023  -0.699   1.198  0.00  0.00    +0.004 A 
ENDBRANCH   1  20
BRANCH   9  23
ATOM     23  C   UNL     1       1.554 -10.082   2.765  0.00  0.00    -0.023 A 
ATOM     24  C   UNL     1       2.422 -10.307   1.712  0.00  0.00    +0.006 A 
ATOM     25  C   UNL     1       3.728 -10.685   1.962  0.00  0.00    +0.000 A 
ATOM     26  C   UNL     1       4.167 -10.837   3.264  0.00  0.00    +0.000 A 
ATOM     27  C   UNL     1       3.299 -10.610   4.316  0.00  0.00    +0.000 A 
ATOM     28  C   UNL     1       1.994 -10.228   4.067  0.00  0.00    +0.006 A 
ENDBRANCH   9  23
TORSDOF 2
