REMARK  Name = ZINC33928151
REMARK  9 active torsions:
REMARK  status: ('A' for Active; 'I' for Inactive)
REMARK    1  A    between atoms: C_5  and  C_7
REMARK    2  A    between atoms: C_9  and  C_27
REMARK    3  A    between atoms: C_11  and  C_22
REMARK    4  A    between atoms: C_11  and  O_26
REMARK    5  A    between atoms: C_13  and  S_17
REMARK    6  A    between atoms: C_14  and  C_15
REMARK    7  A    between atoms: S_17  and  C_18
REMARK    8  A    between atoms: C_18  and  C_19
REMARK    9  A    between atoms: C_27  and  C_29
REMARK                            x       y       z     vdW  Elec       q    Type
REMARK                         _______ _______ _______ _____ _____    ______ ____
ROOT
ATOM      1  C   UNL     1       1.704  -1.650   0.976  0.00  0.00    +0.078 C 
ATOM      2  C   UNL     1       0.645  -2.709   1.293  0.00  0.00    +0.132 C 
ATOM      3  C   UNL     1       0.512  -3.648   0.087  0.00  0.00    +0.239 C 
ATOM      4  N   UNL     1       0.060  -2.849  -1.061  0.00  0.00    -0.303 N 
ATOM      5  C   UNL     1       0.652  -1.631  -1.299  0.00  0.00    +0.078 C 
ATOM      6  C   UNL     1       1.427  -1.028  -0.363  0.00  0.00    +0.065 C 
ATOM      7  H   UNL     1      -0.646  -3.175  -1.641  0.00  0.00    +0.150 HD
ENDROOT
BRANCH   1  12
ATOM      8  C   UNL     1       0.584   1.276   3.082  0.00  0.00    +0.000 A 
ATOM      9  C   UNL     1       1.623   1.380   3.987  0.00  0.00    +0.001 A 
ATOM     10  C   UNL     1       2.690   0.504   3.919  0.00  0.00    +0.020 A 
ATOM     11  C   UNL     1       2.717  -0.478   2.944  0.00  0.00    +0.045 A 
ATOM     12  C   UNL     1       1.676  -0.582   2.039  0.00  0.00    -0.020 A 
ATOM     13  C   UNL     1       0.610   0.295   2.108  0.00  0.00    +0.006 A 
ATOM     14 CL   UNL     1       4.056  -1.579   2.856  0.00  0.00    -0.083 Cl
ENDBRANCH   1  12
BRANCH   3  15
ATOM     15  C   UNL     1       1.869  -4.282  -0.227  0.00  0.00    +0.436 C 
ATOM     16  F   UNL     1       2.310  -5.013   0.882  0.00  0.00    -0.166 F 
ATOM     17  F   UNL     1       1.740  -5.137  -1.327  0.00  0.00    -0.166 F 
ATOM     18  F   UNL     1       2.796  -3.278  -0.523  0.00  0.00    -0.166 F 
ENDBRANCH   3  15
BRANCH   6  19
ATOM     19  C   UNL     1       2.006   0.246  -0.666  0.00  0.00    +0.098 C 
ATOM     20  N   UNL     1       2.464   1.258  -0.906  0.00  0.00    -0.191 NA
ENDBRANCH   6  19
BRANCH   3  21
ATOM     21  O   UNL     1      -0.446  -4.669   0.372  0.00  0.00    -0.364 OA
ATOM     22  H   UNL     1      -0.578  -5.298  -0.350  0.00  0.00    +0.212 HD
ENDBRANCH   3  21
BRANCH   2  23
ATOM     23  C   UNL     1      -0.676  -2.036   1.562  0.00  0.00    +0.178 C 
ATOM     24  O   UNL     1      -1.414  -1.755   0.639  0.00  0.00    -0.291 OA
BRANCH  23  25
ATOM     25  C   UNL     1      -1.057  -1.733   2.888  0.00  0.00    +0.055 A 
ATOM     26  C   UNL     1      -2.222  -1.127   3.349  0.00  0.00    +0.019 A 
ATOM     27  C   UNL     1      -2.309  -0.964   4.709  0.00  0.00    +0.008 A 
ATOM     28  C   UNL     1      -1.285  -1.390   5.492  0.00  0.00    +0.046 A 
ATOM     29  S   UNL     1      -0.175  -2.034   4.408  0.00  0.00    -0.094 S 
ENDBRANCH  23  25
ENDBRANCH   2  23
BRANCH   5  30
ATOM     30  S   UNL     1       0.396  -0.836  -2.850  0.00  0.00    -0.100 S 
BRANCH  30  31
ATOM     31  C   UNL     1      -0.681  -1.980  -3.757  0.00  0.00    +0.171 C 
BRANCH  31  32
ATOM     32  C   UNL     1      -0.983  -1.413  -5.120  0.00  0.00    +0.221 C 
ATOM     33  O   UNL     1      -0.516  -0.343  -5.448  0.00  0.00    -0.275 OA
ATOM     34  N   UNL     1      -1.770  -2.096  -5.975  0.00  0.00    -0.329 N 
ATOM     35  H   UNL     1      -2.143  -2.952  -5.713  0.00  0.00    +0.145 HD
ATOM     36  H   UNL     1      -1.964  -1.731  -6.853  0.00  0.00    +0.145 HD
ENDBRANCH  31  32
ENDBRANCH  30  31
ENDBRANCH   5  30
TORSDOF 9
