REMARK  Name = ZINC10048579
REMARK  11 active torsions:
REMARK  status: ('A' for Active; 'I' for Inactive)
REMARK    1  A    between atoms: C_1  and  C_2
REMARK    2  A    between atoms: C_3  and  C_37
REMARK    3  A    between atoms: N_9  and  C_10
REMARK    4  A    between atoms: N_17  and  C_36
REMARK    5  A    between atoms: N_20  and  C_23
REMARK    6  A    between atoms: C_23  and  C_24
REMARK    7  A    between atoms: C_24  and  C_26
REMARK    8  A    between atoms: C_24  and  C_27
REMARK    9  A    between atoms: C_27  and  N_28
REMARK   10  A    between atoms: N_28  and  C_29
REMARK   11  A    between atoms: C_34  and  O_35
REMARK                            x       y       z     vdW  Elec       q    Type
REMARK                         _______ _______ _______ _____ _____    ______ ____
ROOT
ATOM      1  C   UNL     1      -5.788  -0.258  -8.408  0.00  0.00    +0.066 C 
ATOM      2  C   UNL     1      -4.730   0.569  -7.723  0.00  0.00    +0.043 A 
ATOM      3  C   UNL     1      -4.037   0.213  -6.646  0.00  0.00    +0.044 A 
ATOM      4  N   UNL     1      -3.167   1.241  -6.327  0.00  0.00    -0.274 N 
ATOM      5  C   UNL     1      -2.182   1.660  -5.445  0.00  0.00    +0.157 A 
ATOM      6  C   UNL     1      -1.792   2.930  -5.868  0.00  0.00    +0.170 A 
ATOM      7  N   UNL     1      -2.515   3.232  -6.943  0.00  0.00    -0.193 NA
ATOM      8  C   UNL     1      -3.339   2.235  -7.229  0.00  0.00    +0.223 A 
ATOM      9  N   UNL     1      -4.312   1.831  -8.107  0.00  0.00    -0.282 N 
ATOM     10  N   UNL     1      -0.805   3.596  -5.157  0.00  0.00    -0.279 N 
ATOM     11  C   UNL     1      -0.243   3.016  -4.080  0.00  0.00    +0.333 A 
ATOM     12  O   UNL     1       0.621   3.613  -3.468  0.00  0.00    -0.246 OA
ATOM     13  N   UNL     1      -0.613   1.792  -3.665  0.00  0.00    -0.259 N 
ATOM     14  C   UNL     1      -1.564   1.093  -4.319  0.00  0.00    +0.283 A 
ATOM     15  O   UNL     1      -1.885  -0.018  -3.933  0.00  0.00    -0.265 OA
ATOM     16  C   UNL     1      -0.375   4.932  -5.578  0.00  0.00    +0.155 C 
ATOM     17  C   UNL     1      -4.176  -1.089  -5.899  0.00  0.00    +0.066 C 
ENDROOT
BRANCH   9  18
ATOM     18  C   UNL     1      -4.796   2.564  -9.199  0.00  0.00    +0.050 A 
ATOM     19  C   UNL     1      -4.587   2.104 -10.493  0.00  0.00    +0.029 A 
ATOM     20  C   UNL     1      -5.070   2.826 -11.567  0.00  0.00    +0.040 A 
ATOM     21  C   UNL     1      -5.752   4.012 -11.355  0.00  0.00    +0.124 A 
ATOM     22  C   UNL     1      -5.956   4.475 -10.066  0.00  0.00    +0.040 A 
ATOM     23  C   UNL     1      -5.480   3.754  -8.989  0.00  0.00    +0.029 A 
ATOM     24  F   UNL     1      -6.219   4.719 -12.408  0.00  0.00    -0.205 F 
ENDBRANCH   9  18
BRANCH  13  25
ATOM     25  C   UNL     1       0.031   1.205  -2.487  0.00  0.00    +0.134 C 
BRANCH  25  26
ATOM     26  C   UNL     1      -0.753   1.593  -1.232  0.00  0.00    +0.023 C 
ATOM     27  C   UNL     1      -2.147   0.964  -1.286  0.00  0.00    +0.011 C 
BRANCH  26  28
ATOM     28  C   UNL     1      -0.013   1.086   0.008  0.00  0.00    +0.106 C 
BRANCH  28  29
ATOM     29  N   UNL     1      -0.698   1.558   1.213  0.00  0.00    -0.341 N 
ATOM     30  H   UNL     1      -1.495   2.106   1.135  0.00  0.00    +0.146 HD
BRANCH  29  31
ATOM     31  C   UNL     1      -0.204   1.220   2.478  0.00  0.00    +0.069 A 
ATOM     32  C   UNL     1       0.933   0.432   2.592  0.00  0.00    +0.026 A 
ATOM     33  C   UNL     1       1.422   0.104   3.843  0.00  0.00    +0.002 A 
ATOM     34  C   UNL     1       0.776   0.549   4.981  0.00  0.00    +0.004 A 
ATOM     35  C   UNL     1      -0.360   1.330   4.875  0.00  0.00    +0.047 A 
ATOM     36  C   UNL     1      -0.854   1.668   3.626  0.00  0.00    +0.138 A 
BRANCH  36  37
ATOM     37  O   UNL     1      -1.972   2.435   3.519  0.00  0.00    -0.505 OA
ATOM     38  H   UNL     1      -2.796   1.929   3.490  0.00  0.00    +0.292 HD
ENDBRANCH  36  37
ENDBRANCH  29  31
ENDBRANCH  28  29
ENDBRANCH  26  28
ENDBRANCH  25  26
ENDBRANCH  13  25
TORSDOF 7
