REMARK  Name = ZINC39667131
REMARK  7 active torsions:
REMARK  status: ('A' for Active; 'I' for Inactive)
REMARK    1  A    between atoms: C_1  and  C_2
REMARK    2  A    between atoms: C_5  and  C_9
REMARK    3  A    between atoms: C_6  and  C_8
REMARK    4  A    between atoms: C_9  and  C_10
REMARK    5  A    between atoms: C_10  and  N_11
REMARK    6  A    between atoms: C_12  and  C_14
REMARK    7  A    between atoms: C_25  and  C_27
REMARK                            x       y       z     vdW  Elec       q    Type
REMARK                         _______ _______ _______ _____ _____    ______ ____
ROOT
ATOM      1  C   UNL     1      -2.485  -8.466   0.197  0.00  0.00    +0.100 C 
ATOM      2  C   UNL     1      -1.599  -8.998   1.346  0.00  0.00    +0.121 C 
ATOM      3  N   UNL     1      -2.545  -9.265   2.455  0.00  0.00    -0.297 N 
ATOM      4  C   UNL     1      -3.741  -9.837   1.791  0.00  0.00    +0.115 C 
ATOM      5  C   UNL     1      -3.889  -9.021   0.491  0.00  0.00    -0.004 C 
ATOM      6  C   UNL     1      -4.349  -9.924  -0.649  0.00  0.00    -0.010 C 
ATOM      7  C   UNL     1      -5.771 -10.416  -0.362  0.00  0.00    -0.082 C 
ATOM      8  N   UNL     1      -6.672  -9.266  -0.228  0.00  0.00    +0.379 N 
ATOM      9  C   UNL     1      -6.277  -8.453   0.929  0.00  0.00    -0.082 C 
ATOM     10  C   UNL     1      -4.877  -7.877   0.697  0.00  0.00    -0.010 C 
ATOM     11  C   UNL     1      -2.360  -9.040   3.771  0.00  0.00    +0.260 C 
ATOM     12  O   UNL     1      -3.236  -9.314   4.563  0.00  0.00    -0.271 OA
ATOM     13  H   UNL     1      -6.625  -8.703  -1.064  0.00  0.00    -0.086 HD
ATOM     14  H   UNL     1      -7.617  -9.594  -0.100  0.00  0.00    -0.086 HD
ENDROOT
BRANCH  11  15
ATOM     15  C   UNL     1      -1.063  -8.447   4.258  0.00  0.00    +0.296 C 
ATOM     16  C   UNL     1       0.086  -9.431   4.000  0.00  0.00    +0.283 C 
ATOM     17  O   UNL     1       1.297  -8.843   4.487  0.00  0.00    -0.484 OA
ATOM     18  C   UNL     1       1.249  -8.278   5.724  0.00  0.00    +0.162 A 
ATOM     19  C   UNL     1       2.432  -8.021   6.402  0.00  0.00    +0.049 A 
ATOM     20  C   UNL     1       2.399  -7.444   7.657  0.00  0.00    +0.004 A 
ATOM     21  C   UNL     1       1.188  -7.121   8.241  0.00  0.00    +0.004 A 
ATOM     22  C   UNL     1       0.006  -7.376   7.571  0.00  0.00    +0.049 A 
ATOM     23  C   UNL     1       0.032  -7.955   6.311  0.00  0.00    +0.163 A 
ATOM     24  O   UNL     1      -1.141  -8.207   5.668  0.00  0.00    -0.473 OA
ENDBRANCH  11  15
BRANCH   1  26
ATOM     25  N   UNL     1      -2.699  -6.281  -0.943  0.00  0.00    -0.315 N 
ATOM     26  C   UNL     1      -2.505  -6.959   0.206  0.00  0.00    +0.218 C 
ATOM     27  O   UNL     1      -2.345  -6.356   1.246  0.00  0.00    -0.275 OA
ATOM     28  H   UNL     1      -2.826  -6.763  -1.775  0.00  0.00    +0.149 HD
BRANCH  25  29
ATOM     29  C   UNL     1      -2.718  -4.816  -0.935  0.00  0.00    +0.109 C 
BRANCH  29  30
ATOM     30  C   UNL     1      -2.954  -4.301  -2.356  0.00  0.00    +0.054 C 
BRANCH  30  35
ATOM     31  C   UNL     1      -3.028   1.477  -2.321  0.00  0.00    +0.044 C 
ATOM     32  C   UNL     1      -3.008  -0.030  -2.330  0.00  0.00    -0.050 A 
ATOM     33  C   UNL     1      -4.194  -0.737  -2.249  0.00  0.00    +0.003 A 
ATOM     34  C   UNL     1      -4.176  -2.119  -2.258  0.00  0.00    +0.004 A 
ATOM     35  C   UNL     1      -2.973  -2.795  -2.348  0.00  0.00    -0.043 A 
ATOM     36  C   UNL     1      -1.788  -2.088  -2.430  0.00  0.00    -0.047 A 
ATOM     37  C   UNL     1      -1.806  -0.705  -2.426  0.00  0.00    +0.007 A 
ATOM     38  C   UNL     1      -0.477  -2.824  -2.528  0.00  0.00    +0.044 C 
ENDBRANCH  30  35
ENDBRANCH  29  30
ENDBRANCH  25  29
ENDBRANCH   1  26
TORSDOF 5
