REMARK  Name = ZINC08630017
REMARK  9 active torsions:
REMARK  status: ('A' for Active; 'I' for Inactive)
REMARK    1  A    between atoms: C_1  and  C_2
REMARK    2  A    between atoms: C_2  and  C_4
REMARK    3  A    between atoms: C_2  and  O_16
REMARK    4  A    between atoms: N_6  and  C_7
REMARK    5  A    between atoms: C_12  and  N_13
REMARK    6  A    between atoms: O_16  and  C_17
REMARK    7  A    between atoms: C_17  and  C_19
REMARK    8  A    between atoms: C_19  and  N_20
REMARK    9  A    between atoms: C_21  and  C_23
REMARK                            x       y       z     vdW  Elec       q    Type
REMARK                         _______ _______ _______ _____ _____    ______ ____
ROOT
ATOM      1  C   UNL     1      -0.012   1.337   0.022  0.00  0.00    +0.325 C 
ATOM      2  O   UNL     1       1.028   1.952   0.030  0.00  0.00    -0.249 OA
ENDROOT
BRANCH   1   3
ATOM      3  O   UNL     1       0.002  -0.005   0.004  0.00  0.00    -0.451 OA
BRANCH   3   5
ATOM      4  C   UNL     1       1.760  -0.896   1.435  0.00  0.00    +0.062 C 
ATOM      5  C   UNL     1       1.303  -0.650  -0.005  0.00  0.00    +0.259 C 
BRANCH   5   6
ATOM      6  C   UNL     1       1.206  -1.966  -0.733  0.00  0.00    +0.258 C 
ATOM      7  O   UNL     1       0.145  -2.325  -1.198  0.00  0.00    -0.271 OA
ATOM      8  N   UNL     1       2.299  -2.744  -0.867  0.00  0.00    -0.281 N 
ATOM      9  H   UNL     1       3.163  -2.423  -0.566  0.00  0.00    +0.155 HD
BRANCH   8  10
ATOM     10  C   UNL     1       2.186  -4.016  -1.439  0.00  0.00    +0.064 A 
ATOM     11  C   UNL     1       0.975  -4.696  -1.392  0.00  0.00    +0.025 A 
ATOM     12  C   UNL     1       0.866  -5.949  -1.962  0.00  0.00    +0.002 A 
ATOM     13  C   UNL     1       1.963  -6.532  -2.570  0.00  0.00    +0.002 A 
ATOM     14  C   UNL     1       3.170  -5.860  -2.614  0.00  0.00    +0.034 A 
ATOM     15  C   UNL     1       3.285  -4.604  -2.050  0.00  0.00    +0.147 A 
BRANCH  15  16
ATOM     16  N   UNL     1       4.578  -3.886  -2.097  0.00  0.00    +0.058 N 
ATOM     17  O   UNL     1       5.517  -4.362  -2.711  0.00  0.00    -0.126 OA
ATOM     18  O   UNL     1       4.704  -2.820  -1.522  0.00  0.00    -0.126 OA
ENDBRANCH  15  16
ENDBRANCH   8  10
ENDBRANCH   5   6
ENDBRANCH   3   5
ENDBRANCH   1   3
BRANCH   1  19
ATOM     19  C   UNL     1      -1.325   2.076   0.026  0.00  0.00    +0.225 C 
BRANCH  19  20
ATOM     20  N   UNL     1      -1.073   3.519   0.047  0.00  0.00    -0.300 N 
ATOM     21  C   UNL     1      -2.107   4.384   0.054  0.00  0.00    +0.253 C 
ATOM     22  O   UNL     1      -3.250   3.966   0.043  0.00  0.00    -0.270 OA
ATOM     23  H   UNL     1      -0.162   3.852   0.056  0.00  0.00    +0.150 HD
BRANCH  21  24
ATOM     24  C   UNL     1      -1.854   5.830   0.074  0.00  0.00    +0.093 A 
ATOM     25  C   UNL     1      -2.757   6.849   0.079  0.00  0.00    +0.068 A 
ATOM     26  C   UNL     1      -2.308   8.183   0.105  0.00  0.00    +0.008 A 
ATOM     27  C   UNL     1      -3.085   9.370   0.117  0.00  0.00    +0.010 A 
ATOM     28  C   UNL     1      -2.489  10.590   0.136  0.00  0.00    +0.001 A 
ATOM     29  C   UNL     1      -1.105  10.725   0.144  0.00  0.00    +0.001 A 
ATOM     30  C   UNL     1      -0.312   9.595   0.132  0.00  0.00    +0.016 A 
ATOM     31  C   UNL     1      -0.903   8.350   0.113  0.00  0.00    +0.021 A 
ATOM     32  S   UNL     1      -0.288   6.685   0.093  0.00  0.00    -0.082 S 
ATOM     33 CL   UNL     1      -4.458   6.503   0.057  0.00  0.00    -0.082 Cl
ENDBRANCH  21  24
ENDBRANCH  19  20
ENDBRANCH   1  19
TORSDOF 8
