REMARK  Name = ZINC35007512
REMARK  7 active torsions:
REMARK  status: ('A' for Active; 'I' for Inactive)
REMARK    1  A    between atoms: C_1  and  C_2
REMARK    2  A    between atoms: C_2  and  C_3
REMARK    3  A    between atoms: C_3  and  C_4
REMARK    4  A    between atoms: N_6  and  C_7
REMARK    5  A    between atoms: N_6  and  C_13
REMARK    6  A    between atoms: C_13  and  C_15
REMARK    7  A    between atoms: C_13  and  C_16
REMARK                            x       y       z     vdW  Elec       q    Type
REMARK                         _______ _______ _______ _____ _____    ______ ____
ROOT
ATOM      1  C   UNL     1       1.238  -4.109  -2.365  0.00  0.00    +0.139 C 
ATOM      2  C   UNL     1       0.452  -4.416  -3.641  0.00  0.00    +0.036 C 
ENDROOT
BRANCH   1   3
ATOM      3  C   UNL     1       2.591  -4.770  -2.437  0.00  0.00    +0.131 A 
ATOM      4  N   UNL     1       2.643  -6.107  -2.671  0.00  0.00    -0.309 N 
ATOM      5  H   UNL     1       1.820  -6.607  -2.786  0.00  0.00    +0.170 HD
ATOM      6  C   UNL     1       3.833  -6.747  -2.745  0.00  0.00    +0.259 A 
ATOM      7  O   UNL     1       3.895  -7.945  -2.955  0.00  0.00    -0.267 OA
ATOM      8  C   UNL     1       5.049  -5.940  -2.563  0.00  0.00    +0.065 A 
ATOM      9  C   UNL     1       6.322  -6.503  -2.620  0.00  0.00    +0.015 A 
ATOM     10  C   UNL     1       7.427  -5.700  -2.442  0.00  0.00    +0.001 A 
ATOM     11  C   UNL     1       7.281  -4.339  -2.207  0.00  0.00    +0.002 A 
ATOM     12  C   UNL     1       6.032  -3.764  -2.146  0.00  0.00    +0.028 A 
ATOM     13  C   UNL     1       4.896  -4.557  -2.324  0.00  0.00    +0.078 A 
ATOM     14  N   UNL     1       3.647  -4.031  -2.278  0.00  0.00    -0.232 NA
ENDBRANCH   1   3
BRANCH   1  17
ATOM     15  C   UNL     1       0.916  -2.019  -1.155  0.00  0.00    +0.216 C 
ATOM     16  O   UNL     1       0.974  -0.809  -1.090  0.00  0.00    -0.276 OA
ATOM     17  N   UNL     1       1.409  -2.660  -2.233  0.00  0.00    -0.289 N 
BRANCH  17  18
ATOM     18  C   UNL     1       2.115  -1.908  -3.273  0.00  0.00    +0.077 C 
ATOM     19  C   UNL     1       3.259  -1.113  -2.640  0.00  0.00    +0.022 C 
ATOM     20  C   UNL     1       3.997  -0.327  -3.726  0.00  0.00    +0.002 C 
ATOM     21  C   UNL     1       3.023   0.635  -4.410  0.00  0.00    +0.000 C 
ATOM     22  C   UNL     1       1.880  -0.160  -5.043  0.00  0.00    +0.002 C 
ATOM     23  C   UNL     1       1.142  -0.946  -3.957  0.00  0.00    +0.022 C 
ENDBRANCH  17  18
BRANCH  15  24
ATOM     24  C   UNL     1       0.294  -2.805  -0.030  0.00  0.00    +0.096 C 
BRANCH  24  26
ATOM     25  C   UNL     1      -0.694  -2.656   2.260  0.00  0.00    +0.004 C 
ATOM     26  C   UNL     1      -0.062  -1.858   1.118  0.00  0.00    +0.006 C 
ENDBRANCH  24  26
ENDBRANCH  15  24
ENDBRANCH   1  17
TORSDOF 5
