REMARK  Name = ZINC49861564
REMARK  7 active torsions:
REMARK  status: ('A' for Active; 'I' for Inactive)
REMARK    1  A    between atoms: C_1  and  C_2
REMARK    2  A    between atoms: C_5  and  C_9
REMARK    3  A    between atoms: C_7  and  C_8
REMARK    4  A    between atoms: C_10  and  C_20
REMARK    5  A    between atoms: C_12  and  C_17
REMARK    6  A    between atoms: C_13  and  N_15
REMARK    7  A    between atoms: N_15  and  C_16
REMARK                            x       y       z     vdW  Elec       q    Type
REMARK                         _______ _______ _______ _____ _____    ______ ____
ROOT
ATOM      1  C   UNL     1       0.181  -4.266   0.067  0.00  0.00    +0.051 A 
ATOM      2  C   UNL     1      -0.720  -4.819  -0.844  0.00  0.00    -0.026 A 
ATOM      3  C   UNL     1      -0.828  -6.190  -0.943  0.00  0.00    +0.024 A 
ATOM      4  C   UNL     1      -0.020  -6.986  -0.116  0.00  0.00    +0.101 A 
ATOM      5  C   UNL     1       0.866  -6.358   0.779  0.00  0.00    +0.111 A 
ATOM      6  N   UNL     1       0.939  -5.038   0.835  0.00  0.00    -0.342 N 
ATOM      7  C   UNL     1      -1.568  -3.925  -1.712  0.00  0.00    +0.046 C 
ATOM      8  H   UNL     1       1.559  -4.625   1.456  0.00  0.00    +0.167 HD
ENDROOT
BRANCH   1  13
ATOM      9  C   UNL     1       0.635   1.459   0.482  0.00  0.00    +0.044 C 
ATOM     10  C   UNL     1       0.516  -0.039   0.374  0.00  0.00    -0.047 A 
ATOM     11  C   UNL     1       0.470  -0.638  -0.873  0.00  0.00    +0.004 A 
ATOM     12  C   UNL     1       0.362  -2.009  -0.979  0.00  0.00    +0.010 A 
ATOM     13  C   UNL     1       0.298  -2.792   0.174  0.00  0.00    -0.001 A 
ATOM     14  C   UNL     1       0.346  -2.183   1.427  0.00  0.00    +0.013 A 
ATOM     15  C   UNL     1       0.460  -0.810   1.520  0.00  0.00    -0.047 A 
ATOM     16  C   UNL     1       0.517  -0.151   2.874  0.00  0.00    +0.044 C 
ENDBRANCH   1  13
BRANCH   5  17
ATOM     17  N   UNL     1       1.669  -7.124   1.601  0.00  0.00    -0.333 N 
ATOM     18  C   UNL     1       2.502  -6.480   2.620  0.00  0.00    +0.127 C 
ATOM     19  H   UNL     1       1.682  -8.089   1.503  0.00  0.00    +0.147 HD
ENDBRANCH   5  17
BRANCH   4  20
ATOM     20  C   UNL     1      -0.098  -8.451  -0.184  0.00  0.00    +0.390 C 
ATOM     21  O   UNL     1      -0.946  -8.987  -0.884  0.00  0.00    -0.240 OA
ATOM     22  O   UNL     1       0.685  -9.136   0.461  0.00  0.00    -0.240 OA
ENDBRANCH   4  20
TORSDOF 3
