REMARK  Name = ZINC02242815
REMARK  10 active torsions:
REMARK  status: ('A' for Active; 'I' for Inactive)
REMARK    1  A    between atoms: C_1  and  C_2
REMARK    2  A    between atoms: C_2  and  N_3
REMARK    3  A    between atoms: N_3  and  C_4
REMARK    4  A    between atoms: N_3  and  C_6
REMARK    5  A    between atoms: C_4  and  C_5
REMARK    6  A    between atoms: C_6  and  C_7
REMARK    7  A    between atoms: C_8  and  C_18
REMARK    8  A    between atoms: N_20  and  N_21
REMARK    9  A    between atoms: C_22  and  C_23
REMARK   10  A    between atoms: C_26  and  C_29
REMARK                            x       y       z     vdW  Elec       q    Type
REMARK                         _______ _______ _______ _____ _____    ______ ____
ROOT
ATOM      1  C   UNL     1      -1.800  -0.608   0.536  0.00  0.00    +0.079 A 
ATOM      2  C   UNL     1      -2.834  -0.569  -0.363  0.00  0.00    +0.154 A 
ATOM      3  N   UNL     1      -3.980  -0.534   0.393  0.00  0.00    -0.183 N 
ATOM      4  N   UNL     1      -3.635  -0.551   1.633  0.00  0.00    -0.058 NA
ATOM      5  N   UNL     1      -2.357  -0.601   1.748  0.00  0.00    -0.135 NA
ATOM      6  C   UNL     1      -5.288  -0.488  -0.097  0.00  0.00    +0.241 A 
ATOM      7  C   UNL     1      -6.503  -0.346   0.712  0.00  0.00    +0.206 A 
ATOM      8  N   UNL     1      -7.532  -0.342  -0.091  0.00  0.00    -0.032 NA
ATOM      9  O   UNL     1      -7.049  -0.475  -1.416  0.00  0.00    -0.239 OA
ATOM     10  N   UNL     1      -5.636  -0.557  -1.351  0.00  0.00    -0.027 NA
ATOM     11  N   UNL     1      -6.551  -0.237   2.097  0.00  0.00    -0.337 N 
ATOM     12  H   UNL     1      -7.519  -0.134   2.607  0.00  0.00    +0.144 HD
ATOM     13  H   UNL     1      -5.619  -0.252   2.682  0.00  0.00    +0.144 HD
ENDROOT
BRANCH   2  14
ATOM     14  C   UNL     1      -2.736  -0.566  -1.831  0.00  0.00    +0.284 C 
ATOM     15  O   UNL     1      -2.504  -1.600  -2.428  0.00  0.00    -0.267 OA
ATOM     16  N   UNL     1      -2.904   0.584  -2.515  0.00  0.00    -0.202 N 
ATOM     17  H   UNL     1      -3.183   1.505  -1.982  0.00  0.00    +0.178 HD
BRANCH  16  18
ATOM     18  N   UNL     1      -2.723   0.605  -3.904  0.00  0.00    -0.187 NA
ATOM     19  C   UNL     1      -2.884   1.712  -4.562  0.00  0.00    +0.138 C 
BRANCH  19  20
ATOM     20  C   UNL     1      -2.693   1.734  -6.024  0.00  0.00    -0.005 A 
ATOM     21  C   UNL     1      -2.333   0.568  -6.703  0.00  0.00    +0.010 A 
ATOM     22  C   UNL     1      -2.160   0.595  -8.071  0.00  0.00    +0.013 A 
ATOM     23  C   UNL     1      -2.334   1.777  -8.770  0.00  0.00    +0.055 A 
ATOM     24  C   UNL     1      -2.686   2.937  -8.104  0.00  0.00    +0.013 A 
ATOM     25  C   UNL     1      -2.866   2.923  -6.737  0.00  0.00    +0.010 A 
BRANCH  23  26
ATOM     26  C   UNL     1      -2.138   1.800 -10.264  0.00  0.00    +0.417 C 
ATOM     27  F   UNL     1      -0.802   2.095 -10.555  0.00  0.00    -0.166 F 
ATOM     28  F   UNL     1      -2.466   0.548 -10.797  0.00  0.00    -0.166 F 
ATOM     29  F   UNL     1      -2.965   2.777 -10.828  0.00  0.00    -0.166 F 
ENDBRANCH  23  26
ENDBRANCH  19  20
ENDBRANCH  16  18
ENDBRANCH   2  14
BRANCH   1  30
ATOM     30  C   UNL     1      -0.328  -0.656   0.219  0.00  0.00    -0.018 C 
BRANCH  30  31
ATOM     31  N   UNL     1       0.197   0.713   0.122  0.00  0.00    +0.383 N 
ATOM     32  H   UNL     1      -0.096   1.252   1.035  0.00  0.00    -0.081 HD
BRANCH  31  34
ATOM     33  C   UNL     1       2.243   0.421   1.436  0.00  0.00    -0.017 C 
ATOM     34  C   UNL     1       1.664   0.710   0.050  0.00  0.00    -0.082 C 
ENDBRANCH  31  34
BRANCH  31  35
ATOM     35  C   UNL     1      -0.386   1.420  -1.026  0.00  0.00    -0.082 C 
ATOM     36  C   UNL     1      -0.076   2.914  -0.916  0.00  0.00    -0.017 C 
ENDBRANCH  31  35
ENDBRANCH  30  31
ENDBRANCH   1  30
TORSDOF 8
