REMARK  Name = ZINC39993110
REMARK  6 active torsions:
REMARK  status: ('A' for Active; 'I' for Inactive)
REMARK    1  A    between atoms: C_8  and  O_26
REMARK    2  A    between atoms: C_9  and  C_12
REMARK    3  A    between atoms: C_13  and  C_14
REMARK    4  A    between atoms: C_13  and  C_16
REMARK    5  A    between atoms: N_18  and  C_19
REMARK    6  A    between atoms: O_26  and  C_27
REMARK                            x       y       z     vdW  Elec       q    Type
REMARK                         _______ _______ _______ _____ _____    ______ ____
ROOT
ATOM      1  C   UNL     1      -0.315   0.954  -0.870  0.00  0.00    +0.005 A 
ATOM      2  C   UNL     1       0.825   1.711  -0.567  0.00  0.00    +0.018 A 
ATOM      3  C   UNL     1       2.022   1.101  -0.414  0.00  0.00    +0.096 A 
ATOM      4  N   UNL     1       2.140  -0.250  -0.552  0.00  0.00    -0.268 N 
ATOM      5  C   UNL     1       1.047  -1.014  -0.846  0.00  0.00    +0.144 A 
ATOM      6  C   UNL     1      -0.206  -0.399  -1.009  0.00  0.00    +0.047 A 
ATOM      7  N   UNL     1       1.141  -2.339  -0.984  0.00  0.00    -0.194 NA
ATOM      8  C   UNL     1       2.293  -2.972  -0.843  0.00  0.00    +0.235 A 
ATOM      9  C   UNL     1       3.463  -2.234  -0.538  0.00  0.00    +0.103 A 
ATOM     10  C   UNL     1       3.351  -0.826  -0.393  0.00  0.00    +0.269 A 
ATOM     11  O   UNL     1       4.330  -0.150  -0.130  0.00  0.00    -0.266 OA
ENDROOT
BRANCH   9  12
ATOM     12  C   UNL     1       4.703  -2.880  -0.382  0.00  0.00    +0.042 C 
ATOM     13  C   UNL     1       4.841  -3.901   0.547  0.00  0.00    +0.114 C 
BRANCH  13  14
ATOM     14  C   UNL     1       6.096  -4.656   0.626  0.00  0.00    +0.259 C 
ATOM     15  O   UNL     1       7.017  -4.386  -0.123  0.00  0.00    -0.269 OA
ATOM     16  N   UNL     1       6.230  -5.648   1.528  0.00  0.00    -0.281 N 
ATOM     17  H   UNL     1       5.522  -5.820   2.169  0.00  0.00    +0.155 HD
BRANCH  16  18
ATOM     18  C   UNL     1       7.390  -6.431   1.541  0.00  0.00    +0.034 A 
ATOM     19  C   UNL     1       7.313  -7.784   1.842  0.00  0.00    +0.026 A 
ATOM     20  C   UNL     1       8.459  -8.555   1.854  0.00  0.00    +0.040 A 
ATOM     21  C   UNL     1       9.685  -7.979   1.565  0.00  0.00    +0.124 A 
ATOM     22  C   UNL     1       9.764  -6.629   1.264  0.00  0.00    +0.040 A 
ATOM     23  C   UNL     1       8.620  -5.856   1.246  0.00  0.00    +0.026 A 
ATOM     24  F   UNL     1      10.805  -8.734   1.577  0.00  0.00    -0.205 F 
ENDBRANCH  16  18
ENDBRANCH  13  14
BRANCH  13  25
ATOM     25  C   UNL     1       3.758  -4.219   1.429  0.00  0.00    +0.104 C 
ATOM     26  N   UNL     1       2.899  -4.471   2.128  0.00  0.00    -0.191 NA
ENDBRANCH  13  25
ENDBRANCH   9  12
BRANCH   8  27
ATOM     27  O   UNL     1       2.354  -4.314  -0.989  0.00  0.00    -0.436 OA
BRANCH  27  28
ATOM     28  C   UNL     1       1.210  -4.973  -1.312  0.00  0.00    +0.149 A 
ATOM     29  C   UNL     1       0.467  -5.602  -0.324  0.00  0.00    +0.049 A 
ATOM     30  C   UNL     1      -0.695  -6.271  -0.654  0.00  0.00    +0.023 A 
ATOM     31  C   UNL     1      -1.119  -6.316  -1.971  0.00  0.00    +0.043 A 
ATOM     32  C   UNL     1      -0.380  -5.691  -2.959  0.00  0.00    +0.043 A 
ATOM     33  C   UNL     1       0.780  -5.014  -2.632  0.00  0.00    +0.085 A 
ATOM     34 CL   UNL     1       1.704  -4.223  -3.871  0.00  0.00    -0.080 Cl
ATOM     35 CL   UNL     1      -2.580  -7.159  -2.384  0.00  0.00    -0.083 Cl
ENDBRANCH  27  28
ENDBRANCH   8  27
TORSDOF 6
