REMARK  Name = ZINC36749965
REMARK  4 active torsions:
REMARK  status: ('A' for Active; 'I' for Inactive)
REMARK    1  A    between atoms: C_1  and  C_2
REMARK    2  A    between atoms: C_2  and  C_4
REMARK    3  A    between atoms: C_2  and  O_12
REMARK    4  A    between atoms: O_12  and  C_13
REMARK                            x       y       z     vdW  Elec       q    Type
REMARK                         _______ _______ _______ _____ _____    ______ ____
ROOT
ATOM      1  C   UNL     1       0.014   1.505   0.142  0.00  0.00    +0.062 C 
ATOM      2  C   UNL     1       0.023  -0.019   0.011  0.00  0.00    +0.256 C 
ENDROOT
BRANCH   2   3
ATOM      3  C   UNL     1      -1.385  -0.542   0.136  0.00  0.00    +0.256 C 
ATOM      4  O   UNL     1      -1.742  -1.083   1.161  0.00  0.00    -0.272 OA
ATOM      5  N   UNL     1      -2.247  -0.409  -0.891  0.00  0.00    -0.296 N 
ATOM      6  C   UNL     1      -1.868   0.332  -2.104  0.00  0.00    +0.123 C 
ATOM      7  C   UNL     1      -2.961   1.363  -2.406  0.00  0.00    +0.100 C 
ATOM      8  N   UNL     1      -4.263   0.686  -2.473  0.00  0.00    -0.313 NA
ATOM      9  C   UNL     1      -4.617   0.083  -1.181  0.00  0.00    +0.100 C 
ATOM     10  C   UNL     1      -3.590  -1.005  -0.831  0.00  0.00    +0.123 C 
ATOM     11  H   UNL     1      -4.984   1.319  -2.786  0.00  0.00    +0.122 HD
ENDBRANCH   2   3
BRANCH   2  12
ATOM     12  O   UNL     1       0.834  -0.582   1.044  0.00  0.00    -0.480 OA
BRANCH  12  13
ATOM     13  C   UNL     1       2.170  -0.659   0.806  0.00  0.00    +0.125 A 
ATOM     14  C   UNL     1       3.001  -1.300   1.714  0.00  0.00    +0.048 A 
ATOM     15  C   UNL     1       4.359  -1.377   1.473  0.00  0.00    +0.045 A 
ATOM     16  C   UNL     1       4.893  -0.817   0.326  0.00  0.00    +0.159 A 
ATOM     17  C   UNL     1       4.065  -0.176  -0.583  0.00  0.00    +0.162 A 
ATOM     18  C   UNL     1       2.703  -0.102  -0.346  0.00  0.00    +0.087 A 
ATOM     19  F   UNL     1       4.586   0.372  -1.702  0.00  0.00    -0.202 F 
ATOM     20  F   UNL     1       6.221  -0.893   0.092  0.00  0.00    -0.202 F 
ENDBRANCH  12  13
ENDBRANCH   2  12
TORSDOF 3
