REMARK  Name = ZINC04852694
REMARK  8 active torsions:
REMARK  status: ('A' for Active; 'I' for Inactive)
REMARK    1  A    between atoms: C_1  and  C_2
REMARK    2  A    between atoms: C_5  and  N_8
REMARK    3  A    between atoms: C_9  and  C_11
REMARK    4  A    between atoms: N_13  and  N_14
REMARK    5  A    between atoms: C_15  and  C_17
REMARK    6  A    between atoms: C_17  and  C_19
REMARK    7  A    between atoms: C_17  and  O_20
REMARK    8  A    between atoms: O_20  and  C_21
REMARK                            x       y       z     vdW  Elec       q    Type
REMARK                         _______ _______ _______ _____ _____    ______ ____
ROOT
ATOM      1  C   UNL     1       2.817  -3.998   0.197  0.00  0.00    +0.315 C 
ATOM      2  O   UNL     1       1.760  -4.555   0.410  0.00  0.00    -0.264 OA
ATOM      3  N   UNL     1       3.914  -4.723  -0.095  0.00  0.00    -0.226 N 
ATOM      4  H   UNL     1       4.759  -4.278  -0.265  0.00  0.00    +0.173 HD
ENDROOT
BRANCH   1   6
ATOM      5  N   UNL     1       1.803  -1.782   0.551  0.00  0.00    -0.278 N 
ATOM      6  C   UNL     1       2.901  -2.508   0.259  0.00  0.00    +0.305 C 
ATOM      7  O   UNL     1       3.958  -1.950   0.047  0.00  0.00    -0.265 OA
ATOM      8  H   UNL     1       0.977  -2.229   0.795  0.00  0.00    +0.155 HD
BRANCH   5  13
ATOM      9  C   UNL     1       2.010   3.881   0.352  0.00  0.00    +0.044 C 
ATOM     10  C   UNL     1       1.955   2.377   0.405  0.00  0.00    -0.050 A 
ATOM     11  C   UNL     1       2.717   1.627  -0.473  0.00  0.00    +0.005 A 
ATOM     12  C   UNL     1       2.669   0.247  -0.427  0.00  0.00    +0.023 A 
ATOM     13  C   UNL     1       1.854  -0.387   0.502  0.00  0.00    +0.034 A 
ATOM     14  C   UNL     1       1.090   0.369   1.382  0.00  0.00    +0.023 A 
ATOM     15  C   UNL     1       1.143   1.748   1.331  0.00  0.00    +0.005 A 
ENDBRANCH   5  13
ENDBRANCH   1   6
BRANCH   3  16
ATOM     16  N   UNL     1       3.835  -6.121  -0.153  0.00  0.00    -0.231 N 
ATOM     17  C   UNL     1       4.933  -6.846  -0.445  0.00  0.00    +0.270 C 
ATOM     18  O   UNL     1       5.989  -6.289  -0.658  0.00  0.00    -0.270 OA
ATOM     19  H   UNL     1       2.990  -6.566   0.017  0.00  0.00    +0.173 HD
BRANCH  17  20
ATOM     20  C   UNL     1       4.848  -8.349  -0.508  0.00  0.00    +0.257 C 
ATOM     21  C   UNL     1       3.933  -8.761  -1.664  0.00  0.00    +0.062 C 
BRANCH  20  22
ATOM     22  O   UNL     1       6.153  -8.892  -0.717  0.00  0.00    -0.478 OA
BRANCH  22  23
ATOM     23  C   UNL     1       6.365 -10.168  -0.300  0.00  0.00    +0.140 A 
ATOM     24  C   UNL     1       5.310 -10.922   0.192  0.00  0.00    +0.048 A 
ATOM     25  C   UNL     1       5.527 -12.221   0.612  0.00  0.00    +0.023 A 
ATOM     26  C   UNL     1       6.797 -12.766   0.551  0.00  0.00    +0.043 A 
ATOM     27  C   UNL     1       7.852 -12.015   0.065  0.00  0.00    +0.043 A 
ATOM     28  C   UNL     1       7.639 -10.717  -0.360  0.00  0.00    +0.084 A 
ATOM     29 CL   UNL     1       8.963  -9.773  -0.969  0.00  0.00    -0.080 Cl
ATOM     30 CL   UNL     1       7.067 -14.396   1.085  0.00  0.00    -0.083 Cl
ENDBRANCH  22  23
ENDBRANCH  20  22
ENDBRANCH  17  20
ENDBRANCH   3  16
TORSDOF 6
