REMARK  Name = ZINC39330084
REMARK  4 active torsions:
REMARK  status: ('A' for Active; 'I' for Inactive)
REMARK    1  A    between atoms: C_1  and  C_2
REMARK    2  A    between atoms: C_6  and  S_8
REMARK    3  A    between atoms: S_8  and  C_9
REMARK    4  A    between atoms: C_11  and  C_21
REMARK                            x       y       z     vdW  Elec       q    Type
REMARK                         _______ _______ _______ _____ _____    ______ ____
ROOT
ATOM      1  C   UNL     1      -1.043   3.147  -6.077  0.00  0.00    +0.171 C 
ATOM      2  C   UNL     1      -0.305   3.634  -7.309  0.00  0.00    -0.009 C 
ATOM      3  C   UNL     1      -0.619   3.014  -8.522  0.00  0.00    +0.001 A 
ATOM      4  C   UNL     1       0.021   3.404  -9.718  0.00  0.00    +0.010 A 
ATOM      5  C   UNL     1      -0.303   2.784 -10.884  0.00  0.00    +0.001 A 
ATOM      6  C   UNL     1      -1.254   1.768 -10.925  0.00  0.00    +0.002 A 
ATOM      7  C   UNL     1      -1.905   1.347  -9.805  0.00  0.00    +0.024 A 
ATOM      8  C   UNL     1      -1.621   1.944  -8.563  0.00  0.00    +0.041 A 
ATOM      9  N   UNL     1      -2.261   1.530  -7.464  0.00  0.00    -0.284 N 
ATOM     10  C   UNL     1      -2.051   2.036  -6.265  0.00  0.00    +0.235 C 
ATOM     11  O   UNL     1      -2.670   1.608  -5.309  0.00  0.00    -0.274 OA
ATOM     12  H   UNL     1      -2.914   0.818  -7.554  0.00  0.00    +0.155 HD
ENDROOT
BRANCH   2  13
ATOM     13  C   UNL     1       0.658   4.671  -7.235  0.00  0.00    -0.020 A 
ATOM     14  C   UNL     1       2.003   4.410  -7.542  0.00  0.00    +0.008 A 
ATOM     15  C   UNL     1       2.931   5.424  -7.467  0.00  0.00    +0.001 A 
ATOM     16  C   UNL     1       2.542   6.699  -7.088  0.00  0.00    +0.000 A 
ATOM     17  C   UNL     1       1.218   6.967  -6.782  0.00  0.00    +0.001 A 
ATOM     18  C   UNL     1       0.273   5.968  -6.858  0.00  0.00    +0.008 A 
ENDBRANCH   2  13
BRANCH   1  19
ATOM     19  S   UNL     1       0.193   2.580  -4.876  0.00  0.00    -0.068 S 
BRANCH  19  25
ATOM     20  C   UNL     1      -0.066   1.134   0.026  0.00  0.00    +0.066 C 
ATOM     21  C   UNL     1      -0.786   1.625  -1.203  0.00  0.00    +0.046 A 
ATOM     22  C   UNL     1      -2.151   1.841  -1.174  0.00  0.00    +0.095 A 
ATOM     23  C   UNL     1      -2.778   2.296  -2.333  0.00  0.00    +0.274 A 
ATOM     24  N   UNL     1      -2.048   2.506  -3.421  0.00  0.00    -0.183 NA
ATOM     25  C   UNL     1      -0.740   2.288  -3.410  0.00  0.00    +0.193 A 
ATOM     26  N   UNL     1      -0.117   1.861  -2.321  0.00  0.00    -0.227 NA
ATOM     27  O   UNL     1      -4.114   2.519  -2.349  0.00  0.00    -0.266 OA
ENDBRANCH  19  25
ENDBRANCH   1  19
TORSDOF 3
