REMARK  Name = ZINC39320617
REMARK  10 active torsions:
REMARK  status: ('A' for Active; 'I' for Inactive)
REMARK    1  A    between atoms: C_1  and  C_2
REMARK    2  A    between atoms: C_3  and  C_14
REMARK    3  A    between atoms: C_5  and  C_7
REMARK    4  A    between atoms: C_10  and  N_13
REMARK    5  A    between atoms: C_14  and  N_15
REMARK    6  A    between atoms: C_16  and  O_18
REMARK    7  A    between atoms: O_18  and  C_19
REMARK    8  A    between atoms: C_19  and  C_20
REMARK    9  A    between atoms: C_19  and  C_21
REMARK   10  A    between atoms: C_19  and  C_22
REMARK                            x       y       z     vdW  Elec       q    Type
REMARK                         _______ _______ _______ _____ _____    ______ ____
ROOT
ATOM      1  C   UNL     1      -0.018   1.503   0.010  0.00  0.00    +0.088 C 
ATOM      2  C   UNL     1       0.002  -0.004   0.002  0.00  0.00    +0.127 A 
ATOM      3  C   UNL     1      -1.070  -0.816   0.003  0.00  0.00    +0.100 A 
ATOM      4  N   UNL     1      -0.627  -2.083  -0.007  0.00  0.00    -0.212 NA
ATOM      5  C   UNL     1       0.686  -2.068  -0.013  0.00  0.00    +0.228 A 
ATOM      6  O   UNL     1       1.099  -0.788  -0.013  0.00  0.00    -0.440 OA
ENDROOT
BRANCH   5   7
ATOM      7  C   UNL     1       1.562  -3.257  -0.024  0.00  0.00    +0.037 A 
ATOM      8  C   UNL     1       1.004  -4.537  -0.034  0.00  0.00    +0.015 A 
ATOM      9  C   UNL     1       1.824  -5.644  -0.043  0.00  0.00    +0.023 A 
ATOM     10  C   UNL     1       3.206  -5.488  -0.043  0.00  0.00    +0.025 A 
ATOM     11  C   UNL     1       3.764  -4.215  -0.033  0.00  0.00    +0.023 A 
ATOM     12  C   UNL     1       2.950  -3.104  -0.029  0.00  0.00    +0.015 A 
BRANCH  10  13
ATOM     13  N   UNL     1       4.033  -6.611  -0.053  0.00  0.00    -0.358 N 
ATOM     14  H   UNL     1       3.644  -7.500  -0.060  0.00  0.00    +0.142 HD
ATOM     15  H   UNL     1       4.997  -6.503  -0.053  0.00  0.00    +0.142 HD
ENDBRANCH  10  13
ENDBRANCH   5   7
BRANCH   3  16
ATOM     16  C   UNL     1      -2.513  -0.381   0.012  0.00  0.00    +0.166 C 
BRANCH  16  17
ATOM     17  N   UNL     1      -2.987  -0.232  -1.366  0.00  0.00    -0.275 N 
ATOM     18  C   UNL     1      -4.257   0.153  -1.604  0.00  0.00    +0.401 C 
ATOM     19  O   UNL     1      -5.008   0.376  -0.676  0.00  0.00    -0.226 OA
ATOM     20  H   UNL     1      -2.387  -0.409  -2.107  0.00  0.00    +0.152 HD
BRANCH  18  21
ATOM     21  O   UNL     1      -4.692   0.290  -2.871  0.00  0.00    -0.445 OA
BRANCH  21  22
ATOM     22  C   UNL     1      -6.049   0.700  -3.049  0.00  0.00    +0.107 C 
ATOM     23  C   UNL     1      -6.260   2.066  -2.392  0.00  0.00    +0.055 C 
ATOM     24  C   UNL     1      -6.360   0.800  -4.544  0.00  0.00    +0.055 C 
ATOM     25  C   UNL     1      -6.982  -0.326  -2.402  0.00  0.00    +0.055 C 
ENDBRANCH  21  22
ENDBRANCH  18  21
ENDBRANCH  16  17
ENDBRANCH   3  16
TORSDOF 6
