REMARK  Name = ZINC59017714
REMARK  12 active torsions:
REMARK  status: ('A' for Active; 'I' for Inactive)
REMARK    1  A    between atoms: C_1  and  C_2
REMARK    2  A    between atoms: C_2  and  C_9
REMARK    3  A    between atoms: C_13  and  N_15
REMARK    4  A    between atoms: C_16  and  C_18
REMARK    5  A    between atoms: C_18  and  C_20
REMARK    6  A    between atoms: C_18  and  N_24
REMARK    7  A    between atoms: C_20  and  C_21
REMARK    8  A    between atoms: C_21  and  S_22
REMARK    9  A    between atoms: S_22  and  C_23
REMARK   10  A    between atoms: C_25  and  C_27
REMARK   11  A    between atoms: C_27  and  O_28
REMARK   12  A    between atoms: O_28  and  C_29
REMARK                            x       y       z     vdW  Elec       q    Type
REMARK                         _______ _______ _______ _____ _____    ______ ____
ROOT
ATOM      1  N   UNL     1       0.216  -0.319  -4.900  0.00  0.00    -0.284 N 
ATOM      2  C   UNL     1       0.860  -0.694  -6.023  0.00  0.00    +0.238 C 
ATOM      3  O   UNL     1       1.843  -1.400  -5.951  0.00  0.00    -0.273 OA
ATOM      4  H   UNL     1      -0.613   0.181  -4.960  0.00  0.00    +0.155 HD
ENDROOT
BRANCH   1   9
ATOM      5  C   UNL     1       0.416  -1.248  -1.348  0.00  0.00    -0.014 A 
ATOM      6  C   UNL     1       1.786  -1.308  -1.170  0.00  0.00    +0.006 A 
ATOM      7  C   UNL     1       2.636  -1.040  -2.227  0.00  0.00    +0.002 A 
ATOM      8  C   UNL     1       2.119  -0.712  -3.465  0.00  0.00    +0.023 A 
ATOM      9  C   UNL     1       0.743  -0.651  -3.647  0.00  0.00    +0.034 A 
ATOM     10  C   UNL     1      -0.107  -0.926  -2.584  0.00  0.00    +0.029 A 
BRANCH   5  12
ATOM     11  C   UNL     1      -1.407  -0.337   0.094  0.00  0.00    +0.047 C 
ATOM     12  C   UNL     1      -0.506  -1.541  -0.193  0.00  0.00    +0.135 C 
ATOM     13  C   UNL     1      -1.340  -2.776  -0.471  0.00  0.00    +0.248 C 
ATOM     14  O   UNL     1      -2.134  -2.935  -1.373  0.00  0.00    -0.273 OA
ATOM     15  N   UNL     1      -1.013  -3.661   0.491  0.00  0.00    -0.238 N 
ATOM     16  C   UNL     1      -0.098  -3.162   1.331  0.00  0.00    +0.307 C 
ATOM     17  O   UNL     1       0.353  -3.773   2.279  0.00  0.00    -0.252 OA
ATOM     18  N   UNL     1       0.266  -1.908   1.007  0.00  0.00    -0.282 N 
ATOM     19  H   UNL     1      -1.394  -4.550   0.567  0.00  0.00    +0.159 HD
ATOM     20  H   UNL     1       0.911  -1.353   1.473  0.00  0.00    +0.152 HD
ENDBRANCH   5  12
ENDBRANCH   1   9
BRANCH   2  21
ATOM     21  C   UNL     1       0.357  -0.236  -7.368  0.00  0.00    +0.160 C 
BRANCH  21  22
ATOM     22  N   UNL     1       1.222  -0.774  -8.421  0.00  0.00    -0.301 N 
ATOM     23  C   UNL     1       1.311  -0.142  -9.608  0.00  0.00    +0.251 C 
ATOM     24  O   UNL     1       0.675   0.872  -9.805  0.00  0.00    -0.272 OA
ATOM     25  H   UNL     1       1.731  -1.585  -8.264  0.00  0.00    +0.150 HD
BRANCH  23  26
ATOM     26  C   UNL     1       2.200  -0.695 -10.692  0.00  0.00    +0.324 C 
BRANCH  26  27
ATOM     27  O   UNL     1       2.125   0.145 -11.845  0.00  0.00    -0.483 OA
BRANCH  27  28
ATOM     28  C   UNL     1       2.873  -0.215 -12.921  0.00  0.00    +0.121 A 
ATOM     29  C   UNL     1       3.659  -1.357 -12.870  0.00  0.00    +0.045 A 
ATOM     30  C   UNL     1       4.418  -1.722 -13.965  0.00  0.00    +0.004 A 
ATOM     31  C   UNL     1       4.395  -0.949 -15.111  0.00  0.00    +0.000 A 
ATOM     32  C   UNL     1       3.613   0.189 -15.165  0.00  0.00    +0.004 A 
ATOM     33  C   UNL     1       2.847   0.555 -14.075  0.00  0.00    +0.045 A 
ENDBRANCH  27  28
ENDBRANCH  26  27
ENDBRANCH  23  26
ENDBRANCH  21  22
BRANCH  21  34
ATOM     34  C   UNL     1      -1.073  -0.739  -7.576  0.00  0.00    +0.042 C 
BRANCH  34  35
ATOM     35  C   UNL     1      -1.627  -0.171  -8.884  0.00  0.00    +0.071 C 
BRANCH  35  36
ATOM     36  S   UNL     1      -3.323  -0.766  -9.131  0.00  0.00    -0.164 S 
ATOM     37  C   UNL     1      -3.828  -0.013 -10.702  0.00  0.00    +0.084 C 
ENDBRANCH  35  36
ENDBRANCH  34  35
ENDBRANCH  21  34
ENDBRANCH   2  21
TORSDOF 10
