REMARK  Name = ZINC05392793
REMARK  7 active torsions:
REMARK  status: ('A' for Active; 'I' for Inactive)
REMARK    1  A    between atoms: C_1  and  C_2
REMARK    2  A    between atoms: C_2  and  C_3
REMARK    3  A    between atoms: C_3  and  S_4
REMARK    4  A    between atoms: S_4  and  N_7
REMARK    5  A    between atoms: N_7  and  C_8
REMARK    6  A    between atoms: N_22  and  S_24
REMARK    7  A    between atoms: S_24  and  C_27
REMARK                            x       y       z     vdW  Elec       q    Type
REMARK                         _______ _______ _______ _____ _____    ______ ____
ROOT
ATOM      1  C   UNL     1       0.088  -0.661   2.372  0.00  0.00    +0.068 A 
ATOM      2  C   UNL     1       0.750  -1.071   3.539  0.00  0.00    +0.031 A 
ATOM      3  C   UNL     1       2.099  -1.268   3.496  0.00  0.00    +0.072 A 
ATOM      4  C   UNL     1       2.778  -1.088   2.284  0.00  0.00    +0.252 A 
ATOM      5  O   UNL     1       3.993  -1.212   2.249  0.00  0.00    -0.268 OA
ATOM      6  N   UNL     1       2.105  -0.778   1.149  0.00  0.00    -0.310 N 
ATOM      7  C   UNL     1       0.761  -0.498   1.217  0.00  0.00    +0.049 A 
ATOM      8  C   UNL     1       0.009   0.005   0.008  0.00  0.00    +0.054 C 
ATOM      9  C   UNL     1       0.700  -0.452  -1.280  0.00  0.00    +0.017 C 
ATOM     10  C   UNL     1       2.168  -0.031  -1.214  0.00  0.00    +0.025 C 
ATOM     11  C   UNL     1       2.870  -0.782  -0.098  0.00  0.00    +0.130 C 
ATOM     12  C   UNL     1       2.301   1.477  -1.063  0.00  0.00    +0.114 C 
ATOM     13  N   UNL     1       1.446   1.957   0.048  0.00  0.00    -0.176 NA
ATOM     14  C   UNL     1       0.034   1.543   0.049  0.00  0.00    +0.119 C 
ENDROOT
BRANCH  13  15
ATOM     15  S   UNL     1       2.039   2.945   1.238  0.00  0.00    +0.061 S 
ATOM     16  O   UNL     1       1.125   2.868   2.323  0.00  0.00    -0.153 OA
ATOM     17  O   UNL     1       3.417   2.628   1.379  0.00  0.00    -0.153 OA
BRANCH  15  18
ATOM     18  C   UNL     1       1.963   4.597   0.630  0.00  0.00    +0.105 A 
ATOM     19  C   UNL     1       2.993   5.097  -0.145  0.00  0.00    +0.028 A 
ATOM     20  C   UNL     1       2.930   6.391  -0.626  0.00  0.00    +0.002 A 
ATOM     21  C   UNL     1       1.843   7.189  -0.323  0.00  0.00    +0.000 A 
ATOM     22  C   UNL     1       0.815   6.691   0.456  0.00  0.00    +0.002 A 
ATOM     23  C   UNL     1       0.875   5.395   0.933  0.00  0.00    +0.028 A 
ENDBRANCH  15  18
ENDBRANCH  13  15
BRANCH   1  24
ATOM     24  N   UNL     1      -1.293  -0.416   2.404  0.00  0.00    -0.219 N 
ATOM     25  H   UNL     1      -1.767  -0.207   1.584  0.00  0.00    +0.173 HD
BRANCH  24  26
ATOM     26  S   UNL     1      -2.113  -0.485   3.841  0.00  0.00    +0.043 S 
ATOM     27  O   UNL     1      -3.452  -0.144   3.510  0.00  0.00    -0.155 OA
ATOM     28  O   UNL     1      -1.802  -1.764   4.375  0.00  0.00    -0.155 OA
BRANCH  26  29
ATOM     29  C   UNL     1      -1.371   0.817   4.864  0.00  0.00    +0.188 C 
BRANCH  29  31
ATOM     30  C   UNL     1      -1.346   1.863   7.132  0.00  0.00    +0.005 C 
ATOM     31  C   UNL     1      -1.972   0.765   6.270  0.00  0.00    +0.021 C 
ENDBRANCH  29  31
ENDBRANCH  26  29
ENDBRANCH  24  26
ENDBRANCH   1  24
TORSDOF 6
