REMARK  Name = ZINC46791260
REMARK  8 active torsions:
REMARK  status: ('A' for Active; 'I' for Inactive)
REMARK    1  A    between atoms: C_1  and  C_2
REMARK    2  A    between atoms: C_7  and  C_10
REMARK    3  A    between atoms: C_14  and  C_17
REMARK    4  A    between atoms: C_17  and  N_18
REMARK    5  A    between atoms: C_19  and  C_21
REMARK    6  A    between atoms: C_23  and  S_28
REMARK    7  A    between atoms: S_28  and  N_31
REMARK    8  A    between atoms: N_31  and  C_32
REMARK                            x       y       z     vdW  Elec       q    Type
REMARK                         _______ _______ _______ _____ _____    ______ ____
ROOT
ATOM      1  N   UNL     1      -3.369  -5.796  -4.369  0.00  0.00    -0.307 N 
ATOM      2  C   UNL     1      -3.827  -6.645  -5.310  0.00  0.00    +0.246 C 
ATOM      3  O   UNL     1      -4.917  -7.168  -5.179  0.00  0.00    -0.270 OA
ATOM      4  H   UNL     1      -2.500  -5.378  -4.474  0.00  0.00    +0.149 HD
ENDROOT
BRANCH   2   5
ATOM      5  C   UNL     1      -3.005  -6.940  -6.502  0.00  0.00    +0.057 A 
ATOM      6  C   UNL     1      -1.750  -6.346  -6.653  0.00  0.00    +0.043 A 
ATOM      7  C   UNL     1      -0.988  -6.626  -7.767  0.00  0.00    +0.106 A 
ATOM      8  C   UNL     1      -1.462  -7.494  -8.736  0.00  0.00    +0.030 A 
ATOM      9  C   UNL     1      -2.704  -8.086  -8.594  0.00  0.00    +0.022 A 
ATOM     10  C   UNL     1      -3.476  -7.820  -7.480  0.00  0.00    +0.053 A 
ATOM     11 CL   UNL     1      -5.031  -8.570  -7.298  0.00  0.00    -0.083 Cl
BRANCH   7  12
ATOM     12  S   UNL     1       0.595  -5.877  -7.960  0.00  0.00    +0.058 S 
ATOM     13  O   UNL     1       0.879  -5.878  -9.352  0.00  0.00    -0.153 OA
ATOM     14  O   UNL     1       0.577  -4.684  -7.187  0.00  0.00    -0.153 OA
BRANCH  12  15
ATOM     15  N   UNL     1       1.703  -6.883  -7.250  0.00  0.00    -0.193 NA
ATOM     16  C   UNL     1       1.939  -8.219  -7.804  0.00  0.00    +0.127 C 
ATOM     17  H   UNL     1       2.195  -6.588  -6.468  0.00  0.00    +0.148 HD
ENDBRANCH  12  15
ENDBRANCH   7  12
ENDBRANCH   2   5
BRANCH   1  18
ATOM     18  C   UNL     1      -4.185  -5.503  -3.188  0.00  0.00    +0.141 C 
BRANCH  18  30
ATOM     19  C   UNL     1      -0.045  -2.168   3.728  0.00  0.00    +0.039 C 
ATOM     20  C   UNL     1      -0.987  -1.773   2.589  0.00  0.00    +0.133 C 
ATOM     21  C   UNL     1      -0.596  -2.529   1.315  0.00  0.00    +0.137 C 
ATOM     22  N   UNL     1      -1.389  -1.995   0.196  0.00  0.00    -0.312 N 
ATOM     23  C   UNL     1      -1.418  -0.537   0.002  0.00  0.00    +0.137 C 
ATOM     24  C   UNL     1      -1.770   0.122   1.341  0.00  0.00    +0.133 C 
ATOM     25  O   UNL     1      -0.886  -0.366   2.353  0.00  0.00    -0.371 OA
ATOM     26  C   UNL     1      -3.214  -0.218   1.714  0.00  0.00    +0.039 C 
ATOM     27  C   UNL     1      -2.091  -2.844  -0.652  0.00  0.00    +0.099 A 
ATOM     28  C   UNL     1      -2.927  -2.308  -1.627  0.00  0.00    +0.042 A 
ATOM     29  C   UNL     1      -3.619  -3.164  -2.464  0.00  0.00    +0.010 A 
ATOM     30  C   UNL     1      -3.451  -4.533  -2.299  0.00  0.00    -0.014 A 
ATOM     31  C   UNL     1      -2.604  -4.995  -1.311  0.00  0.00    +0.089 A 
ATOM     32  N   UNL     1      -1.953  -4.155  -0.530  0.00  0.00    -0.349 N 
ATOM     33  H   UNL     1      -1.361  -4.507   0.154  0.00  0.00    +0.167 HD
ENDBRANCH  18  30
ENDBRANCH   1  18
TORSDOF 5
