REMARK  Name = ZINC39440564
REMARK  15 active torsions:
REMARK  status: ('A' for Active; 'I' for Inactive)
REMARK    1  A    between atoms: C_1  and  C_2
REMARK    2  A    between atoms: C_4  and  C_12
REMARK    3  A    between atoms: C_12  and  C_14
REMARK    4  A    between atoms: C_14  and  C_16
REMARK    5  A    between atoms: C_14  and  O_17
REMARK    6  A    between atoms: O_17  and  C_18
REMARK    7  A    between atoms: C_18  and  C_20
REMARK    8  A    between atoms: C_21  and  C_32
REMARK    9  A    between atoms: C_22  and  C_31
REMARK   10  A    between atoms: C_24  and  C_30
REMARK   11  A    between atoms: C_25  and  C_26
REMARK   12  A    between atoms: C_26  and  O_28
REMARK   13  A    between atoms: O_28  and  C_29
REMARK   14  A    between atoms: C_32  and  O_34
REMARK   15  A    between atoms: O_34  and  C_35
REMARK                            x       y       z     vdW  Elec       q    Type
REMARK                         _______ _______ _______ _____ _____    ______ ____
ROOT
ATOM      1  C   UNL     1      -5.098  -2.515  -2.380  0.00  0.00    +0.320 C 
ATOM      2  O   UNL     1      -5.318  -3.324  -1.509  0.00  0.00    -0.250 OA
ENDROOT
BRANCH   1   3
ATOM      3  C   UNL     1      -5.866  -2.577  -3.676  0.00  0.00    +0.174 C 
ATOM      4  C   UNL     1      -6.594  -1.279  -3.882  0.00  0.00    +0.072 C 
ATOM      5  C   UNL     1      -7.919  -1.178  -3.679  0.00  0.00    +0.016 C 
ATOM      6  N   UNL     1      -8.652  -2.264  -3.284  0.00  0.00    -0.321 N 
ATOM      7  C   UNL     1      -8.148  -3.528  -3.432  0.00  0.00    +0.016 C 
ATOM      8  C   UNL     1      -6.832  -3.726  -3.624  0.00  0.00    +0.072 C 
ATOM      9  C   UNL     1      -9.079  -4.711  -3.379  0.00  0.00    +0.061 C 
ATOM     10  C   UNL     1      -8.605   0.147  -3.889  0.00  0.00    +0.061 C 
ATOM     11  H   UNL     1      -9.532  -2.138  -2.898  0.00  0.00    +0.152 HD
BRANCH   8  12
ATOM     12  C   UNL     1      -6.347  -5.045  -3.782  0.00  0.00    +0.337 C 
ATOM     13  O   UNL     1      -7.118  -5.986  -3.743  0.00  0.00    -0.245 OA
BRANCH  12  14
ATOM     14  O   UNL     1      -5.029  -5.261  -3.975  0.00  0.00    -0.465 OA
ATOM     15  C   UNL     1      -4.609  -6.619  -4.127  0.00  0.00    +0.280 C 
ENDBRANCH  12  14
ENDBRANCH   8  12
BRANCH   4  16
ATOM     16  C   UNL     1      -5.869  -0.138  -4.297  0.00  0.00    +0.337 C 
ATOM     17  O   UNL     1      -5.567  -0.001  -5.468  0.00  0.00    -0.245 OA
BRANCH  16  18
ATOM     18  O   UNL     1      -5.512   0.800  -3.394  0.00  0.00    -0.465 OA
ATOM     19  C   UNL     1      -4.781   1.927  -3.884  0.00  0.00    +0.280 C 
ENDBRANCH  16  18
ENDBRANCH   4  16
ENDBRANCH   1   3
BRANCH   1  20
ATOM     20  O   UNL     1      -4.171  -1.563  -2.194  0.00  0.00    -0.453 OA
BRANCH  20  21
ATOM     21  C   UNL     1      -3.482  -1.565  -0.942  0.00  0.00    +0.244 C 
ATOM     22  C   UNL     1      -4.243  -0.694   0.060  0.00  0.00    +0.061 C 
BRANCH  21  23
ATOM     23  C   UNL     1      -2.093  -1.013  -1.132  0.00  0.00    +0.202 C 
ATOM     24  O   UNL     1      -1.830  -0.357  -2.119  0.00  0.00    -0.288 OA
BRANCH  23  27
ATOM     25  C   UNL     1       0.440   0.703  -0.258  0.00  0.00    +0.035 C 
ATOM     26  C   UNL     1       0.351  -0.824  -0.208  0.00  0.00    +0.111 C 
ATOM     27  C   UNL     1      -1.097  -1.260  -0.164  0.00  0.00    +0.030 C 
ATOM     28  C   UNL     1      -1.240  -1.952   1.025  0.00  0.00    +0.007 A 
ATOM     29  C   UNL     1      -2.340  -2.599   1.636  0.00  0.00    +0.010 A 
ATOM     30  C   UNL     1      -2.192  -3.211   2.832  0.00  0.00    +0.001 A 
ATOM     31  C   UNL     1      -0.968  -3.239   3.519  0.00  0.00    +0.002 A 
ATOM     32  C   UNL     1       0.143  -2.652   3.023  0.00  0.00    +0.026 A 
ATOM     33  C   UNL     1       0.069  -1.963   1.724  0.00  0.00    +0.043 A 
ATOM     34  N   UNL     1       0.966  -1.326   1.024  0.00  0.00    -0.377 N 
ATOM     35  H   UNL     1       1.894  -1.202   1.279  0.00  0.00    +0.160 HD
ENDBRANCH  23  27
ENDBRANCH  21  23
ENDBRANCH  20  21
ENDBRANCH   1  20
TORSDOF 9
