REMARK  Name = ZINC24962704
REMARK  12 active torsions:
REMARK  status: ('A' for Active; 'I' for Inactive)
REMARK    1  A    between atoms: C_1  and  C_2
REMARK    2  A    between atoms: C_4  and  C_32
REMARK    3  A    between atoms: C_5  and  N_9
REMARK    4  A    between atoms: C_6  and  C_8
REMARK    5  A    between atoms: C_10  and  C_12
REMARK    6  A    between atoms: C_12  and  N_13
REMARK    7  A    between atoms: C_14  and  C_16
REMARK    8  A    between atoms: C_16  and  O_17
REMARK    9  A    between atoms: O_17  and  C_18
REMARK   10  A    between atoms: C_18  and  C_20
REMARK   11  A    between atoms: C_21  and  C_31
REMARK   12  A    between atoms: N_23  and  C_25
REMARK                            x       y       z     vdW  Elec       q    Type
REMARK                         _______ _______ _______ _____ _____    ______ ____
ROOT
ATOM      1  N   UNL     1       1.976  -3.537   1.558  0.00  0.00    -0.304 N 
ATOM      2  C   UNL     1       0.890  -2.757   1.729  0.00  0.00    +0.251 C 
ATOM      3  O   UNL     1      -0.124  -2.985   1.104  0.00  0.00    -0.272 OA
ATOM      4  H   UNL     1       2.896  -3.331   2.125  0.00  0.00    +0.149 HD
ENDROOT
BRANCH   1   5
ATOM      5  C   UNL     1       1.932  -4.658   0.616  0.00  0.00    +0.200 C 
BRANCH   5   7
ATOM      6  N   UNL     1       3.458  -6.433  -0.184  0.00  0.00    -0.284 N 
ATOM      7  C   UNL     1       3.264  -5.363   0.612  0.00  0.00    +0.234 C 
ATOM      8  O   UNL     1       4.162  -4.968   1.325  0.00  0.00    -0.274 OA
ATOM      9  H   UNL     1       2.626  -6.829  -0.786  0.00  0.00    +0.155 HD
BRANCH   6  14
ATOM     10  C   UNL     1       8.560  -8.900  -0.434  0.00  0.00    +0.044 C 
ATOM     11  C   UNL     1       7.205  -8.245  -0.368  0.00  0.00    -0.050 A 
ATOM     12  C   UNL     1       6.082  -9.008  -0.108  0.00  0.00    +0.008 A 
ATOM     13  C   UNL     1       4.838  -8.411  -0.047  0.00  0.00    -0.029 A 
ATOM     14  C   UNL     1       4.716  -7.042  -0.246  0.00  0.00    +0.039 A 
ATOM     15  C   UNL     1       5.846  -6.278  -0.511  0.00  0.00    -0.029 A 
ATOM     16  C   UNL     1       7.087  -6.881  -0.566  0.00  0.00    +0.008 A 
ATOM     17  C   UNL     1       5.718  -4.793  -0.733  0.00  0.00    +0.045 C 
ATOM     18  C   UNL     1       3.614  -9.243   0.236  0.00  0.00    +0.045 C 
ENDBRANCH   6  14
ENDBRANCH   5   7
ENDBRANCH   1   5
BRANCH   2  19
ATOM     19  C   UNL     1       0.936  -1.604   2.698  0.00  0.00    +0.328 C 
BRANCH  19  20
ATOM     20  O   UNL     1      -0.347  -0.924   2.702  0.00  0.00    -0.451 OA
BRANCH  20  21
ATOM     21  C   UNL     1      -0.474   0.138   3.521  0.00  0.00    +0.362 C 
ATOM     22  O   UNL     1       0.461   0.487   4.212  0.00  0.00    -0.243 OA
BRANCH  21  23
ATOM     23  C   UNL     1      -1.749   0.881   3.573  0.00  0.00    +0.192 A 
ATOM     24  C   UNL     1      -2.022   1.999   4.381  0.00  0.00    +0.095 A 
ATOM     25  N   UNL     1      -3.259   2.355   4.125  0.00  0.00    -0.152 NA
ATOM     26  N   UNL     1      -3.757   1.460   3.169  0.00  0.00    -0.149 N 
ATOM     27  N   UNL     1      -2.836   0.611   2.874  0.00  0.00    -0.140 NA
ATOM     28  C   UNL     1      -1.078   2.662   5.351  0.00  0.00    +0.070 C 
BRANCH  26  29
ATOM     29  C   UNL     1      -5.048   1.485   2.623  0.00  0.00    +0.086 A 
ATOM     30  C   UNL     1      -5.956   2.453   3.030  0.00  0.00    +0.029 A 
ATOM     31  C   UNL     1      -7.226   2.478   2.486  0.00  0.00    +0.002 A 
ATOM     32  C   UNL     1      -7.596   1.534   1.546  0.00  0.00    +0.000 A 
ATOM     33  C   UNL     1      -6.695   0.565   1.144  0.00  0.00    +0.002 A 
ATOM     34  C   UNL     1      -5.423   0.538   1.679  0.00  0.00    +0.029 A 
ENDBRANCH  26  29
ENDBRANCH  21  23
ENDBRANCH  20  21
ENDBRANCH  19  20
ENDBRANCH   2  19
TORSDOF 8
