REMARK  Name = ZINC05130058
REMARK  4 active torsions:
REMARK  status: ('A' for Active; 'I' for Inactive)
REMARK    1  A    between atoms: C_1  and  C_2
REMARK    2  A    between atoms: C_2  and  C_3
REMARK    3  A    between atoms: C_10  and  N_25
REMARK    4  A    between atoms: C_11  and  C_23
REMARK                            x       y       z     vdW  Elec       q    Type
REMARK                         _______ _______ _______ _____ _____    ______ ____
ROOT
ATOM      1  C   UNL     1       0.731  -0.503   1.223  0.00  0.00    +0.071 A 
ATOM      2  C   UNL     1       2.094  -0.752   1.313  0.00  0.00    +0.061 A 
ATOM      3  C   UNL     1       2.360  -1.192   2.582  0.00  0.00    +0.223 A 
ATOM      4  N   UNL     1       1.200  -1.214   3.255  0.00  0.00    -0.246 N 
ATOM      5  H   UNL     1       1.081  -1.483   4.180  0.00  0.00    +0.192 HD
ATOM      6  N   UNL     1       0.189  -0.773   2.387  0.00  0.00    -0.176 NA
ATOM      7  O   UNL     1       3.610  -1.523   2.992  0.00  0.00    -0.423 OA
ATOM      8  C   UNL     1       4.566  -1.668   2.052  0.00  0.00    +0.201 C 
ATOM      9  C   UNL     1       4.425  -1.261   0.769  0.00  0.00    +0.110 C 
ATOM     10  C   UNL     1       3.168  -0.600   0.275  0.00  0.00    +0.145 C 
ATOM     11  C   UNL     1       3.406   0.839  -0.056  0.00  0.00    -0.000 A 
ATOM     12  C   UNL     1       3.823   1.899   0.721  0.00  0.00    +0.027 A 
ATOM     13  C   UNL     1       3.943   3.134   0.091  0.00  0.00    +0.041 A 
ATOM     14  C   UNL     1       3.658   3.286  -1.252  0.00  0.00    +0.022 A 
ATOM     15  C   UNL     1       3.239   2.225  -2.038  0.00  0.00    +0.025 A 
ATOM     16  C   UNL     1       3.114   0.981  -1.418  0.00  0.00    +0.038 A 
ATOM     17  N   UNL     1       2.724  -0.234  -1.955  0.00  0.00    -0.284 N 
ATOM     18  C   UNL     1       2.727  -1.220  -1.033  0.00  0.00    +0.238 C 
ATOM     19  O   UNL     1       2.433  -2.382  -1.217  0.00  0.00    -0.274 OA
ATOM     20 CL   UNL     1       4.464   4.511   1.011  0.00  0.00    -0.084 Cl
ATOM     21  H   UNL     1       2.476  -0.361  -2.884  0.00  0.00    +0.155 HD
ENDROOT
BRANCH   8  22
ATOM     22  N   UNL     1       5.748  -2.262   2.418  0.00  0.00    -0.328 N 
ATOM     23  H   UNL     1       5.878  -2.564   3.330  0.00  0.00    +0.145 HD
ATOM     24  H   UNL     1       6.454  -2.381   1.763  0.00  0.00    +0.145 HD
ENDBRANCH   8  22
BRANCH   1  26
ATOM     25  C   UNL     1      -0.019   1.526   0.010  0.00  0.00    +0.010 C 
ATOM     26  C   UNL     1       0.002  -0.004   0.002  0.00  0.00    +0.054 C 
ENDBRANCH   1  26
BRANCH   9  27
ATOM     27  C   UNL     1       5.507  -1.468  -0.147  0.00  0.00    +0.102 C 
ATOM     28  N   UNL     1       6.365  -1.632  -0.873  0.00  0.00    -0.191 NA
ENDBRANCH   9  27
TORSDOF 3
