REMARK  Name = ZINC38671094
REMARK  9 active torsions:
REMARK  status: ('A' for Active; 'I' for Inactive)
REMARK    1  A    between atoms: C_1  and  C_2
REMARK    2  A    between atoms: C_3  and  S_8
REMARK    3  A    between atoms: C_4  and  C_7
REMARK    4  A    between atoms: S_8  and  N_11
REMARK    5  A    between atoms: N_11  and  C_12
REMARK    6  A    between atoms: C_12  and  C_13
REMARK    7  A    between atoms: C_13  and  C_15
REMARK    8  A    between atoms: C_13  and  N_26
REMARK    9  A    between atoms: N_24  and  C_25
REMARK                            x       y       z     vdW  Elec       q    Type
REMARK                         _______ _______ _______ _____ _____    ______ ____
ROOT
ATOM      1  C   UNL     1       3.644  -0.761  -4.040  0.00  0.00    -0.022 C 
ENDROOT
BRANCH   1   2
ATOM      2  C   UNL     1       4.469  -1.974  -4.386  0.00  0.00    -0.059 A 
ATOM      3  C   UNL     1       4.111  -2.769  -5.459  0.00  0.00    +0.004 A 
ATOM      4  C   UNL     1       4.866  -3.881  -5.775  0.00  0.00    +0.023 A 
ATOM      5  C   UNL     1       5.986  -4.199  -5.015  0.00  0.00    +0.033 A 
ATOM      6  C   UNL     1       6.347  -3.400  -3.942  0.00  0.00    -0.026 A 
ATOM      7  C   UNL     1       5.585  -2.285  -3.634  0.00  0.00    +0.007 A 
ATOM      8  C   UNL     1       7.560  -3.708  -3.104  0.00  0.00    +0.038 C 
ATOM      9  C   UNL     1       7.958  -5.176  -3.259  0.00  0.00    +0.024 C 
ATOM     10  C   UNL     1       8.067  -5.505  -4.753  0.00  0.00    +0.105 C 
ATOM     11  N   UNL     1       6.735  -5.333  -5.349  0.00  0.00    -0.333 N 
ATOM     12  C   UNL     1       6.200  -6.332  -6.277  0.00  0.00    +0.129 C 
ENDBRANCH   1   2
BRANCH   1  13
ATOM     13  N   UNL     1       3.224  -0.086  -5.275  0.00  0.00    +0.385 N 
ATOM     14  C   UNL     1       4.410   0.276  -6.060  0.00  0.00    -0.078 C 
ATOM     15  C   UNL     1       3.976   0.907  -7.385  0.00  0.00    -0.019 C 
ATOM     16  C   UNL     1       3.148   2.163  -7.099  0.00  0.00    -0.004 C 
ATOM     17  C   UNL     1       1.954   1.785  -6.218  0.00  0.00    -0.019 C 
ATOM     18  C   UNL     1       2.463   1.122  -4.936  0.00  0.00    -0.078 C 
ATOM     19  H   UNL     1       2.642  -0.708  -5.816  0.00  0.00    -0.081 HD
ENDBRANCH   1  13
BRANCH   1  20
ATOM     20  C   UNL     1       2.408  -1.194  -3.250  0.00  0.00    +0.095 C 
BRANCH  20  21
ATOM     21  N   UNL     1       2.825  -1.785  -1.976  0.00  0.00    -0.191 NA
ATOM     22  H   UNL     1       3.750  -2.042  -1.840  0.00  0.00    +0.148 HD
BRANCH  21  23
ATOM     23  S   UNL     1       1.716  -2.014  -0.767  0.00  0.00    +0.063 S 
ATOM     24  O   UNL     1       1.009  -0.790  -0.626  0.00  0.00    -0.153 OA
ATOM     25  O   UNL     1       2.412  -2.620   0.313  0.00  0.00    -0.153 OA
BRANCH  23  28
ATOM     26  C   UNL     1       1.764  -5.335  -0.494  0.00  0.00    +0.071 C 
ATOM     27  C   UNL     1       0.648  -4.598  -1.188  0.00  0.00    +0.107 A 
ATOM     28  C   UNL     1       0.552  -3.204  -1.346  0.00  0.00    +0.169 A 
ATOM     29  C   UNL     1      -0.585  -2.936  -2.017  0.00  0.00    +0.161 A 
ATOM     30  O   UNL     1      -1.195  -4.101  -2.281  0.00  0.00    -0.358 OA
ATOM     31  N   UNL     1      -0.394  -5.141  -1.751  0.00  0.00    -0.081 NA
ATOM     32  C   UNL     1      -1.083  -1.567  -2.404  0.00  0.00    +0.091 C 
ENDBRANCH  23  28
ENDBRANCH  21  23
ENDBRANCH  20  21
ENDBRANCH   1  20
TORSDOF 6
