REMARK  Name = ZINC04517122
REMARK  13 active torsions:
REMARK  status: ('A' for Active; 'I' for Inactive)
REMARK    1  A    between atoms: C_1  and  C_2
REMARK    2  A    between atoms: C_3  and  C_24
REMARK    3  A    between atoms: C_12  and  N_20
REMARK    4  A    between atoms: C_13  and  C_14
REMARK    5  A    between atoms: C_14  and  O_16
REMARK    6  A    between atoms: O_16  and  C_17
REMARK    7  A    between atoms: C_17  and  C_18
REMARK    8  A    between atoms: C_17  and  C_19
REMARK    9  A    between atoms: C_24  and  O_26
REMARK   10  A    between atoms: O_26  and  C_27
REMARK   11  A    between atoms: C_27  and  C_28
REMARK   12  A    between atoms: C_27  and  C_29
REMARK   13  A    between atoms: C_27  and  C_30
REMARK                            x       y       z     vdW  Elec       q    Type
REMARK                         _______ _______ _______ _____ _____    ______ ____
ROOT
ATOM      1  C   UNL     1      -2.382   3.745  -3.180  0.00  0.00    +0.061 C 
ATOM      2  C   UNL     1      -1.607   3.824  -1.889  0.00  0.00    +0.019 C 
ATOM      3  C   UNL     1      -0.406   4.422  -1.769  0.00  0.00    +0.077 C 
ATOM      4  C   UNL     1      -0.009   4.263  -0.319  0.00  0.00    +0.145 C 
ATOM      5  C   UNL     1       0.138   5.608   0.338  0.00  0.00    +0.019 A 
ATOM      6  C   UNL     1      -0.987   6.348   0.653  0.00  0.00    +0.009 A 
ATOM      7  C   UNL     1      -0.859   7.586   1.251  0.00  0.00    +0.001 A 
ATOM      8  C   UNL     1       0.396   8.091   1.538  0.00  0.00    +0.004 A 
ATOM      9  C   UNL     1       1.523   7.356   1.227  0.00  0.00    +0.046 A 
ATOM     10  C   UNL     1       1.399   6.110   0.625  0.00  0.00    +0.135 A 
ATOM     11  O   UNL     1       2.514   5.401   0.326  0.00  0.00    -0.441 OA
ATOM     12  C   UNL     1       2.436   4.079   0.104  0.00  0.00    +0.196 C 
ATOM     13  C   UNL     1       1.260   3.473  -0.207  0.00  0.00    +0.117 C 
ATOM     14  C   UNL     1      -1.163   3.504   0.293  0.00  0.00    +0.237 C 
ATOM     15  O   UNL     1      -1.276   3.152   1.448  0.00  0.00    -0.274 OA
ATOM     16  N   UNL     1      -2.041   3.298  -0.709  0.00  0.00    -0.288 N 
ATOM     17  H   UNL     1      -2.884   2.829  -0.602  0.00  0.00    +0.155 HD
ENDROOT
BRANCH  12  18
ATOM     18  N   UNL     1       3.573   3.321   0.192  0.00  0.00    -0.329 N 
ATOM     19  H   UNL     1       4.424   3.687  -0.097  0.00  0.00    +0.145 HD
ATOM     20  H   UNL     1       3.528   2.419   0.544  0.00  0.00    +0.145 HD
ENDBRANCH  12  18
BRANCH  13  21
ATOM     21  C   UNL     1       1.234   2.088  -0.431  0.00  0.00    +0.342 C 
ATOM     22  O   UNL     1       2.275   1.456  -0.455  0.00  0.00    -0.245 OA
BRANCH  21  23
ATOM     23  O   UNL     1       0.055   1.457  -0.621  0.00  0.00    -0.458 OA
BRANCH  23  24
ATOM     24  C   UNL     1       0.103   0.046  -0.844  0.00  0.00    +0.171 C 
ATOM     25  C   UNL     1      -1.177  -0.599  -0.310  0.00  0.00    +0.052 C 
ATOM     26  C   UNL     1       0.226  -0.229  -2.344  0.00  0.00    +0.052 C 
ENDBRANCH  23  24
ENDBRANCH  21  23
ENDBRANCH  13  21
BRANCH   3  27
ATOM     27  C   UNL     1       0.331   5.068  -2.789  0.00  0.00    +0.339 C 
ATOM     28  O   UNL     1      -0.114   5.121  -3.921  0.00  0.00    -0.245 OA
BRANCH  27  29
ATOM     29  O   UNL     1       1.528   5.624  -2.508  0.00  0.00    -0.456 OA
BRANCH  29  30
ATOM     30  C   UNL     1       2.217   6.260  -3.587  0.00  0.00    +0.106 C 
ATOM     31  C   UNL     1       1.357   7.395  -4.144  0.00  0.00    +0.055 C 
ATOM     32  C   UNL     1       3.545   6.827  -3.080  0.00  0.00    +0.055 C 
ATOM     33  C   UNL     1       2.489   5.236  -4.691  0.00  0.00    +0.055 C 
ENDBRANCH  29  30
ENDBRANCH  27  29
ENDBRANCH   3  27
TORSDOF 7
