REMARK  Name = ZINC41546333
REMARK  6 active torsions:
REMARK  status: ('A' for Active; 'I' for Inactive)
REMARK    1  A    between atoms: C_1  and  C_2
REMARK    2  A    between atoms: C_2  and  C_4
REMARK    3  A    between atoms: C_2  and  N_10
REMARK    4  A    between atoms: C_11  and  N_15
REMARK    5  A    between atoms: C_16  and  C_18
REMARK    6  A    between atoms: C_18  and  C_29
REMARK                            x       y       z     vdW  Elec       q    Type
REMARK                         _______ _______ _______ _____ _____    ______ ____
ROOT
ATOM      1  N   UNL     1      -1.318  -1.773  -2.087  0.00  0.00    -0.267 N 
ATOM      2  C   UNL     1      -2.002  -2.554  -2.946  0.00  0.00    +0.271 C 
ATOM      3  O   UNL     1      -3.157  -2.845  -2.713  0.00  0.00    -0.270 OA
ATOM      4  H   UNL     1      -0.395  -1.541  -2.273  0.00  0.00    +0.156 HD
ENDROOT
BRANCH   2   5
ATOM      5  C   UNL     1      -1.333  -3.067  -4.195  0.00  0.00    +0.258 C 
ATOM      6  C   UNL     1      -2.017  -4.333  -4.647  0.00  0.00    +0.270 C 
ATOM      7  O   UNL     1      -3.182  -4.527  -4.373  0.00  0.00    -0.271 OA
ATOM      8  N   UNL     1      -1.326  -5.249  -5.358  0.00  0.00    -0.279 N 
ATOM      9  C   UNL     1       0.049  -5.066  -5.556  0.00  0.00    +0.076 A 
ATOM     10  C   UNL     1       0.741  -5.854  -6.461  0.00  0.00    +0.027 A 
ATOM     11  C   UNL     1       2.095  -5.653  -6.654  0.00  0.00    +0.002 A 
ATOM     12  C   UNL     1       2.760  -4.668  -5.947  0.00  0.00    +0.004 A 
ATOM     13  C   UNL     1       2.075  -3.881  -5.038  0.00  0.00    +0.047 A 
ATOM     14  C   UNL     1       0.721  -4.081  -4.835  0.00  0.00    +0.144 A 
ATOM     15  O   UNL     1       0.044  -3.335  -3.922  0.00  0.00    -0.465 OA
ATOM     16  C   UNL     1      -1.437  -2.012  -5.298  0.00  0.00    +0.076 C 
ATOM     17  H   UNL     1      -1.777  -6.025  -5.728  0.00  0.00    +0.155 HD
ENDBRANCH   2   5
BRANCH   1  19
ATOM     18  N   UNL     1      -1.372  -0.511   0.012  0.00  0.00    -0.243 N 
ATOM     19  C   UNL     1      -1.937  -1.299  -0.931  0.00  0.00    +0.124 A 
ATOM     20  C   UNL     1      -3.220  -1.544  -0.547  0.00  0.00    +0.065 A 
ATOM     21  C   UNL     1      -3.437  -0.885   0.666  0.00  0.00    +0.136 A 
ATOM     22  N   UNL     1      -2.332  -0.271   1.004  0.00  0.00    -0.177 NA
BRANCH  18  24
ATOM     23  C   UNL     1      -0.019   1.526   0.010  0.00  0.00    +0.038 C 
ATOM     24  C   UNL     1       0.002  -0.004   0.002  0.00  0.00    +0.136 C 
BRANCH  24  25
ATOM     25  C   UNL     1       0.731  -0.503   1.223  0.00  0.00    -0.023 A 
ATOM     26  C   UNL     1       0.263  -0.187   2.485  0.00  0.00    +0.006 A 
ATOM     27  C   UNL     1       0.931  -0.645   3.605  0.00  0.00    +0.000 A 
ATOM     28  C   UNL     1       2.068  -1.419   3.463  0.00  0.00    +0.000 A 
ATOM     29  C   UNL     1       2.535  -1.736   2.201  0.00  0.00    +0.000 A 
ATOM     30  C   UNL     1       1.864  -1.282   1.081  0.00  0.00    +0.006 A 
ENDBRANCH  24  25
ENDBRANCH  18  24
ENDBRANCH   1  19
TORSDOF 4
