REMARK  Name = ZINC42150429
REMARK  12 active torsions:
REMARK  status: ('A' for Active; 'I' for Inactive)
REMARK    1  A    between atoms: C_1  and  C_2
REMARK    2  A    between atoms: C_2  and  C_3
REMARK    3  A    between atoms: C_2  and  C_4
REMARK    4  A    between atoms: C_2  and  N_21
REMARK    5  A    between atoms: C_4  and  N_5
REMARK    6  A    between atoms: C_6  and  C_8
REMARK    7  A    between atoms: C_8  and  C_9
REMARK    8  A    between atoms: C_9  and  C_10
REMARK    9  A    between atoms: C_10  and  N_11
REMARK   10  A    between atoms: N_14  and  C_15
REMARK   11  A    between atoms: N_21  and  C_22
REMARK   12  A    between atoms: N_21  and  C_23
REMARK                            x       y       z     vdW  Elec       q    Type
REMARK                         _______ _______ _______ _____ _____    ______ ____
ROOT
ATOM      1  C   UNL     1      -4.383  -4.082  -1.010  0.00  0.00    +0.028 C 
ENDROOT
BRANCH   1   2
ATOM      2  C   UNL     1      -2.914  -3.748  -0.742  0.00  0.00    +0.097 C 
BRANCH   2   4
ATOM      3  N   UNL     1      -1.558  -1.740  -0.246  0.00  0.00    -0.317 N 
ATOM      4  C   UNL     1      -2.771  -2.267  -0.505  0.00  0.00    +0.213 C 
ATOM      5  O   UNL     1      -3.748  -1.549  -0.546  0.00  0.00    -0.276 OA
ATOM      6  H   UNL     1      -0.777  -2.314  -0.213  0.00  0.00    +0.149 HD
BRANCH   3   7
ATOM      7  C   UNL     1      -1.419  -0.300  -0.016  0.00  0.00    +0.091 C 
BRANCH   7   9
ATOM      8  C   UNL     1       0.811  -0.220  -1.140  0.00  0.00    -0.008 C 
ATOM      9  C   UNL     1       0.060   0.047   0.166  0.00  0.00    -0.056 C 
ATOM     10  C   UNL     1       0.195   1.525   0.539  0.00  0.00    -0.008 C 
BRANCH   9  11
ATOM     11  N   UNL     1       0.629  -0.781   1.237  0.00  0.00    +0.380 N 
ATOM     12  C   UNL     1       2.044  -0.433   1.426  0.00  0.00    -0.096 C 
ATOM     13  C   UNL     1      -0.106  -0.541   2.486  0.00  0.00    -0.096 C 
ATOM     14  H   UNL     1       0.554  -1.756   0.985  0.00  0.00    -0.082 HD
ENDBRANCH   9  11
ENDBRANCH   7   9
ENDBRANCH   3   7
ENDBRANCH   2   4
ENDBRANCH   1   2
BRANCH   1  15
ATOM     15  C   UNL     1      -4.528  -5.587  -1.251  0.00  0.00    +0.106 C 
BRANCH  15  16
ATOM     16  N   UNL     1      -5.934  -5.907  -1.508  0.00  0.00    -0.299 N 
ATOM     17  C   UNL     1      -6.303  -7.180  -1.749  0.00  0.00    +0.300 C 
ATOM     18  O   UNL     1      -5.467  -8.064  -1.753  0.00  0.00    -0.253 OA
ATOM     19  N   UNL     1      -7.596  -7.475  -1.985  0.00  0.00    -0.297 N 
ATOM     20  H   UNL     1      -6.601  -5.202  -1.505  0.00  0.00    +0.150 HD
ATOM     21  H   UNL     1      -8.262  -6.770  -1.982  0.00  0.00    +0.151 HD
BRANCH  19  22
ATOM     22  C   UNL     1      -7.996  -8.860  -2.247  0.00  0.00    +0.074 C 
ATOM     23  C   UNL     1      -7.806  -9.174  -3.732  0.00  0.00    +0.022 C 
ATOM     24  C   UNL     1      -8.224 -10.620  -4.005  0.00  0.00    +0.002 C 
ATOM     25  C   UNL     1      -9.695 -10.805  -3.630  0.00  0.00    +0.000 C 
ATOM     26  C   UNL     1      -9.886 -10.491  -2.144  0.00  0.00    +0.002 C 
ATOM     27  C   UNL     1      -9.468  -9.045  -1.871  0.00  0.00    +0.022 C 
ENDBRANCH  19  22
ENDBRANCH  15  16
ENDBRANCH   1  15
TORSDOF 8
