REMARK  Name = ZINC13444189
REMARK  10 active torsions:
REMARK  status: ('A' for Active; 'I' for Inactive)
REMARK    1  A    between atoms: C_1  and  O_2
REMARK    2  A    between atoms: O_2  and  C_3
REMARK    3  A    between atoms: C_5  and  C_24
REMARK    4  A    between atoms: C_6  and  N_13
REMARK    5  A    between atoms: C_7  and  O_11
REMARK    6  A    between atoms: C_8  and  O_9
REMARK    7  A    between atoms: O_9  and  C_10
REMARK    8  A    between atoms: O_11  and  C_12
REMARK    9  A    between atoms: C_14  and  C_16
REMARK   10  A    between atoms: C_17  and  C_18
REMARK                            x       y       z     vdW  Elec       q    Type
REMARK                         _______ _______ _______ _____ _____    ______ ____
ROOT
ATOM      1  C   UNL     1       5.521  11.525   0.345  0.00  0.00    +0.166 A 
ATOM      2  C   UNL     1       4.205  11.258   0.663  0.00  0.00    +0.066 A 
ATOM      3  C   UNL     1       3.707   9.956   0.542  0.00  0.00    +0.092 A 
ATOM      4  C   UNL     1       4.550   8.925   0.096  0.00  0.00    +0.094 A 
ATOM      5  C   UNL     1       5.875   9.205  -0.217  0.00  0.00    +0.187 A 
ATOM      6  C   UNL     1       6.358  10.502  -0.097  0.00  0.00    +0.205 A 
ENDROOT
BRANCH   4   7
ATOM      7  N   UNL     1       4.061   7.625  -0.027  0.00  0.00    -0.278 N 
ATOM      8  C   UNL     1       4.741   6.595   0.515  0.00  0.00    +0.241 C 
ATOM      9  O   UNL     1       5.832   6.785   1.022  0.00  0.00    -0.270 OA
ATOM     10  H   UNL     1       3.232   7.461  -0.503  0.00  0.00    +0.155 HD
BRANCH   8  11
ATOM     11  C   UNL     1       4.188   5.295   0.496  0.00  0.00    +0.068 C 
ATOM     12  C   UNL     1       4.873   4.258   1.042  0.00  0.00    +0.020 C 
BRANCH  12  13
ATOM     13  C   UNL     1       4.319   2.956   1.023  0.00  0.00    +0.013 A 
ATOM     14  C   UNL     1       4.849   1.771   1.521  0.00  0.00    +0.016 A 
ATOM     15  C   UNL     1       4.090   0.638   1.372  0.00  0.00    +0.023 A 
ATOM     16  C   UNL     1       2.883   0.724   0.748  0.00  0.00    +0.055 A 
ATOM     17  S   UNL     1       2.759   2.407   0.354  0.00  0.00    -0.082 S 
ATOM     18 BR   UNL     1       1.640  -0.658   0.402  0.00  0.00    -0.043 Br
ENDBRANCH  12  13
ENDBRANCH   8  11
ENDBRANCH   4   7
BRANCH   3  19
ATOM     19  C   UNL     1       2.304   9.667   0.880  0.00  0.00    +0.389 C 
ATOM     20  O   UNL     1       1.901   8.520   0.876  0.00  0.00    -0.241 OA
ATOM     21  O   UNL     1       1.466  10.675   1.196  0.00  0.00    -0.241 OA
ENDBRANCH   3  19
BRANCH   1  23
ATOM     22  C   UNL     1       5.092  13.793   0.923  0.00  0.00    +0.277 C 
ATOM     23  O   UNL     1       6.003  12.792   0.464  0.00  0.00    -0.491 OA
ENDBRANCH   1  23
BRANCH   6  24
ATOM     24  O   UNL     1       7.653  10.773  -0.408  0.00  0.00    -0.488 OA
ATOM     25  C   UNL     1       8.611  10.660   0.647  0.00  0.00    +0.277 C 
ENDBRANCH   6  24
BRANCH   5  26
ATOM     26  O   UNL     1       6.698   8.209  -0.644  0.00  0.00    -0.490 OA
ATOM     27  C   UNL     1       6.755   7.975  -2.053  0.00  0.00    +0.277 C 
ENDBRANCH   5  26
TORSDOF 7
