REMARK  Name = ZINC01698775
REMARK  2 active torsions:
REMARK  status: ('A' for Active; 'I' for Inactive)
REMARK    1  A    between atoms: C_1  and  C_2
REMARK    2  A    between atoms: C_2  and  C_3
REMARK                            x       y       z     vdW  Elec       q    Type
REMARK                         _______ _______ _______ _____ _____    ______ ____
ROOT
ATOM      1  C   UNL     1       1.425   1.950  -0.001  0.00  0.00    +0.042 C 
ATOM      2  C   UNL     1      -0.018   1.443   0.010  0.00  0.00    +0.183 C 
ATOM      3  O   UNL     1       0.002  -0.004   0.002  0.00  0.00    -0.286 OA
ATOM      4  P   UNL     1       1.500  -0.680  -0.016  0.00  0.00    +0.478 P 
ATOM      5  O   UNL     1       1.536  -2.159  -0.015  0.00  0.00    -0.227 OA
ATOM      6  O   UNL     1       2.234   0.052   1.261  0.00  0.00    -0.286 OA
ATOM      7  C   UNL     1       2.178   1.498   1.251  0.00  0.00    +0.183 C 
ATOM      8  O   UNL     1       2.210   0.066  -1.298  0.00  0.00    -0.286 OA
ATOM      9  C   UNL     1       2.153   1.512  -1.272  0.00  0.00    +0.183 C 
ENDROOT
BRANCH   1  11
ATOM     10  C   UNL     1       2.817   4.025  -0.013  0.00  0.00    +0.004 C 
ATOM     11  C   UNL     1       1.387   3.480  -0.002  0.00  0.00    +0.010 C 
ENDBRANCH   1  11
TORSDOF 1
