REMARK  Name = ZINC20132202
REMARK  13 active torsions:
REMARK  status: ('A' for Active; 'I' for Inactive)
REMARK    1  A    between atoms: C_1  and  C_2
REMARK    2  A    between atoms: C_6  and  C_19
REMARK    3  A    between atoms: N_8  and  C_9
REMARK    4  A    between atoms: C_12  and  C_15
REMARK    5  A    between atoms: C_15  and  C_16
REMARK    6  A    between atoms: C_15  and  C_17
REMARK    7  A    between atoms: N_21  and  C_22
REMARK    8  A    between atoms: C_25  and  O_30
REMARK    9  A    between atoms: C_27  and  O_28
REMARK   10  A    between atoms: O_28  and  C_29
REMARK   11  A    between atoms: O_30  and  C_31
REMARK   12  A    between atoms: C_32  and  C_35
REMARK   13  A    between atoms: C_35  and  O_36
REMARK                            x       y       z     vdW  Elec       q    Type
REMARK                         _______ _______ _______ _____ _____    ______ ____
ROOT
ATOM      1  C   UNL     1       5.507   1.634   1.077  0.00  0.00    +0.069 C 
ATOM      2  C   UNL     1       5.466   3.083   1.492  0.00  0.00    +0.081 A 
ATOM      3  C   UNL     1       4.473   3.915   0.995  0.00  0.00    +0.159 A 
ATOM      4  C   UNL     1       4.454   5.263   1.398  0.00  0.00    +0.027 A 
ATOM      5  C   UNL     1       3.411   6.157   0.891  0.00  0.00    +0.030 A 
ATOM      6  C   UNL     1       2.339   5.576   0.244  0.00  0.00    +0.098 A 
ATOM      7  C   UNL     1       2.336   4.103   0.136  0.00  0.00    +0.212 A 
ATOM      8  N   UNL     1       1.208   3.435   0.035  0.00  0.00    -0.325 N 
ATOM      9  O   UNL     1       3.531   3.458   0.137  0.00  0.00    -0.437 OA
ATOM     10  C   UNL     1       5.442   5.712   2.283  0.00  0.00    +0.007 A 
ATOM     11  C   UNL     1       6.390   4.811   2.723  0.00  0.00    +0.117 A 
ATOM     12  N   UNL     1       6.374   3.552   2.323  0.00  0.00    -0.256 NA
ATOM     13  H   UNL     1       0.254   3.977  -0.047  0.00  0.00    +0.169 HD
ENDROOT
BRANCH   8  14
ATOM     14  C   UNL     1       1.221   2.068   0.034  0.00  0.00    +0.042 A 
ATOM     15  C   UNL     1       1.226   1.365   1.241  0.00  0.00    +0.026 A 
ATOM     16  C   UNL     1       1.239  -0.014   1.232  0.00  0.00    +0.006 A 
ATOM     17  C   UNL     1       1.245  -0.702   0.030  0.00  0.00    -0.045 A 
ATOM     18  C   UNL     1       1.239  -0.012  -1.169  0.00  0.00    +0.006 A 
ATOM     19  C   UNL     1       1.228   1.367  -1.175  0.00  0.00    +0.026 A 
BRANCH  17  20
ATOM     20  C   UNL     1       1.258  -2.208   0.029  0.00  0.00    +0.013 C 
ATOM     21  C   UNL     1       0.014  -2.729  -0.693  0.00  0.00    +0.012 C 
ATOM     22  C   UNL     1       2.512  -2.707  -0.693  0.00  0.00    +0.012 C 
ENDBRANCH  17  20
ENDBRANCH   8  14
BRANCH   6  23
ATOM     23  C   UNL     1       1.241   6.388  -0.311  0.00  0.00    +0.253 C 
ATOM     24  O   UNL     1       1.269   7.600  -0.207  0.00  0.00    -0.270 OA
ATOM     25  N   UNL     1       0.207   5.788  -0.933  0.00  0.00    -0.278 N 
ATOM     26  H   UNL     1       0.145   4.691  -0.963  0.00  0.00    +0.155 HD
BRANCH  25  27
ATOM     27  C   UNL     1      -0.791   6.564  -1.541  0.00  0.00    +0.076 A 
ATOM     28  C   UNL     1      -1.169   7.774  -0.979  0.00  0.00    +0.030 A 
ATOM     29  C   UNL     1      -2.148   8.541  -1.582  0.00  0.00    +0.047 A 
ATOM     30  C   UNL     1      -2.762   8.097  -2.744  0.00  0.00    +0.124 A 
ATOM     31  C   UNL     1      -2.392   6.885  -3.306  0.00  0.00    +0.093 A 
ATOM     32  C   UNL     1      -1.407   6.117  -2.708  0.00  0.00    +0.145 A 
BRANCH  32  33
ATOM     33  O   UNL     1      -1.043   4.928  -3.258  0.00  0.00    -0.493 OA
ATOM     34  C   UNL     1      -1.717   4.532  -4.454  0.00  0.00    +0.277 C 
ENDBRANCH  32  33
BRANCH  30  35
ATOM     35  O   UNL     1      -3.729   8.851  -3.331  0.00  0.00    -0.495 OA
ATOM     36  C   UNL     1      -4.061  10.089  -2.698  0.00  0.00    +0.277 C 
ENDBRANCH  30  35
ENDBRANCH  25  27
ENDBRANCH   6  23
BRANCH  10  37
ATOM     37  C   UNL     1       5.470   7.146   2.745  0.00  0.00    +0.193 C 
BRANCH  37  38
ATOM     38  O   UNL     1       6.570   7.338   3.636  0.00  0.00    -0.390 OA
ATOM     39  H   UNL     1       6.753   8.329   4.079  0.00  0.00    +0.210 HD
ENDBRANCH  37  38
ENDBRANCH  10  37
TORSDOF 8
