REMARK  Name = ZINC39598745
REMARK  7 active torsions:
REMARK  status: ('A' for Active; 'I' for Inactive)
REMARK    1  A    between atoms: C_1  and  C_2
REMARK    2  A    between atoms: C_2  and  N_3
REMARK    3  A    between atoms: C_4  and  C_6
REMARK    4  A    between atoms: C_17  and  C_19
REMARK    5  A    between atoms: C_21  and  C_26
REMARK    6  A    between atoms: N_23  and  C_24
REMARK    7  A    between atoms: C_24  and  C_25
REMARK                            x       y       z     vdW  Elec       q    Type
REMARK                         _______ _______ _______ _____ _____    ______ ____
ROOT
ATOM      1  C   UNL     1       1.637  -2.434  -2.792  0.00  0.00    +0.100 C 
ATOM      2  C   UNL     1       3.141  -2.088  -2.709  0.00  0.00    +0.121 C 
ATOM      3  N   UNL     1       3.750  -3.239  -2.001  0.00  0.00    -0.295 N 
ATOM      4  C   UNL     1       3.043  -4.423  -2.546  0.00  0.00    +0.115 C 
ATOM      5  C   UNL     1       1.577  -3.967  -2.689  0.00  0.00    -0.004 C 
ATOM      6  C   UNL     1       0.961  -4.559  -3.953  0.00  0.00    -0.010 C 
ATOM      7  C   UNL     1       0.859  -6.079  -3.802  0.00  0.00    -0.082 C 
ATOM      8  N   UNL     1       0.032  -6.402  -2.633  0.00  0.00    +0.379 N 
ATOM      9  C   UNL     1       0.679  -5.910  -1.411  0.00  0.00    -0.082 C 
ATOM     10  C   UNL     1       0.774  -4.383  -1.460  0.00  0.00    -0.010 C 
ATOM     11  C   UNL     1       4.727  -3.215  -1.073  0.00  0.00    +0.266 C 
ATOM     12  O   UNL     1       5.186  -4.257  -0.646  0.00  0.00    -0.268 OA
ATOM     13  H   UNL     1      -0.873  -5.966  -2.732  0.00  0.00    -0.086 HD
ATOM     14  H   UNL     1      -0.085  -7.402  -2.571  0.00  0.00    -0.086 HD
ENDROOT
BRANCH  11  15
ATOM     15  C   UNL     1       5.238  -1.928  -0.577  0.00  0.00    +0.138 A 
ATOM     16  C   UNL     1       4.816  -1.246   0.552  0.00  0.00    +0.071 A 
ATOM     17  C   UNL     1       5.597  -0.088   0.597  0.00  0.00    +0.075 A 
ATOM     18  N   UNL     1       6.407  -0.109  -0.431  0.00  0.00    -0.175 NA
ATOM     19  N   UNL     1       6.229  -1.169  -1.133  0.00  0.00    -0.258 N 
ATOM     20  C   UNL     1       5.522   0.993   1.645  0.00  0.00    +0.069 C 
ATOM     21 BR   UNL     1       3.469  -1.768   1.772  0.00  0.00    -0.046 Br
BRANCH  19  22
ATOM     22  C   UNL     1       6.973  -1.511  -2.348  0.00  0.00    +0.141 C 
ATOM     23  C   UNL     1       6.335  -0.811  -3.550  0.00  0.00    +0.029 C 
ENDBRANCH  19  22
ENDBRANCH  11  15
BRANCH   1  25
ATOM     24  N   UNL     1      -0.440  -1.599  -1.741  0.00  0.00    -0.315 N 
ATOM     25  C   UNL     1       0.889  -1.801  -1.647  0.00  0.00    +0.218 C 
ATOM     26  O   UNL     1       1.483  -1.474  -0.642  0.00  0.00    -0.275 OA
ATOM     27  H   UNL     1      -0.903  -1.792  -2.571  0.00  0.00    +0.149 HD
BRANCH  24  29
ATOM     28  C   UNL     1      -2.664  -0.949  -0.958  0.00  0.00    +0.024 C 
ATOM     29  C   UNL     1      -1.186  -1.085  -0.589  0.00  0.00    +0.101 C 
ENDBRANCH  24  29
ENDBRANCH   1  25
TORSDOF 4
