REMARK  Name = ZINC02366757
REMARK  10 active torsions:
REMARK  status: ('A' for Active; 'I' for Inactive)
REMARK    1  A    between atoms: C_1  and  C_2
REMARK    2  A    between atoms: C_2  and  O_3
REMARK    3  A    between atoms: O_3  and  C_4
REMARK    4  A    between atoms: C_9  and  C_10
REMARK    5  A    between atoms: N_11  and  N_12
REMARK    6  A    between atoms: C_13  and  C_15
REMARK    7  A    between atoms: C_16  and  C_26
REMARK    8  A    between atoms: C_26  and  N_50
REMARK    9  A    between atoms: C_27  and  N_50
REMARK   10  A    between atoms: C_28  and  N_50
REMARK                            x       y       z     vdW  Elec       q    Type
REMARK                         _______ _______ _______ _____ _____    ______ ____
ROOT
ATOM      1  C   UNL     1       4.844   8.056   0.001  0.00  0.00    +0.170 A 
ATOM      2  C   UNL     1       4.959   9.418   0.007  0.00  0.00    +0.063 A 
ATOM      3  N   UNL     1       6.281   9.698  -0.003  0.00  0.00    -0.194 N 
ATOM      4  N   UNL     1       6.955   8.468  -0.015  0.00  0.00    -0.058 NA
ATOM      5  N   UNL     1       6.079   7.525  -0.008  0.00  0.00    -0.124 NA
ATOM      6  C   UNL     1       6.865  10.969  -0.002  0.00  0.00    +0.240 A 
ATOM      7  C   UNL     1       8.303  11.253  -0.013  0.00  0.00    +0.206 A 
ATOM      8  N   UNL     1       8.466  12.547  -0.009  0.00  0.00    -0.032 NA
ATOM      9  O   UNL     1       7.182  13.146   0.004  0.00  0.00    -0.239 OA
ATOM     10  N   UNL     1       6.223  12.103   0.003  0.00  0.00    -0.027 NA
ATOM     11  N   UNL     1       9.320  10.304  -0.024  0.00  0.00    -0.337 N 
ATOM     12  H   UNL     1       9.101   9.359  -0.026  0.00  0.00    +0.144 HD
ATOM     13  H   UNL     1      10.248  10.588  -0.031  0.00  0.00    +0.144 HD
ENDROOT
BRANCH   1  15
ATOM     14  N   UNL     1       3.601   5.951   0.001  0.00  0.00    -0.202 N 
ATOM     15  C   UNL     1       3.579   7.298   0.008  0.00  0.00    +0.285 C 
ATOM     16  O   UNL     1       2.516   7.889   0.021  0.00  0.00    -0.267 OA
ATOM     17  H   UNL     1       4.448   5.480  -0.010  0.00  0.00    +0.178 HD
BRANCH  14  19
ATOM     18  C   UNL     1       2.420   3.933   0.001  0.00  0.00    +0.142 C 
ATOM     19  N   UNL     1       2.399   5.231   0.008  0.00  0.00    -0.187 NA
BRANCH  18  25
ATOM     20  C   UNL     1      -0.071   3.852   0.023  0.00  0.00    +0.129 A 
ATOM     21  C   UNL     1      -1.254   3.131   0.031  0.00  0.00    +0.046 A 
ATOM     22  C   UNL     1      -1.222   1.749   0.017  0.00  0.00    +0.004 A 
ATOM     23  C   UNL     1      -0.013   1.076   0.008  0.00  0.00    +0.001 A 
ATOM     24  C   UNL     1       1.174   1.779   0.000  0.00  0.00    +0.013 A 
ATOM     25  C   UNL     1       1.156   3.175   0.008  0.00  0.00    +0.036 A 
BRANCH  20  26
ATOM     26  O   UNL     1      -0.101   5.210   0.032  0.00  0.00    -0.492 OA
BRANCH  26  28
ATOM     27  C   UNL     1      -1.221   7.351   0.054  0.00  0.00    +0.048 C 
ATOM     28  C   UNL     1      -1.388   5.830   0.047  0.00  0.00    +0.226 C 
ENDBRANCH  26  28
ENDBRANCH  20  26
ENDBRANCH  18  25
ENDBRANCH  14  19
ENDBRANCH   1  15
BRANCH   2  29
ATOM     29  C   UNL     1       3.829  10.415   0.022  0.00  0.00    -0.021 C 
BRANCH  29  32
ATOM     30  C   UNL     1       2.877   9.580  -2.041  0.00  0.00    -0.096 C 
ATOM     31  C   UNL     1       2.522  11.885  -1.389  0.00  0.00    -0.096 C 
ATOM     32  N   UNL     1       3.474  10.755  -1.372  0.00  0.00    +0.380 N 
ATOM     33  H   UNL     1       4.326  11.028  -1.876  0.00  0.00    -0.082 HD
ENDBRANCH  29  32
ENDBRANCH   2  29
TORSDOF 7
