REMARK  Name = ZINC35709722
REMARK  8 active torsions:
REMARK  status: ('A' for Active; 'I' for Inactive)
REMARK    1  A    between atoms: C_1  and  C_2
REMARK    2  A    between atoms: C_3  and  C_30
REMARK    3  A    between atoms: C_4  and  C_23
REMARK    4  A    between atoms: C_7  and  C_12
REMARK    5  A    between atoms: C_13  and  N_15
REMARK    6  A    between atoms: N_15  and  C_16
REMARK    7  A    between atoms: C_16  and  C_17
REMARK    8  A    between atoms: N_32  and  C_33
REMARK                            x       y       z     vdW  Elec       q    Type
REMARK                         _______ _______ _______ _____ _____    ______ ____
ROOT
ATOM      1  C   UNL     1      -0.212   1.485   0.134  0.00  0.00    +0.066 C 
ATOM      2  C   UNL     1      -0.141  -0.018   0.051  0.00  0.00    +0.051 C 
ATOM      3  C   UNL     1      -1.306  -0.758   0.006  0.00  0.00    +0.060 C 
ATOM      4  C   UNL     1      -1.183  -2.263  -0.077  0.00  0.00    +0.148 C 
ATOM      5  N   UNL     1       0.192  -2.829  -0.103  0.00  0.00    -0.267 N 
ATOM      6  C   UNL     1       0.540  -4.163  -0.175  0.00  0.00    +0.048 C 
ATOM      7  C   UNL     1       1.857  -4.468  -0.188  0.00  0.00    +0.072 C 
ATOM      8  S   UNL     1       2.609  -2.855  -0.095  0.00  0.00    -0.060 S 
ATOM      9  C   UNL     1       1.214  -1.923  -0.049  0.00  0.00    +0.166 C 
ATOM     10  N   UNL     1       1.038  -0.620   0.017  0.00  0.00    -0.230 NA
ENDROOT
BRANCH   4  11
ATOM     11  C   UNL     1      -1.895  -2.719  -1.324  0.00  0.00    -0.022 A 
ATOM     12  C   UNL     1      -3.027  -3.507  -1.225  0.00  0.00    +0.007 A 
ATOM     13  C   UNL     1      -3.680  -3.925  -2.369  0.00  0.00    +0.020 A 
ATOM     14  C   UNL     1      -3.202  -3.555  -3.613  0.00  0.00    +0.041 A 
ATOM     15  C   UNL     1      -2.069  -2.766  -3.712  0.00  0.00    +0.020 A 
ATOM     16  C   UNL     1      -1.420  -2.344  -2.567  0.00  0.00    +0.007 A 
ATOM     17 CL   UNL     1      -4.022  -4.080  -5.050  0.00  0.00    -0.084 Cl
ENDBRANCH   4  11
BRANCH   3  18
ATOM     18  C   UNL     1      -2.562  -0.134   0.036  0.00  0.00    +0.244 C 
ATOM     19  O   UNL     1      -2.639   1.077   0.156  0.00  0.00    -0.270 OA
ATOM     20  N   UNL     1      -3.684  -0.873  -0.068  0.00  0.00    -0.315 N 
ATOM     21  C   UNL     1      -4.989  -0.214  -0.171  0.00  0.00    +0.128 C 
ATOM     22  H   UNL     1      -3.628  -1.841  -0.076  0.00  0.00    +0.149 HD
ENDBRANCH   3  18
BRANCH   6  23
ATOM     23  C   UNL     1      -0.485  -5.215  -0.237  0.00  0.00    +0.091 C 
ATOM     24  C   UNL     1      -0.122  -6.512  -0.198  0.00  0.00    +0.239 C 
ATOM     25  O   UNL     1       1.191  -6.849  -0.208  0.00  0.00    -0.271 OA
BRANCH  24  26
ATOM     26  N   UNL     1      -1.091  -7.500  -0.146  0.00  0.00    -0.309 N 
ATOM     27  H   UNL     1      -2.029  -7.264  -0.212  0.00  0.00    +0.149 HD
BRANCH  26  28
ATOM     28  C   UNL     1      -0.698  -8.903   0.008  0.00  0.00    +0.136 C 
BRANCH  28  29
ATOM     29  C   UNL     1      -1.938  -9.794  -0.088  0.00  0.00    +0.135 C 
ATOM     30  C   UNL     1      -1.550 -11.281   0.107  0.00  0.00    +0.035 C 
ATOM     31  C   UNL     1      -2.893 -11.873   0.613  0.00  0.00    +0.031 C 
ATOM     32  C   UNL     1      -3.477 -10.704   1.436  0.00  0.00    +0.160 C 
ATOM     33  O   UNL     1      -2.849  -9.498   0.983  0.00  0.00    -0.375 OA
ENDBRANCH  28  29
ENDBRANCH  26  28
ENDBRANCH  24  26
ENDBRANCH   6  23
TORSDOF 6
