REMARK  Name = ZINC46311191
REMARK  11 active torsions:
REMARK  status: ('A' for Active; 'I' for Inactive)
REMARK    1  A    between atoms: C_1  and  C_2
REMARK    2  A    between atoms: C_2  and  C_3
REMARK    3  A    between atoms: C_3  and  C_5
REMARK    4  A    between atoms: C_3  and  N_18
REMARK    5  A    between atoms: C_5  and  N_6
REMARK    6  A    between atoms: N_9  and  N_10
REMARK    7  A    between atoms: C_11  and  O_13
REMARK    8  A    between atoms: O_13  and  C_14
REMARK    9  A    between atoms: C_14  and  C_15
REMARK   10  A    between atoms: C_14  and  C_16
REMARK   11  A    between atoms: C_14  and  C_17
REMARK                            x       y       z     vdW  Elec       q    Type
REMARK                         _______ _______ _______ _____ _____    ______ ____
ROOT
ATOM      1  C   UNL     1       0.794  -2.058   1.148  0.00  0.00    +0.090 C 
ENDROOT
BRANCH   1   2
ATOM      2  N   UNL     1       1.576  -2.609   2.258  0.00  0.00    -0.300 N 
ATOM      3  C   UNL     1       1.744  -3.942   2.367  0.00  0.00    +0.316 C 
ATOM      4  O   UNL     1       1.246  -4.686   1.545  0.00  0.00    -0.251 OA
ATOM      5  N   UNL     1       2.463  -4.449   3.388  0.00  0.00    -0.216 N 
ATOM      6  H   UNL     1       1.974  -2.015   2.913  0.00  0.00    +0.150 HD
ATOM      7  H   UNL     1       2.584  -5.408   3.466  0.00  0.00    +0.174 HD
BRANCH   5   8
ATOM      8  N   UNL     1       3.037  -3.591   4.335  0.00  0.00    -0.198 N 
ATOM      9  C   UNL     1       3.757  -4.098   5.355  0.00  0.00    +0.417 C 
ATOM     10  O   UNL     1       4.254  -3.353   6.177  0.00  0.00    -0.225 OA
ATOM     11  H   UNL     1       2.917  -2.631   4.256  0.00  0.00    +0.176 HD
BRANCH   9  12
ATOM     12  O   UNL     1       3.924  -5.429   5.464  0.00  0.00    -0.444 OA
BRANCH  12  13
ATOM     13  C   UNL     1       4.698  -5.897   6.571  0.00  0.00    +0.107 C 
ATOM     14  C   UNL     1       4.037  -5.457   7.878  0.00  0.00    +0.055 C 
ATOM     15  C   UNL     1       4.778  -7.425   6.528  0.00  0.00    +0.055 C 
ATOM     16  C   UNL     1       6.109  -5.311   6.490  0.00  0.00    +0.055 C 
ENDBRANCH  12  13
ENDBRANCH   9  12
ENDBRANCH   5   8
ENDBRANCH   1   2
BRANCH   1  17
ATOM     17  C   UNL     1       0.883  -0.530   1.171  0.00  0.00    -0.051 C 
BRANCH  17  18
ATOM     18  N   UNL     1       2.210  -0.110   0.699  0.00  0.00    +0.385 N 
ATOM     19  C   UNL     1       2.487  -0.730  -0.606  0.00  0.00    -0.073 C 
ATOM     20  C   UNL     1       3.714  -0.052  -1.217  0.00  0.00    +0.017 C 
ATOM     21  C   UNL     1       4.839  -0.034  -0.214  0.00  0.00    -0.048 A 
ATOM     22  C   UNL     1       6.127   0.214  -0.664  0.00  0.00    +0.004 A 
ATOM     23  C   UNL     1       7.182   0.242   0.226  0.00  0.00    +0.000 A 
ATOM     24  C   UNL     1       6.954   0.021   1.571  0.00  0.00    +0.000 A 
ATOM     25  C   UNL     1       5.672  -0.227   2.020  0.00  0.00    +0.002 A 
ATOM     26  C   UNL     1       4.611  -0.257   1.127  0.00  0.00    -0.061 A 
ATOM     27  C   UNL     1       3.231  -0.541   1.659  0.00  0.00    -0.042 C 
ATOM     28  H   UNL     1       2.233   0.894   0.609  0.00  0.00    -0.081 HD
ENDBRANCH  17  18
BRANCH  17  30
ATOM     29  C   UNL     1      -0.154   1.584   0.338  0.00  0.00    +0.002 C 
ATOM     30  C   UNL     1      -0.193   0.057   0.256  0.00  0.00    -0.017 C 
ENDBRANCH  17  30
ENDBRANCH   1  17
TORSDOF 7
