REMARK  Name = ZINC36863495
REMARK  9 active torsions:
REMARK  status: ('A' for Active; 'I' for Inactive)
REMARK    1  A    between atoms: C_1  and  C_2
REMARK    2  A    between atoms: C_2  and  N_3
REMARK    3  A    between atoms: C_4  and  C_6
REMARK    4  A    between atoms: C_6  and  C_8
REMARK    5  A    between atoms: C_6  and  N_9
REMARK    6  A    between atoms: C_10  and  C_12
REMARK    7  A    between atoms: C_14  and  N_19
REMARK    8  A    between atoms: N_16  and  C_17
REMARK    9  A    between atoms: C_17  and  C_18
REMARK                            x       y       z     vdW  Elec       q    Type
REMARK                         _______ _______ _______ _____ _____    ______ ____
ROOT
ATOM      1  N   UNL     1       1.793  -3.751  -2.328  0.00  0.00    -0.299 N 
ATOM      2  C   UNL     1       2.680  -4.400  -3.107  0.00  0.00    +0.261 C 
ATOM      3  O   UNL     1       3.488  -3.770  -3.765  0.00  0.00    -0.269 OA
ATOM      4  H   UNL     1       1.103  -4.248  -1.861  0.00  0.00    +0.150 HD
ENDROOT
BRANCH   2   5
ATOM      5  C   UNL     1       2.672  -5.865  -3.164  0.00  0.00    +0.106 A 
ATOM      6  C   UNL     1       1.758  -6.699  -2.554  0.00  0.00    +0.055 A 
ATOM      7  C   UNL     1       2.124  -8.015  -2.870  0.00  0.00    +0.043 A 
ATOM      8  C   UNL     1       3.234  -7.960  -3.652  0.00  0.00    +0.109 A 
ATOM      9  N   UNL     1       3.572  -6.657  -3.841  0.00  0.00    -0.342 N 
BRANCH   7  10
ATOM     10  N   UNL     1       1.461  -9.183  -2.451  0.00  0.00    -0.357 N 
ATOM     11  H   UNL     1       0.671  -9.119  -1.891  0.00  0.00    +0.142 HD
ATOM     12  H   UNL     1       1.793 -10.053  -2.723  0.00  0.00    +0.142 HD
ENDBRANCH   7  10
BRANCH   9  13
ATOM     13  C   UNL     1       4.708  -6.175  -4.631  0.00  0.00    +0.118 C 
ATOM     14  C   UNL     1       5.892  -5.895  -3.704  0.00  0.00    +0.027 C 
ENDBRANCH   9  13
ENDBRANCH   2   5
BRANCH   1  15
ATOM     15  C   UNL     1       1.871  -2.295  -2.185  0.00  0.00    +0.156 C 
ATOM     16  C   UNL     1       1.121  -1.629  -3.340  0.00  0.00    +0.038 C 
BRANCH  15  18
ATOM     17  N   UNL     1       1.203  -0.583  -0.530  0.00  0.00    -0.314 N 
ATOM     18  C   UNL     1       1.246  -1.884  -0.877  0.00  0.00    +0.233 C 
ATOM     19  O   UNL     1       0.781  -2.725  -0.136  0.00  0.00    -0.274 OA
ATOM     20  H   UNL     1       1.574   0.089  -1.122  0.00  0.00    +0.149 HD
BRANCH  17  22
ATOM     21  C   UNL     1       0.676   1.337   0.891  0.00  0.00    +0.024 C 
ATOM     22  C   UNL     1       0.595  -0.183   0.742  0.00  0.00    +0.101 C 
ENDBRANCH  17  22
ENDBRANCH  15  18
ENDBRANCH   1  15
TORSDOF 6
