REMARK  Name = ZINC25258993
REMARK  9 active torsions:
REMARK  status: ('A' for Active; 'I' for Inactive)
REMARK    1  A    between atoms: C_1  and  C_2
REMARK    2  A    between atoms: C_2  and  C_3
REMARK    3  A    between atoms: C_3  and  C_4
REMARK    4  A    between atoms: C_4  and  C_6
REMARK    5  A    between atoms: C_4  and  N_21
REMARK    6  A    between atoms: N_8  and  N_9
REMARK    7  A    between atoms: C_10  and  C_12
REMARK    8  A    between atoms: N_24  and  C_25
REMARK    9  A    between atoms: C_25  and  C_26
REMARK                            x       y       z     vdW  Elec       q    Type
REMARK                         _______ _______ _______ _____ _____    ______ ____
ROOT
ATOM      1  C   UNL     1      -3.310  10.374  -4.790  0.00  0.00    +0.162 C 
ENDROOT
BRANCH   1   2
ATOM      2  N   UNL     1      -3.615  10.449  -6.221  0.00  0.00    -0.288 N 
ATOM      3  C   UNL     1      -4.425  11.420  -6.687  0.00  0.00    +0.300 C 
ATOM      4  O   UNL     1      -4.903  12.234  -5.920  0.00  0.00    -0.253 OA
ATOM      5  N   UNL     1      -4.705  11.489  -8.004  0.00  0.00    -0.295 N 
ATOM      6  H   UNL     1      -3.183   9.713  -6.914  0.00  0.00    +0.151 HD
ATOM      7  H   UNL     1      -4.273  10.753  -8.697  0.00  0.00    +0.151 HD
BRANCH   5   8
ATOM      8  C   UNL     1      -5.585  12.545  -8.511  0.00  0.00    +0.141 C 
BRANCH   8   9
ATOM      9  C   UNL     1      -5.736  12.400 -10.003  0.00  0.00    -0.030 A 
ATOM     10  C   UNL     1      -4.859  13.050 -10.852  0.00  0.00    +0.008 A 
ATOM     11  C   UNL     1      -4.993  12.914 -12.221  0.00  0.00    +0.038 A 
ATOM     12  C   UNL     1      -6.011  12.134 -12.742  0.00  0.00    +0.123 A 
ATOM     13  C   UNL     1      -6.892  11.488 -11.891  0.00  0.00    +0.038 A 
ATOM     14  C   UNL     1      -6.753  11.621 -10.523  0.00  0.00    +0.008 A 
ATOM     15  F   UNL     1      -6.146  12.004 -14.080  0.00  0.00    -0.205 F 
ENDBRANCH   8   9
ENDBRANCH   5   8
ENDBRANCH   1   2
BRANCH   1  16
ATOM     16  C   UNL     1      -2.942   8.958  -4.428  0.00  0.00    +0.249 C 
ATOM     17  O   UNL     1      -2.936   8.097  -5.282  0.00  0.00    -0.272 OA
ATOM     18  N   UNL     1      -2.621   8.649  -3.156  0.00  0.00    -0.233 N 
ATOM     19  H   UNL     1      -2.628   9.431  -2.382  0.00  0.00    +0.173 HD
BRANCH  18  20
ATOM     20  N   UNL     1      -2.279   7.333  -2.820  0.00  0.00    -0.230 N 
ATOM     21  C   UNL     1      -1.958   7.024  -1.548  0.00  0.00    +0.267 C 
ATOM     22  O   UNL     1      -1.965   7.889  -0.691  0.00  0.00    -0.268 OA
ATOM     23  H   UNL     1      -2.273   6.551  -3.594  0.00  0.00    +0.173 HD
BRANCH  21  24
ATOM     24  C   UNL     1      -1.601   5.647  -1.196  0.00  0.00    +0.076 A 
ATOM     25  C   UNL     1      -1.244   5.126   0.034  0.00  0.00    +0.024 A 
ATOM     26  C   UNL     1      -0.947   3.775   0.111  0.00  0.00    -0.036 A 
ATOM     27  C   UNL     1      -1.031   3.059  -1.050  0.00  0.00    -0.006 A 
ATOM     28  S   UNL     1      -1.511   4.204  -2.244  0.00  0.00    -0.088 S 
ATOM     29  C   UNL     1      -0.761   1.597  -1.231  0.00  0.00    +0.043 C 
ATOM     30  C   UNL     1      -0.013   1.086   0.008  0.00  0.00    +0.005 C 
ATOM     31  C   UNL     1      -0.735   1.583   1.263  0.00  0.00    +0.005 C 
ATOM     32  C   UNL     1      -0.543   3.091   1.415  0.00  0.00    +0.036 C 
ENDBRANCH  21  24
ENDBRANCH  18  20
ENDBRANCH   1  16
BRANCH   1  33
ATOM     33  C   UNL     1      -2.138  11.303  -4.468  0.00  0.00    +0.031 C 
BRANCH  33  35
ATOM     34  C   UNL     1      -1.382  13.684  -4.396  0.00  0.00    +0.004 C 
ATOM     35  C   UNL     1      -2.555  12.755  -4.718  0.00  0.00    -0.001 C 
ENDBRANCH  33  35
ENDBRANCH   1  33
TORSDOF 8
