REMARK  Name = ZINC63663935
REMARK  8 active torsions:
REMARK  status: ('A' for Active; 'I' for Inactive)
REMARK    1  A    between atoms: C_1  and  C_2
REMARK    2  A    between atoms: C_4  and  C_13
REMARK    3  A    between atoms: C_13  and  C_14
REMARK    4  A    between atoms: C_14  and  N_15
REMARK    5  A    between atoms: N_15  and  C_16
REMARK    6  A    between atoms: C_16  and  N_18
REMARK    7  A    between atoms: N_18  and  C_19
REMARK    8  A    between atoms: C_22  and  C_25
REMARK                            x       y       z     vdW  Elec       q    Type
REMARK                         _______ _______ _______ _____ _____    ______ ____
ROOT
ATOM      1  N   UNL     1      -4.977  -0.491  -1.351  0.00  0.00    -0.326 N 
ATOM      2  H   UNL     1      -4.682  -0.181  -2.221  0.00  0.00    +0.148 HD
ENDROOT
BRANCH   1   3
ATOM      3  C   UNL     1      -6.197  -1.049  -1.214  0.00  0.00    +0.135 C 
ATOM      4  S   UNL     1      -6.719  -1.597   0.322  0.00  0.00    -0.019 S 
BRANCH   3   5
ATOM      5  N   UNL     1      -7.006  -1.174  -2.284  0.00  0.00    -0.297 N 
ATOM      6  H   UNL     1      -6.736  -0.808  -3.141  0.00  0.00    +0.154 HD
BRANCH   5   7
ATOM      7  C   UNL     1      -8.234  -1.831  -2.160  0.00  0.00    +0.033 A 
ATOM      8  C   UNL     1      -9.067  -1.552  -1.084  0.00  0.00    +0.024 A 
ATOM      9  C   UNL     1     -10.280  -2.203  -0.965  0.00  0.00    +0.014 A 
ATOM     10  C   UNL     1     -10.664  -3.131  -1.914  0.00  0.00    +0.055 A 
ATOM     11  C   UNL     1      -9.837  -3.412  -2.987  0.00  0.00    +0.014 A 
ATOM     12  C   UNL     1      -8.626  -2.760  -3.115  0.00  0.00    +0.024 A 
BRANCH  10  13
ATOM     13  C   UNL     1     -11.987  -3.840  -1.780  0.00  0.00    +0.417 C 
ATOM     14  F   UNL     1     -12.979  -3.104  -2.437  0.00  0.00    -0.166 F 
ATOM     15  F   UNL     1     -11.895  -5.113  -2.353  0.00  0.00    -0.166 F 
ATOM     16  F   UNL     1     -12.316  -3.961  -0.426  0.00  0.00    -0.166 F 
ENDBRANCH  10  13
ENDBRANCH   5   7
ENDBRANCH   3   5
ENDBRANCH   1   3
BRANCH   1  17
ATOM     17  C   UNL     1      -4.098  -0.355  -0.188  0.00  0.00    +0.107 C 
BRANCH  17  18
ATOM     18  C   UNL     1      -2.785   0.303  -0.615  0.00  0.00    +0.052 C 
BRANCH  18  21
ATOM     19  C   UNL     1      -0.538   2.504   0.168  0.00  0.00    +0.035 C 
ATOM     20  C   UNL     1      -0.491   1.039   0.608  0.00  0.00    +0.103 C 
ATOM     21  C   UNL     1      -1.881   0.443   0.583  0.00  0.00    -0.037 C 
ATOM     22  C   UNL     1      -2.148   0.061   1.853  0.00  0.00    +0.002 A 
ATOM     23  C   UNL     1      -3.315  -0.575   2.474  0.00  0.00    +0.048 A 
ATOM     24  C   UNL     1      -3.289  -0.841   3.802  0.00  0.00    +0.124 A 
ATOM     25  C   UNL     1      -2.174  -0.525   4.595  0.00  0.00    +0.040 A 
ATOM     26  C   UNL     1      -1.066   0.060   4.094  0.00  0.00    +0.029 A 
ATOM     27  C   UNL     1      -0.986   0.385   2.711  0.00  0.00    +0.043 A 
ATOM     28  N   UNL     1      -0.036   0.944   2.000  0.00  0.00    -0.378 N 
ATOM     29  F   UNL     1      -4.362  -1.426   4.377  0.00  0.00    -0.205 F 
ATOM     30  H   UNL     1       0.823   1.244   2.336  0.00  0.00    +0.160 HD
ENDBRANCH  18  21
ENDBRANCH  17  18
ENDBRANCH   1  17
TORSDOF 7
