REMARK  Name = ZINC59158986
REMARK  11 active torsions:
REMARK  status: ('A' for Active; 'I' for Inactive)
REMARK    1  A    between atoms: C_1  and  C_2
REMARK    2  A    between atoms: C_4  and  O_23
REMARK    3  A    between atoms: C_5  and  C_20
REMARK    4  A    between atoms: C_7  and  C_8
REMARK    5  A    between atoms: N_9  and  N_10
REMARK    6  A    between atoms: C_11  and  C_13
REMARK    7  A    between atoms: C_15  and  C_19
REMARK    8  A    between atoms: C_17  and  C_18
REMARK    9  A    between atoms: C_20  and  C_21
REMARK   10  A    between atoms: C_20  and  C_22
REMARK   11  A    between atoms: O_23  and  C_24
REMARK                            x       y       z     vdW  Elec       q    Type
REMARK                         _______ _______ _______ _____ _____    ______ ____
ROOT
ATOM      1  C   UNL     1       0.242   0.020   2.479  0.00  0.00    +0.138 C 
ATOM      2  N   UNL     1       0.132   1.313   2.500  0.00  0.00    -0.187 NA
ENDROOT
BRANCH   1   9
ATOM      3  C   UNL     1      -0.477   1.459   0.076  0.00  0.00    +0.044 C 
ATOM      4  C   UNL     1      -0.218  -0.025   0.034  0.00  0.00    -0.038 A 
ATOM      5  C   UNL     1      -0.318  -0.709  -1.159  0.00  0.00    +0.050 A 
ATOM      6  C   UNL     1      -0.079  -2.077  -1.199  0.00  0.00    +0.124 A 
ATOM      7  C   UNL     1       0.261  -2.761  -0.039  0.00  0.00    -0.003 A 
ATOM      8  C   UNL     1       0.362  -2.086   1.157  0.00  0.00    +0.017 A 
ATOM      9  C   UNL     1       0.129  -0.709   1.202  0.00  0.00    -0.002 A 
BRANCH   7  10
ATOM     10  C   UNL     1       0.519  -4.245  -0.089  0.00  0.00    +0.016 C 
ATOM     11  C   UNL     1       1.948  -4.531   0.377  0.00  0.00    +0.012 C 
ATOM     12  C   UNL     1      -0.470  -4.966   0.828  0.00  0.00    +0.012 C 
ENDBRANCH   7  10
BRANCH   6  13
ATOM     13  O   UNL     1      -0.179  -2.747  -2.377  0.00  0.00    -0.495 OA
ATOM     14  C   UNL     1      -0.533  -1.982  -3.530  0.00  0.00    +0.277 C 
ENDBRANCH   6  13
ENDBRANCH   1   9
BRANCH   2  15
ATOM     15  N   UNL     1       0.239   2.005   3.713  0.00  0.00    -0.203 N 
ATOM     16  C   UNL     1       0.126   3.348   3.736  0.00  0.00    +0.267 C 
ATOM     17  O   UNL     1      -0.071   3.959   2.702  0.00  0.00    -0.268 OA
ATOM     18  H   UNL     1       0.396   1.518   4.537  0.00  0.00    +0.178 HD
BRANCH  16  19
ATOM     19  C   UNL     1       0.239   4.076   5.012  0.00  0.00    +0.079 A 
ATOM     20  C   UNL     1       0.479   3.502   6.344  0.00  0.00    +0.057 A 
ATOM     21  C   UNL     1       0.504   4.540   7.194  0.00  0.00    +0.103 A 
ATOM     22  O   UNL     1       0.302   5.676   6.507  0.00  0.00    -0.464 OA
ATOM     23  C   UNL     1       0.148   5.423   5.203  0.00  0.00    +0.114 A 
ATOM     24  C   UNL     1      -0.090   6.453   4.128  0.00  0.00    +0.087 C 
ATOM     25  C   UNL     1       0.722   4.446   8.682  0.00  0.00    +0.086 C 
ENDBRANCH  16  19
ENDBRANCH   2  15
TORSDOF 5
