REMARK  Name = ZINC47538250
REMARK  4 active torsions:
REMARK  status: ('A' for Active; 'I' for Inactive)
REMARK    1  A    between atoms: C_1  and  C_2
REMARK    2  A    between atoms: N_15  and  C_16
REMARK    3  A    between atoms: C_16  and  C_18
REMARK    4  A    between atoms: C_16  and  C_19
REMARK                            x       y       z     vdW  Elec       q    Type
REMARK                         _______ _______ _______ _____ _____    ______ ____
ROOT
ATOM      1  C   UNL     1      -0.018   1.503   0.010  0.00  0.00    +0.067 C 
ATOM      2  C   UNL     1       0.002  -0.004   0.002  0.00  0.00    +0.063 A 
ATOM      3  C   UNL     1       0.008  -0.806  -1.133  0.00  0.00    +0.073 A 
ATOM      4  C   UNL     1       0.028  -2.130  -0.714  0.00  0.00    +0.158 A 
ATOM      5  N   UNL     1       0.040  -3.281  -1.412  0.00  0.00    -0.213 NA
ATOM      6  C   UNL     1       0.059  -4.455  -0.819  0.00  0.00    +0.131 A 
ATOM      7  C   UNL     1       0.067  -4.511   0.649  0.00  0.00    +0.040 A 
ATOM      8  C   UNL     1       0.087  -5.724   1.338  0.00  0.00    +0.013 A 
ATOM      9  C   UNL     1       0.093  -5.724   2.706  0.00  0.00    +0.001 A 
ATOM     10  C   UNL     1       0.080  -4.530   3.413  0.00  0.00    +0.002 A 
ATOM     11  C   UNL     1       0.060  -3.321   2.751  0.00  0.00    +0.028 A 
ATOM     12  C   UNL     1       0.053  -3.299   1.363  0.00  0.00    +0.078 A 
ATOM     13  N   UNL     1       0.034  -2.111   0.653  0.00  0.00    -0.214 N 
ATOM     14  N   UNL     1       0.023  -0.772   1.064  0.00  0.00    -0.170 NA
ATOM     15  N   UNL     1       0.071  -5.617  -1.565  0.00  0.00    -0.322 N 
ATOM     16  H   UNL     1       0.085  -6.478  -1.121  0.00  0.00    +0.148 HD
ENDROOT
BRANCH  15  17
ATOM     17  C   UNL     1       0.063  -5.547  -3.029  0.00  0.00    +0.099 C 
ATOM     18  C   UNL     1       1.495  -5.378  -3.539  0.00  0.00    +0.033 C 
BRANCH  17  19
ATOM     19  C   UNL     1      -0.523  -6.818  -3.588  0.00  0.00    -0.025 A 
ATOM     20  C   UNL     1      -0.213  -8.035  -3.006  0.00  0.00    +0.007 A 
ATOM     21  C   UNL     1      -0.746  -9.205  -3.512  0.00  0.00    +0.028 A 
ATOM     22  C   UNL     1      -1.594  -9.160  -4.607  0.00  0.00    +0.067 A 
ATOM     23  C   UNL     1      -1.907  -7.932  -5.195  0.00  0.00    +0.067 A 
ATOM     24  C   UNL     1      -1.372  -6.762  -4.676  0.00  0.00    +0.033 A 
ATOM     25  N   UNL     1      -2.767  -8.201  -6.257  0.00  0.00    -0.306 N 
ATOM     26  H   UNL     1      -3.155  -7.543  -6.854  0.00  0.00    +0.170 HD
ATOM     27  C   UNL     1      -2.969  -9.531  -6.313  0.00  0.00    +0.325 A 
ATOM     28  O   UNL     1      -3.671 -10.100  -7.128  0.00  0.00    -0.247 OA
ATOM     29  N   UNL     1      -2.274 -10.137  -5.331  0.00  0.00    -0.306 N 
ATOM     30  H   UNL     1      -2.251 -11.091  -5.157  0.00  0.00    +0.170 HD
ENDBRANCH  17  19
ENDBRANCH  15  17
TORSDOF 2
