REMARK  Name = ZINC03666077
REMARK  8 active torsions:
REMARK  status: ('A' for Active; 'I' for Inactive)
REMARK    1  A    between atoms: C_1  and  O_2
REMARK    2  A    between atoms: O_2  and  C_3
REMARK    3  A    between atoms: C_7  and  C_10
REMARK    4  A    between atoms: C_8  and  O_9
REMARK    5  A    between atoms: N_11  and  C_12
REMARK    6  A    between atoms: C_13  and  C_29
REMARK    7  A    between atoms: C_14  and  C_23
REMARK    8  A    between atoms: C_15  and  C_17
REMARK                            x       y       z     vdW  Elec       q    Type
REMARK                         _______ _______ _______ _____ _____    ______ ____
ROOT
ATOM      1  C   UNL     1       0.837  -6.175   1.412  0.00  0.00    +0.239 A 
ATOM      2  C   UNL     1       0.315  -7.059   0.467  0.00  0.00    +0.125 A 
ATOM      3  C   UNL     1       0.770  -8.395   0.886  0.00  0.00    +0.048 A 
ATOM      4  C   UNL     1       1.515  -8.194   2.031  0.00  0.00    +0.147 A 
ATOM      5  O   UNL     1       1.542  -6.878   2.313  0.00  0.00    -0.436 OA
ENDROOT
BRANCH   4   6
ATOM      6  C   UNL     1       2.180  -9.251   2.816  0.00  0.00    +0.018 A 
ATOM      7  C   UNL     1       2.951 -10.223   2.172  0.00  0.00    +0.011 A 
ATOM      8  C   UNL     1       3.570 -11.208   2.913  0.00  0.00    +0.001 A 
ATOM      9  C   UNL     1       3.429 -11.236   4.289  0.00  0.00    +0.000 A 
ATOM     10  C   UNL     1       2.667 -10.277   4.933  0.00  0.00    +0.001 A 
ATOM     11  C   UNL     1       2.047  -9.281   4.207  0.00  0.00    +0.011 A 
ENDBRANCH   4   6
BRANCH   3  12
ATOM     12  C   UNL     1       0.487  -9.686   0.218  0.00  0.00    -0.013 A 
ATOM     13  C   UNL     1      -0.307 -10.642   0.851  0.00  0.00    +0.008 A 
ATOM     14  C   UNL     1      -0.567 -11.843   0.224  0.00  0.00    +0.001 A 
ATOM     15  C   UNL     1      -0.042 -12.100  -1.030  0.00  0.00    +0.000 A 
ATOM     16  C   UNL     1       0.748 -11.156  -1.663  0.00  0.00    +0.001 A 
ATOM     17  C   UNL     1       1.010  -9.948  -1.048  0.00  0.00    +0.008 A 
ENDBRANCH   3  12
BRANCH   1  19
ATOM     18  C   UNL     1       1.214  -4.111   2.358  0.00  0.00    +0.126 C 
ATOM     19  N   UNL     1       0.667  -4.838   1.416  0.00  0.00    -0.219 NA
BRANCH  18  24
ATOM     20  C   UNL     1       0.098  -0.658   1.374  0.00  0.00    +0.162 A 
ATOM     21  C   UNL     1       0.682   0.100   2.376  0.00  0.00    +0.049 A 
ATOM     22  C   UNL     1       1.434  -0.508   3.368  0.00  0.00    +0.004 A 
ATOM     23  C   UNL     1       1.611  -1.874   3.368  0.00  0.00    +0.013 A 
ATOM     24  C   UNL     1       1.028  -2.656   2.362  0.00  0.00    +0.038 A 
ATOM     25  C   UNL     1       0.261  -2.039   1.362  0.00  0.00    +0.167 A 
BRANCH  20  27
ATOM     26  C   UNL     1      -0.765   1.369   0.479  0.00  0.00    +0.277 C 
ATOM     27  O   UNL     1      -0.639  -0.052   0.405  0.00  0.00    -0.491 OA
ENDBRANCH  20  27
BRANCH  25  28
ATOM     28  O   UNL     1      -0.315  -2.785   0.385  0.00  0.00    -0.503 OA
ATOM     29  H   UNL     1       0.244  -2.912  -0.394  0.00  0.00    +0.292 HD
ENDBRANCH  25  28
ENDBRANCH  18  24
ENDBRANCH   1  19
BRANCH   2  30
ATOM     30  C   UNL     1      -0.492  -6.736  -0.670  0.00  0.00    +0.105 C 
ATOM     31  N   UNL     1      -1.133  -6.479  -1.573  0.00  0.00    -0.191 NA
ENDBRANCH   2  30
TORSDOF 7
