REMARK  Name = ZINC01897672
REMARK  12 active torsions:
REMARK  status: ('A' for Active; 'I' for Inactive)
REMARK    1  A    between atoms: C_1  and  C_2
REMARK    2  A    between atoms: C_3  and  C_12
REMARK    3  A    between atoms: N_13  and  N_14
REMARK    4  A    between atoms: C_15  and  C_17
REMARK    5  A    between atoms: C_17  and  C_19
REMARK    6  A    between atoms: C_17  and  N_26
REMARK    7  A    between atoms: C_19  and  C_20
REMARK    8  A    between atoms: C_27  and  O_29
REMARK    9  A    between atoms: O_29  and  C_30
REMARK   10  A    between atoms: C_30  and  C_31
REMARK   11  A    between atoms: C_30  and  C_32
REMARK   12  A    between atoms: C_30  and  C_33
REMARK                            x       y       z     vdW  Elec       q    Type
REMARK                         _______ _______ _______ _____ _____    ______ ____
ROOT
ATOM      1  N   UNL     1      -5.359   0.678   0.922  0.00  0.00    -0.205 N 
ATOM      2  C   UNL     1      -4.299   0.049   1.467  0.00  0.00    +0.253 C 
ATOM      3  O   UNL     1      -4.434  -1.051   1.961  0.00  0.00    -0.272 OA
ATOM      4  H   UNL     1      -5.250   1.557   0.527  0.00  0.00    +0.177 HD
ENDROOT
BRANCH   1   6
ATOM      5  C   UNL     1      -7.638   0.669   0.402  0.00  0.00    +0.145 C 
ATOM      6  N   UNL     1      -6.617   0.062   0.927  0.00  0.00    -0.187 NA
BRANCH   5   9
ATOM      7  C   UNL     1      -9.911   2.011  -0.761  0.00  0.00    +0.064 C 
ATOM      8  C   UNL     1     -10.049   0.644  -0.141  0.00  0.00    +0.031 A 
ATOM      9  C   UNL     1      -8.961   0.022   0.406  0.00  0.00    +0.078 A 
ATOM     10  C   UNL     1      -9.146  -1.314   0.995  0.00  0.00    +0.263 A 
ATOM     11  O   UNL     1      -8.208  -1.910   1.490  0.00  0.00    -0.267 OA
ATOM     12  N   UNL     1     -10.380  -1.862   0.978  0.00  0.00    -0.275 N 
ATOM     13  H   UNL     1     -10.528  -2.766   1.380  0.00  0.00    +0.173 HD
ATOM     14  C   UNL     1     -11.410  -1.200   0.424  0.00  0.00    +0.327 A 
ATOM     15  O   UNL     1     -12.510  -1.718   0.418  0.00  0.00    -0.247 OA
ATOM     16  N   UNL     1     -11.261   0.018  -0.122  0.00  0.00    -0.311 N 
ATOM     17  H   UNL     1     -12.055   0.475  -0.522  0.00  0.00    +0.170 HD
ENDBRANCH   5   9
ENDBRANCH   1   6
BRANCH   2  18
ATOM     18  C   UNL     1      -2.945   0.711   1.462  0.00  0.00    +0.168 C 
BRANCH  18  19
ATOM     19  N   UNL     1      -1.968  -0.170   2.108  0.00  0.00    -0.269 N 
ATOM     20  C   UNL     1      -0.861   0.351   2.672  0.00  0.00    +0.401 C 
ATOM     21  O   UNL     1      -0.672   1.551   2.646  0.00  0.00    -0.226 OA
ATOM     22  H   UNL     1      -2.119  -1.128   2.129  0.00  0.00    +0.153 HD
BRANCH  20  23
ATOM     23  O   UNL     1       0.037  -0.459   3.266  0.00  0.00    -0.445 OA
BRANCH  23  24
ATOM     24  C   UNL     1       1.206   0.172   3.853  0.00  0.00    +0.107 C 
ATOM     25  C   UNL     1       0.764   1.159   4.935  0.00  0.00    +0.055 C 
ATOM     26  C   UNL     1       2.104  -0.899   4.475  0.00  0.00    +0.055 C 
ATOM     27  C   UNL     1       1.981   0.919   2.767  0.00  0.00    +0.055 C 
ENDBRANCH  23  24
ENDBRANCH  20  23
ENDBRANCH  18  19
BRANCH  18  28
ATOM     28  C   UNL     1      -2.514   0.980   0.019  0.00  0.00    +0.067 C 
BRANCH  28  29
ATOM     29  C   UNL     1      -1.219   1.751   0.017  0.00  0.00    -0.045 A 
ATOM     30  C   UNL     1      -0.013   1.076   0.008  0.00  0.00    +0.004 A 
ATOM     31  C   UNL     1       1.175   1.783   0.000  0.00  0.00    +0.000 A 
ATOM     32  C   UNL     1       1.156   3.165   0.008  0.00  0.00    +0.000 A 
ATOM     33  C   UNL     1      -0.050   3.840   0.022  0.00  0.00    +0.000 A 
ATOM     34  C   UNL     1      -1.238   3.133   0.030  0.00  0.00    +0.004 A 
ENDBRANCH  28  29
ENDBRANCH  18  28
ENDBRANCH   2  18
TORSDOF 8
