REMARK  Name = ZINC19953872
REMARK  9 active torsions:
REMARK  status: ('A' for Active; 'I' for Inactive)
REMARK    1  A    between atoms: C_1  and  C_2
REMARK    2  A    between atoms: C_2  and  C_3
REMARK    3  A    between atoms: N_7  and  C_16
REMARK    4  A    between atoms: C_11  and  N_15
REMARK    5  A    between atoms: C_16  and  C_17
REMARK    6  A    between atoms: N_19  and  C_20
REMARK    7  A    between atoms: C_20  and  C_22
REMARK    8  A    between atoms: C_20  and  C_23
REMARK    9  A    between atoms: C_23  and  C_24
REMARK                            x       y       z     vdW  Elec       q    Type
REMARK                         _______ _______ _______ _____ _____    ______ ____
ROOT
ATOM      1  C   UNL     1      -5.195   3.285   1.193  0.00  0.00    +0.259 C 
ATOM      2  C   UNL     1      -4.132   2.216   1.198  0.00  0.00    +0.261 C 
ATOM      3  O   UNL     1      -3.746   1.744   2.246  0.00  0.00    -0.271 OA
ATOM      4  N   UNL     1      -3.608   1.789   0.029  0.00  0.00    -0.256 N 
ATOM      5  C   UNL     1      -4.161   2.251  -1.177  0.00  0.00    +0.079 A 
ATOM      6  C   UNL     1      -3.513   2.021  -2.380  0.00  0.00    +0.029 A 
ATOM      7  C   UNL     1      -4.061   2.490  -3.559  0.00  0.00    +0.025 A 
ATOM      8  C   UNL     1      -5.259   3.192  -3.540  0.00  0.00    +0.028 A 
ATOM      9  C   UNL     1      -5.913   3.420  -2.336  0.00  0.00    +0.070 A 
ATOM     10  C   UNL     1      -5.368   2.945  -1.156  0.00  0.00    +0.145 A 
ATOM     11  O   UNL     1      -6.010   3.146   0.027  0.00  0.00    -0.478 OA
ENDROOT
BRANCH   8  12
ATOM     12  N   UNL     1      -5.808   3.670  -4.734  0.00  0.00    -0.358 N 
ATOM     13  H   UNL     1      -6.756   4.226  -4.720  0.00  0.00    +0.142 HD
ATOM     14  H   UNL     1      -5.290   3.490  -5.688  0.00  0.00    +0.142 HD
ENDBRANCH   8  12
BRANCH   1  16
ATOM     15  C   UNL     1      -5.612   5.746   1.316  0.00  0.00    +0.008 C 
ATOM     16  C   UNL     1      -4.536   4.666   1.190  0.00  0.00    +0.051 C 
ENDBRANCH   1  16
BRANCH   4  17
ATOM     17  C   UNL     1      -2.482   0.853   0.018  0.00  0.00    +0.209 C 
BRANCH  17  18
ATOM     18  C   UNL     1      -1.187   1.624   0.017  0.00  0.00    +0.231 C 
ATOM     19  O   UNL     1      -1.204   2.837   0.023  0.00  0.00    -0.274 OA
ATOM     20  N   UNL     1      -0.011   0.966   0.007  0.00  0.00    -0.311 N 
ATOM     21  H   UNL     1       0.004  -0.134   0.006  0.00  0.00    +0.149 HD
BRANCH  20  22
ATOM     22  C   UNL     1       1.248   1.716  -0.001  0.00  0.00    +0.070 C 
ATOM     23  C   UNL     1       1.608   2.092  -1.439  0.00  0.00    +0.028 C 
BRANCH  22  24
ATOM     24  C   UNL     1       2.361   0.850   0.594  0.00  0.00    +0.018 C 
ATOM     25  C   UNL     1       2.061   0.577   2.069  0.00  0.00    +0.005 C 
ENDBRANCH  22  24
ENDBRANCH  20  22
ENDBRANCH  17  18
ENDBRANCH   4  17
TORSDOF 6
