REMARK  Name = ZINC05408940
REMARK  10 active torsions:
REMARK  status: ('A' for Active; 'I' for Inactive)
REMARK    1  A    between atoms: C_1  and  C_2
REMARK    2  A    between atoms: C_4  and  C_33
REMARK    3  A    between atoms: C_5  and  C_18
REMARK    4  A    between atoms: C_6  and  C_17
REMARK    5  A    between atoms: C_7  and  C_8
REMARK    6  A    between atoms: C_8  and  O_9
REMARK    7  A    between atoms: O_9  and  C_10
REMARK    8  A    between atoms: C_21  and  C_32
REMARK    9  A    between atoms: C_27  and  N_31
REMARK   10  A    between atoms: C_28  and  C_29
REMARK                            x       y       z     vdW  Elec       q    Type
REMARK                         _______ _______ _______ _____ _____    ______ ____
ROOT
ATOM      1  C   UNL     1      -0.978   1.306   0.313  0.00  0.00    +0.044 C 
ATOM      2  C   UNL     1      -0.457  -0.099   0.147  0.00  0.00    -0.044 A 
ATOM      3  C   UNL     1      -0.282  -0.626  -1.119  0.00  0.00    +0.007 A 
ATOM      4  C   UNL     1       0.196  -1.913  -1.272  0.00  0.00    -0.046 A 
ATOM      5  C   UNL     1       0.499  -2.675  -0.158  0.00  0.00    -0.028 A 
ATOM      6  C   UNL     1       0.325  -2.147   1.108  0.00  0.00    -0.039 A 
ATOM      7  C   UNL     1      -0.149  -0.858   1.260  0.00  0.00    -0.004 A 
ATOM      8  C   UNL     1       0.654  -2.977   2.322  0.00  0.00    +0.044 C 
ATOM      9  C   UNL     1       0.387  -2.488  -2.652  0.00  0.00    +0.044 C 
ENDROOT
BRANCH   5  10
ATOM     10  C   UNL     1       1.020  -4.079  -0.324  0.00  0.00    +0.102 C 
ATOM     11  C   UNL     1       2.276  -4.255   0.489  0.00  0.00    +0.049 A 
ATOM     12  C   UNL     1       3.548  -3.747   0.264  0.00  0.00    +0.068 A 
ATOM     13  N   UNL     1       4.330  -4.159   1.234  0.00  0.00    -0.176 NA
ATOM     14  N   UNL     1       3.569  -4.947   2.111  0.00  0.00    -0.246 N 
ATOM     15  H   UNL     1       3.893  -5.380   2.917  0.00  0.00    +0.192 HD
ATOM     16  C   UNL     1       2.314  -4.996   1.638  0.00  0.00    +0.222 A 
ATOM     17  O   UNL     1       1.224  -5.633   2.135  0.00  0.00    -0.423 OA
ATOM     18  C   UNL     1       0.150  -5.753   1.329  0.00  0.00    +0.200 C 
ATOM     19  C   UNL     1      -0.007  -5.065   0.175  0.00  0.00    +0.098 C 
ATOM     20  C   UNL     1       3.959  -2.875  -0.894  0.00  0.00    +0.068 C 
BRANCH  18  21
ATOM     21  N   UNL     1      -0.843  -6.625   1.701  0.00  0.00    -0.328 N 
ATOM     22  H   UNL     1      -0.760  -7.133   2.523  0.00  0.00    +0.145 HD
ATOM     23  H   UNL     1      -1.628  -6.733   1.142  0.00  0.00    +0.145 HD
ENDBRANCH  18  21
BRANCH  19  24
ATOM     24  C   UNL     1      -1.191  -5.279  -0.601  0.00  0.00    +0.101 C 
ATOM     25  N   UNL     1      -2.130  -5.449  -1.218  0.00  0.00    -0.191 NA
ENDBRANCH  19  24
ENDBRANCH   5  10
BRANCH   7  26
ATOM     26  C   UNL     1      -0.335  -0.281   2.640  0.00  0.00    +0.265 C 
BRANCH  26  27
ATOM     27  O   UNL     1      -1.655  -0.570   3.103  0.00  0.00    -0.487 OA
BRANCH  27  28
ATOM     28  C   UNL     1      -1.988  -0.117   4.341  0.00  0.00    +0.121 A 
ATOM     29  C   UNL     1      -1.064   0.597   5.091  0.00  0.00    +0.048 A 
ATOM     30  C   UNL     1      -1.404   1.057   6.348  0.00  0.00    +0.042 A 
ATOM     31  C   UNL     1      -2.665   0.806   6.861  0.00  0.00    +0.124 A 
ATOM     32  C   UNL     1      -3.588   0.094   6.114  0.00  0.00    +0.042 A 
ATOM     33  C   UNL     1      -3.254  -0.362   4.853  0.00  0.00    +0.048 A 
ATOM     34  F   UNL     1      -2.996   1.256   8.091  0.00  0.00    -0.205 F 
ENDBRANCH  27  28
ENDBRANCH  26  27
ENDBRANCH   7  26
TORSDOF 6
