REMARK  Name = ZINC60455662
REMARK  8 active torsions:
REMARK  status: ('A' for Active; 'I' for Inactive)
REMARK    1  A    between atoms: C_1  and  C_2
REMARK    2  A    between atoms: C_6  and  N_9
REMARK    3  A    between atoms: C_7  and  C_8
REMARK    4  A    between atoms: N_9  and  C_10
REMARK    5  A    between atoms: C_10  and  C_11
REMARK    6  A    between atoms: N_15  and  C_16
REMARK    7  A    between atoms: C_17  and  C_23
REMARK    8  A    between atoms: C_21  and  C_22
REMARK                            x       y       z     vdW  Elec       q    Type
REMARK                         _______ _______ _______ _____ _____    ______ ____
ROOT
ATOM      1  C   UNL     1       0.182  -5.727   3.817  0.00  0.00    +0.173 A 
ATOM      2  N   UNL     1       1.317  -5.506   4.426  0.00  0.00    -0.111 NA
ATOM      3  N   UNL     1       1.127  -4.852   5.515  0.00  0.00    -0.023 NA
ATOM      4  N   UNL     1      -0.129  -4.612   5.677  0.00  0.00    -0.039 NA
ATOM      5  N   UNL     1      -0.792  -5.170   4.569  0.00  0.00    -0.195 N 
ENDROOT
BRANCH   5   6
ATOM      6  C   UNL     1      -2.169  -5.155   4.305  0.00  0.00    +0.075 A 
ATOM      7  C   UNL     1      -2.973  -6.200   4.741  0.00  0.00    -0.025 A 
ATOM      8  C   UNL     1      -4.329  -6.183   4.479  0.00  0.00    +0.005 A 
ATOM      9  C   UNL     1      -4.886  -5.127   3.782  0.00  0.00    +0.001 A 
ATOM     10  C   UNL     1      -4.088  -4.085   3.346  0.00  0.00    +0.005 A 
ATOM     11  C   UNL     1      -2.733  -4.093   3.611  0.00  0.00    -0.025 A 
ATOM     12  C   UNL     1      -1.865  -2.954   3.141  0.00  0.00    +0.046 C 
ATOM     13  C   UNL     1      -2.366  -7.352   5.500  0.00  0.00    +0.046 C 
ENDBRANCH   5   6
BRANCH   1  14
ATOM     14  C   UNL     1      -0.005  -6.460   2.514  0.00  0.00    +0.180 C 
BRANCH  14  15
ATOM     15  N   UNL     1       0.102  -5.514   1.401  0.00  0.00    -0.336 N 
ATOM     16  H   UNL     1       0.243  -4.571   1.578  0.00  0.00    +0.147 HD
BRANCH  15  22
ATOM     17  C   UNL     1       0.107  -4.554  -3.419  0.00  0.00    +0.044 C 
ATOM     18  C   UNL     1      -0.002  -5.526  -2.272  0.00  0.00    -0.046 A 
ATOM     19  C   UNL     1      -0.203  -6.871  -2.523  0.00  0.00    +0.004 A 
ATOM     20  C   UNL     1      -0.304  -7.766  -1.474  0.00  0.00    +0.002 A 
ATOM     21  C   UNL     1      -0.203  -7.319  -0.171  0.00  0.00    +0.023 A 
ATOM     22  C   UNL     1      -0.001  -5.969   0.084  0.00  0.00    +0.031 A 
ATOM     23  C   UNL     1       0.105  -5.073  -0.972  0.00  0.00    -0.027 A 
ATOM     24  C   UNL     1       0.331  -3.608  -0.700  0.00  0.00    +0.046 C 
ENDBRANCH  15  22
ENDBRANCH  14  15
ENDBRANCH   1  14
TORSDOF 4
