REMARK  Name = ZINC63842744
REMARK  5 active torsions:
REMARK  status: ('A' for Active; 'I' for Inactive)
REMARK    1  A    between atoms: C_7  and  C_10
REMARK    2  A    between atoms: C_10  and  C_11
REMARK    3  A    between atoms: N_13  and  C_14
REMARK    4  A    between atoms: C_18  and  S_20
REMARK    5  A    between atoms: S_20  and  N_23
REMARK                            x       y       z     vdW  Elec       q    Type
REMARK                         _______ _______ _______ _____ _____    ______ ____
ROOT
ATOM      1  C   UNL     1      -0.463  -5.137  -3.007  0.00  0.00    +0.035 A 
ATOM      2  C   UNL     1       0.264  -4.513  -4.013  0.00  0.00    +0.023 A 
ATOM      3  C   UNL     1       0.154  -4.952  -5.317  0.00  0.00    +0.004 A 
ATOM      4  C   UNL     1      -0.680  -6.013  -5.622  0.00  0.00    +0.029 A 
ATOM      5  C   UNL     1      -1.405  -6.636  -4.623  0.00  0.00    +0.114 A 
ATOM      6  C   UNL     1      -1.294  -6.205  -3.316  0.00  0.00    +0.052 A 
ENDROOT
BRANCH   1   9
ATOM      7  C   UNL     1      -0.408  -5.579  -0.670  0.00  0.00    +0.221 C 
ATOM      8  O   UNL     1      -0.637  -6.748  -0.897  0.00  0.00    -0.275 OA
ATOM      9  N   UNL     1      -0.353  -4.693  -1.684  0.00  0.00    -0.285 N 
ATOM     10  H   UNL     1      -0.237  -3.748  -1.498  0.00  0.00    +0.155 HD
BRANCH   7  11
ATOM     11  C   UNL     1      -0.186  -5.116   0.747  0.00  0.00    +0.129 C 
BRANCH  11  18
ATOM     12  C   UNL     1       2.936  -7.941   2.572  0.00  0.00    +0.001 A 
ATOM     13  C   UNL     1       2.386  -8.922   3.409  0.00  0.00    +0.002 A 
ATOM     14  C   UNL     1       1.060  -9.016   3.648  0.00  0.00    +0.026 A 
ATOM     15  C   UNL     1       0.154  -8.102   3.044  0.00  0.00    +0.043 A 
ATOM     16  N   UNL     1      -1.150  -7.989   3.117  0.00  0.00    -0.380 N 
ATOM     17  C   UNL     1      -1.569  -6.857   2.282  0.00  0.00    +0.145 C 
ATOM     18  C   UNL     1      -0.300  -6.292   1.683  0.00  0.00    -0.033 C 
ATOM     19  C   UNL     1       0.710  -7.056   2.156  0.00  0.00    -0.001 A 
ATOM     20  C   UNL     1       2.163  -7.022   1.949  0.00  0.00    +0.010 A 
ATOM     21  H   UNL     1      -1.740  -8.558   3.636  0.00  0.00    +0.160 HD
ENDBRANCH  11  18
ENDBRANCH   7  11
ENDBRANCH   1   9
BRANCH   5  22
ATOM     22  S   UNL     1      -2.466  -7.986  -5.018  0.00  0.00    +0.100 S 
ATOM     23  O   UNL     1      -3.449  -8.044  -3.993  0.00  0.00    -0.146 OA
ATOM     24  O   UNL     1      -2.805  -7.849  -6.391  0.00  0.00    -0.146 OA
BRANCH  22  25
ATOM     25  N   UNL     1      -1.566  -9.370  -4.889  0.00  0.00    -0.118 NA
ATOM     26  C   UNL     1      -2.109 -10.519  -5.128  0.00  0.00    +0.117 C 
ATOM     27  N   UNL     1      -3.413 -10.715  -5.500  0.00  0.00    -0.331 N 
ATOM     28  C   UNL     1      -3.540 -12.034  -6.142  0.00  0.00    +0.103 C 
ATOM     29  C   UNL     1      -2.455 -12.900  -5.464  0.00  0.00    +0.026 C 
ATOM     30  C   UNL     1      -1.401 -11.854  -5.047  0.00  0.00    +0.074 C 
ATOM     31  H   UNL     1      -4.137 -10.085  -5.362  0.00  0.00    +0.147 HD
ENDBRANCH  22  25
ENDBRANCH   5  22
TORSDOF 5
