REMARK  Name = ZINC10264125
REMARK  16 active torsions:
REMARK  status: ('A' for Active; 'I' for Inactive)
REMARK    1  A    between atoms: C_1  and  C_2
REMARK    2  A    between atoms: C_5  and  C_8
REMARK    3  A    between atoms: C_11  and  S_14
REMARK    4  A    between atoms: N_12  and  C_13
REMARK    5  A    between atoms: S_14  and  C_15
REMARK    6  A    between atoms: C_15  and  C_16
REMARK    7  A    between atoms: N_18  and  C_19
REMARK    8  A    between atoms: N_18  and  C_23
REMARK    9  A    between atoms: C_19  and  C_20
REMARK   10  A    between atoms: C_20  and  C_21
REMARK   11  A    between atoms: C_20  and  C_22
REMARK   12  A    between atoms: C_24  and  N_36
REMARK   13  A    between atoms: N_25  and  C_32
REMARK   14  A    between atoms: C_32  and  C_33
REMARK   15  A    between atoms: C_33  and  C_34
REMARK   16  A    between atoms: C_33  and  C_35
REMARK                            x       y       z     vdW  Elec       q    Type
REMARK                         _______ _______ _______ _____ _____    ______ ____
ROOT
ATOM      1  C   UNL     1      -0.584   1.707   1.516  0.00  0.00    +0.230 C 
ATOM      2  O   UNL     1      -0.290   1.151   0.479  0.00  0.00    -0.274 OA
ATOM      3  N   UNL     1       0.139   1.478   2.632  0.00  0.00    -0.263 N 
ENDROOT
BRANCH   3   4
ATOM      4  C   UNL     1      -0.149   2.188   3.817  0.00  0.00    +0.140 A 
ATOM      5  C   UNL     1      -0.548   1.520   4.957  0.00  0.00    +0.127 A 
ATOM      6  N   UNL     1      -0.821   2.240   6.096  0.00  0.00    -0.280 N 
ATOM      7  C   UNL     1      -0.701   3.580   6.100  0.00  0.00    +0.331 A 
ATOM      8  O   UNL     1      -0.947   4.198   7.118  0.00  0.00    -0.246 OA
ATOM      9  N   UNL     1      -0.313   4.248   5.000  0.00  0.00    -0.273 N 
ATOM     10  H   UNL     1      -0.235   5.244   5.028  0.00  0.00    +0.173 HD
ATOM     11  C   UNL     1      -0.027   3.590   3.859  0.00  0.00    +0.277 A 
ATOM     12  O   UNL     1       0.328   4.205   2.868  0.00  0.00    -0.266 OA
BRANCH   5  13
ATOM     13  N   UNL     1      -0.672   0.151   4.953  0.00  0.00    -0.343 N 
ATOM     14  H   UNL     1      -0.407  -0.358   4.170  0.00  0.00    +0.144 HD
ATOM     15  H   UNL     1      -1.024  -0.306   5.732  0.00  0.00    +0.144 HD
ENDBRANCH   5  13
BRANCH   6  16
ATOM     16  C   UNL     1      -1.246   1.543   7.313  0.00  0.00    +0.131 C 
BRANCH  16  17
ATOM     17  C   UNL     1      -0.016   1.176   8.146  0.00  0.00    +0.003 C 
ATOM     18  C   UNL     1      -0.464   0.561   9.474  0.00  0.00    +0.009 C 
ATOM     19  C   UNL     1       0.837   0.165   7.378  0.00  0.00    +0.009 C 
ENDBRANCH  16  17
ENDBRANCH   6  16
ENDBRANCH   3   4
BRANCH   1  20
ATOM     20  C   UNL     1      -1.756   2.653   1.559  0.00  0.00    +0.173 C 
BRANCH  20  21
ATOM     21  S   UNL     1      -2.444   2.836  -0.105  0.00  0.00    -0.077 S 
BRANCH  21  25
ATOM     22  C   UNL     1      -5.480   5.291   0.035  0.00  0.00    +0.165 A 
ATOM     23  N   UNL     1      -5.085   5.250   1.286  0.00  0.00    -0.128 NA
ATOM     24  N   UNL     1      -4.076   4.463   1.402  0.00  0.00    -0.122 NA
ATOM     25  C   UNL     1      -3.759   3.960   0.229  0.00  0.00    +0.192 A 
ATOM     26  N   UNL     1      -4.644   4.466  -0.680  0.00  0.00    -0.305 N 
ATOM     27  C   UNL     1      -4.691   4.188  -2.118  0.00  0.00    +0.153 C 
BRANCH  22  32
ATOM     28  C   UNL     1      -9.884   8.345  -2.061  0.00  0.00    +0.044 C 
ATOM     29  C   UNL     1      -8.731   7.545  -1.512  0.00  0.00    -0.050 A 
ATOM     30  C   UNL     1      -8.212   6.493  -2.245  0.00  0.00    +0.004 A 
ATOM     31  C   UNL     1      -7.156   5.757  -1.748  0.00  0.00    +0.012 A 
ATOM     32  C   UNL     1      -6.612   6.076  -0.503  0.00  0.00    +0.019 A 
ATOM     33  C   UNL     1      -7.144   7.135   0.234  0.00  0.00    +0.012 A 
ATOM     34  C   UNL     1      -8.197   7.866  -0.277  0.00  0.00    +0.004 A 
ENDBRANCH  22  32
ENDBRANCH  21  25
ENDBRANCH  20  21
ENDBRANCH   1  20
BRANCH   3  35
ATOM     35  C   UNL     1       1.222   0.492   2.614  0.00  0.00    +0.117 C 
BRANCH  35  36
ATOM     36  C   UNL     1       2.551   1.199   2.344  0.00  0.00    +0.001 C 
ATOM     37  C   UNL     1       3.697   0.190   2.447  0.00  0.00    +0.009 C 
ATOM     38  C   UNL     1       2.530   1.806   0.940  0.00  0.00    +0.009 C 
ENDBRANCH  35  36
ENDBRANCH   3  35
TORSDOF 10
