REMARK  Name = ZINC15913108
REMARK  7 active torsions:
REMARK  status: ('A' for Active; 'I' for Inactive)
REMARK    1  A    between atoms: C_1  and  O_2
REMARK    2  A    between atoms: O_2  and  C_3
REMARK    3  A    between atoms: C_6  and  O_29
REMARK    4  A    between atoms: C_7  and  C_9
REMARK    5  A    between atoms: C_9  and  C_11
REMARK    6  A    between atoms: C_13  and  C_18
REMARK    7  A    between atoms: N_20  and  C_21
REMARK                            x       y       z     vdW  Elec       q    Type
REMARK                         _______ _______ _______ _____ _____    ______ ____
ROOT
ATOM      1  C   UNL     1      -4.856  -2.903  -0.414  0.00  0.00    +0.058 A 
ATOM      2  C   UNL     1      -3.662  -2.152  -0.299  0.00  0.00    +0.033 A 
ATOM      3  C   UNL     1      -2.449  -2.809  -0.427  0.00  0.00    +0.097 A 
ATOM      4  C   UNL     1      -2.463  -4.258  -0.684  0.00  0.00    +0.204 A 
ATOM      5  N   UNL     1      -1.340  -4.914  -0.817  0.00  0.00    -0.369 N 
ATOM      6  O   UNL     1      -3.643  -4.907  -0.777  0.00  0.00    -0.446 OA
ATOM      7  C   UNL     1      -4.804  -4.259  -0.650  0.00  0.00    +0.209 A 
ATOM      8  H   UNL     1      -1.354  -5.997  -1.009  0.00  0.00    +0.159 HD
ATOM      9  H   UNL     1      -0.380  -4.382  -0.737  0.00  0.00    +0.159 HD
ENDROOT
BRANCH   3  10
ATOM     10  C   UNL     1      -1.180  -2.075  -0.317  0.00  0.00    +0.253 C 
ATOM     11  O   UNL     1      -0.123  -2.667  -0.432  0.00  0.00    -0.270 OA
ATOM     12  N   UNL     1      -1.187  -0.747  -0.087  0.00  0.00    -0.281 N 
ATOM     13  H   UNL     1      -2.139  -0.225   0.095  0.00  0.00    +0.155 HD
BRANCH  12  14
ATOM     14  C   UNL     1       0.015  -0.032  -0.081  0.00  0.00    +0.035 A 
ATOM     15  C   UNL     1       0.055   1.268  -0.570  0.00  0.00    +0.026 A 
ATOM     16  C   UNL     1       1.242   1.972  -0.563  0.00  0.00    +0.041 A 
ATOM     17  C   UNL     1       2.394   1.385  -0.067  0.00  0.00    +0.142 A 
ATOM     18  C   UNL     1       2.358   0.089   0.422  0.00  0.00    +0.078 A 
ATOM     19  C   UNL     1       1.171  -0.619   0.416  0.00  0.00    +0.046 A 
ATOM     20 CL   UNL     1       3.804  -0.644   1.043  0.00  0.00    -0.081 Cl
ATOM     21  F   UNL     1       3.555   2.077  -0.061  0.00  0.00    -0.204 F 
ENDBRANCH  12  14
ENDBRANCH   3  10
BRANCH   1  22
ATOM     22  C   UNL     1      -6.161  -2.231  -0.281  0.00  0.00    +0.200 C 
ATOM     23  O   UNL     1      -6.213  -1.020  -0.175  0.00  0.00    -0.286 OA
BRANCH  22  28
ATOM     24  C   UNL     1      -9.387  -3.801  -1.395  0.00  0.00    +0.121 A 
ATOM     25  C   UNL     1      -9.740  -4.526  -0.264  0.00  0.00    +0.049 A 
ATOM     26  C   UNL     1      -8.934  -4.506   0.857  0.00  0.00    +0.050 A 
ATOM     27  C   UNL     1      -7.762  -3.765   0.859  0.00  0.00    +0.128 A 
ATOM     28  C   UNL     1      -7.403  -3.027  -0.277  0.00  0.00    +0.067 A 
ATOM     29  C   UNL     1      -8.225  -3.053  -1.407  0.00  0.00    +0.061 A 
BRANCH  24  31
ATOM     30  C   UNL     1     -11.373  -4.621  -2.415  0.00  0.00    +0.277 C 
ATOM     31  O   UNL     1     -10.187  -3.827  -2.495  0.00  0.00    -0.495 OA
ENDBRANCH  24  31
BRANCH  27  32
ATOM     32  O   UNL     1      -6.968  -3.750   1.960  0.00  0.00    -0.506 OA
ATOM     33  H   UNL     1      -6.039  -3.162   1.960  0.00  0.00    +0.292 HD
ENDBRANCH  27  32
ENDBRANCH  22  28
ENDBRANCH   1  22
TORSDOF 6
