REMARK  Name = ZINC01628287
REMARK  5 active torsions:
REMARK  status: ('A' for Active; 'I' for Inactive)
REMARK    1  A    between atoms: C_1  and  C_2
REMARK    2  A    between atoms: C_4  and  C_14
REMARK    3  A    between atoms: C_7  and  N_8
REMARK    4  A    between atoms: C_17  and  N_21
REMARK    5  A    between atoms: C_18  and  C_20
REMARK                            x       y       z     vdW  Elec       q    Type
REMARK                         _______ _______ _______ _____ _____    ______ ____
ROOT
ATOM      1  C   UNL     1      -1.209   5.959  -0.019  0.00  0.00    +0.045 C 
ATOM      2  C   UNL     1      -1.197   4.452  -0.042  0.00  0.00    -0.029 A 
ATOM      3  C   UNL     1       0.003   3.774  -0.073  0.00  0.00    +0.013 A 
ATOM      4  C   UNL     1       0.014   2.380  -0.095  0.00  0.00    -0.018 A 
ATOM      5  C   UNL     1      -1.189   1.676  -0.085  0.00  0.00    +0.010 A 
ATOM      6  C   UNL     1      -2.386   2.358  -0.059  0.00  0.00    +0.024 A 
ATOM      7  C   UNL     1      -2.394   3.748  -0.032  0.00  0.00    +0.038 A 
ENDROOT
BRANCH   7   8
ATOM      8  N   UNL     1      -3.610   4.439   0.001  0.00  0.00    -0.269 N 
ATOM      9  C   UNL     1      -4.660   3.925   0.672  0.00  0.00    +0.307 C 
ATOM     10  O   UNL     1      -4.576   2.824   1.181  0.00  0.00    -0.252 OA
ATOM     11  N   UNL     1      -5.802   4.632   0.780  0.00  0.00    -0.282 N 
ATOM     12  C   UNL     1      -6.546   5.858   0.481  0.00  0.00    +0.128 C 
ATOM     13  C   UNL     1      -7.175   4.718   1.285  0.00  0.00    +0.128 C 
ATOM     14  H   UNL     1      -3.698   5.288  -0.461  0.00  0.00    +0.156 HD
ENDBRANCH   7   8
BRANCH   4  15
ATOM     15  C   UNL     1       1.304   1.648  -0.130  0.00  0.00    -0.018 A 
ATOM     16  C   UNL     1       2.507   2.352  -0.140  0.00  0.00    +0.010 A 
ATOM     17  C   UNL     1       3.704   1.669  -0.172  0.00  0.00    +0.024 A 
ATOM     18  C   UNL     1       3.712   0.280  -0.194  0.00  0.00    +0.038 A 
ATOM     19  C   UNL     1       2.514  -0.425  -0.184  0.00  0.00    -0.029 A 
ATOM     20  C   UNL     1       1.315   0.254  -0.146  0.00  0.00    +0.013 A 
ATOM     21  C   UNL     1       2.527  -1.931  -0.207  0.00  0.00    +0.045 C 
BRANCH  18  22
ATOM     22  N   UNL     1       4.928  -0.411  -0.227  0.00  0.00    -0.269 N 
ATOM     23  C   UNL     1       5.975   0.100  -0.903  0.00  0.00    +0.307 C 
ATOM     24  O   UNL     1       5.890   1.199  -1.416  0.00  0.00    -0.252 OA
ATOM     25  N   UNL     1       7.118  -0.607  -1.012  0.00  0.00    -0.282 N 
ATOM     26  C   UNL     1       7.867  -1.826  -0.699  0.00  0.00    +0.128 C 
ATOM     27  C   UNL     1       8.489  -0.696  -1.520  0.00  0.00    +0.128 C 
ATOM     28  H   UNL     1       5.017  -1.258   0.238  0.00  0.00    +0.156 HD
ENDBRANCH  18  22
ENDBRANCH   4  15
TORSDOF 3
