REMARK  Name = ZINC05394434
REMARK  8 active torsions:
REMARK  status: ('A' for Active; 'I' for Inactive)
REMARK    1  A    between atoms: C_1  and  C_2
REMARK    2  A    between atoms: C_5  and  N_22
REMARK    3  A    between atoms: C_7  and  N_8
REMARK    4  A    between atoms: N_8  and  C1*_9
REMARK    5  A    between atoms: C2*_11  and  O2*_21
REMARK    6  A    between atoms: C3*_13  and  O3*_20
REMARK    7  A    between atoms: C4*_15  and  C5*_18
REMARK    8  A    between atoms: C5*_18  and  O5*_19
REMARK                            x       y       z     vdW  Elec       q    Type
REMARK                         _______ _______ _______ _____ _____    ______ ____
ROOT
ATOM      1  N   UNL     1       2.401   1.108  -0.015  0.00  0.00    -0.317 N 
ATOM      2  H   UNL     1       3.224   1.615   0.067  0.00  0.00    +0.149 HD
ENDROOT
BRANCH   1   9
ATOM      3  C   UNL     1       2.401   3.952   0.045  0.00  0.00    +0.045 C 
ATOM      4  C   UNL     1       1.145   3.160  -0.211  0.00  0.00    -0.029 A 
ATOM      5  C   UNL     1      -0.053   3.812  -0.425  0.00  0.00    +0.007 A 
ATOM      6  C   UNL     1      -1.206   3.086  -0.660  0.00  0.00    +0.033 A 
ATOM      7  C   UNL     1      -1.163   1.704  -0.686  0.00  0.00    +0.128 A 
ATOM      8  C   UNL     1       0.031   1.045  -0.467  0.00  0.00    +0.056 A 
ATOM      9  C   UNL     1       1.191   1.772  -0.231  0.00  0.00    +0.034 A 
BRANCH   7  10
ATOM     10  N   UNL     1      -2.398   0.930  -0.944  0.00  0.00    +0.056 N 
ATOM     11  O   UNL     1      -2.361  -0.287  -0.963  0.00  0.00    -0.126 OA
ATOM     12  O   UNL     1      -3.451   1.511  -1.137  0.00  0.00    -0.126 OA
ENDBRANCH   7  10
ENDBRANCH   1   9
BRANCH   1  13
ATOM     13  C1* UNL     1       2.427  -0.353   0.086  0.00  0.00    +0.235 C 
ATOM     14  C2* UNL     1       3.518  -0.789   1.083  0.00  0.00    +0.192 C 
ATOM     15  C3* UNL     1       4.510  -1.612   0.225  0.00  0.00    +0.178 C 
ATOM     16  C4* UNL     1       4.191  -1.112  -1.207  0.00  0.00    +0.177 C 
ATOM     17  O4* UNL     1       2.756  -0.926  -1.190  0.00  0.00    -0.348 OA
BRANCH  15  18
ATOM     18  O3* UNL     1       5.861  -1.314   0.581  0.00  0.00    -0.386 OA
ATOM     19  H3* UNL     1       6.082  -1.527   1.498  0.00  0.00    +0.210 HD
ENDBRANCH  15  18
BRANCH  14  20
ATOM     20  O2* UNL     1       2.956  -1.600   2.117  0.00  0.00    -0.385 OA
ATOM     21  H2* UNL     1       2.285  -1.149   2.650  0.00  0.00    +0.210 HD
ENDBRANCH  14  20
BRANCH  16  22
ATOM     22  C5* UNL     1       4.585  -2.164  -2.245  0.00  0.00    +0.190 C 
BRANCH  22  23
ATOM     23  O5* UNL     1       4.391  -1.634  -3.558  0.00  0.00    -0.392 OA
ATOM     24  H5* UNL     1       4.621  -2.249  -4.269  0.00  0.00    +0.210 HD
ENDBRANCH  22  23
ENDBRANCH  16  22
ENDBRANCH   1  13
TORSDOF 7
