REMARK  Name = ZINC26371506
REMARK  12 active torsions:
REMARK  status: ('A' for Active; 'I' for Inactive)
REMARK    1  A    between atoms: C_1  and  C_2
REMARK    2  A    between atoms: C_5  and  N_9
REMARK    3  A    between atoms: C_10  and  C_12
REMARK    4  A    between atoms: C_12  and  C_14
REMARK    5  A    between atoms: C_12  and  N_15
REMARK    6  A    between atoms: N_15  and  C_16
REMARK    7  A    between atoms: N_15  and  C_17
REMARK    8  A    between atoms: C_17  and  C_18
REMARK    9  A    between atoms: N_20  and  C_21
REMARK   10  A    between atoms: C_22  and  C_29
REMARK   11  A    between atoms: C_24  and  C_28
REMARK   12  A    between atoms: C_26  and  C_27
REMARK                            x       y       z     vdW  Elec       q    Type
REMARK                         _______ _______ _______ _____ _____    ______ ____
ROOT
ATOM      1  N   UNL     1       3.776   7.720   0.690  0.00  0.00    +0.391 N 
ATOM      2  C   UNL     1       2.996   8.235   1.824  0.00  0.00    -0.094 C 
ATOM      3  H   UNL     1       3.315   8.095  -0.235  0.00  0.00    -0.080 HD
ENDROOT
BRANCH   1   4
ATOM      4  C   UNL     1       5.160   8.210   0.737  0.00  0.00    +0.017 C 
ATOM      5  C   UNL     1       5.924   7.479   1.842  0.00  0.00    -0.004 C 
BRANCH   4   7
ATOM      6  N   UNL     1       7.108   8.332  -0.782  0.00  0.00    -0.285 N 
ATOM      7  C   UNL     1       5.828   7.955  -0.589  0.00  0.00    +0.203 C 
ATOM      8  O   UNL     1       5.215   7.411  -1.483  0.00  0.00    -0.277 OA
ATOM      9  H   UNL     1       7.694   8.739   0.055  0.00  0.00    +0.155 HD
BRANCH   6  14
ATOM     10  C   UNL     1       9.470   7.826  -5.918  0.00  0.00    +0.044 C 
ATOM     11  C   UNL     1       8.844   7.959  -4.554  0.00  0.00    -0.048 A 
ATOM     12  C   UNL     1       7.488   8.204  -4.439  0.00  0.00    +0.005 A 
ATOM     13  C   UNL     1       6.910   8.328  -3.190  0.00  0.00    +0.026 A 
ATOM     14  C   UNL     1       7.691   8.206  -2.050  0.00  0.00    +0.069 A 
ATOM     15  C   UNL     1       9.055   7.965  -2.168  0.00  0.00    +0.145 A 
ATOM     16  C   UNL     1       9.627   7.837  -3.421  0.00  0.00    +0.043 A 
ATOM     17  F   UNL     1       9.821   7.851  -1.060  0.00  0.00    -0.204 F 
ENDBRANCH   6  14
ENDBRANCH   4   7
ENDBRANCH   1   4
BRANCH   1  18
ATOM     18  C   UNL     1       3.739   6.252   0.650  0.00  0.00    +0.020 C 
BRANCH  18  19
ATOM     19  C   UNL     1       2.334   5.792   0.357  0.00  0.00    +0.201 C 
ATOM     20  O   UNL     1       1.451   6.607   0.197  0.00  0.00    -0.278 OA
ATOM     21  N   UNL     1       2.060   4.475   0.272  0.00  0.00    -0.287 N 
ATOM     22  H   UNL     1       2.876   3.739   0.327  0.00  0.00    +0.155 HD
BRANCH  21  23
ATOM     23  C   UNL     1       0.738   4.045   0.115  0.00  0.00    +0.039 A 
ATOM     24  C   UNL     1      -0.018   4.496  -0.958  0.00  0.00    -0.029 A 
ATOM     25  C   UNL     1      -1.323   4.069  -1.111  0.00  0.00    +0.008 A 
ATOM     26  C   UNL     1      -1.878   3.197  -0.193  0.00  0.00    -0.050 A 
ATOM     27  C   UNL     1      -1.126   2.741   0.875  0.00  0.00    +0.008 A 
ATOM     28  C   UNL     1       0.179   3.164   1.033  0.00  0.00    -0.029 A 
ATOM     29  C   UNL     1       0.996   2.672   2.200  0.00  0.00    +0.045 C 
ATOM     30  C   UNL     1      -3.303   2.737  -0.359  0.00  0.00    +0.044 C 
ATOM     31  C   UNL     1       0.584   5.452  -1.956  0.00  0.00    +0.045 C 
ENDBRANCH  21  23
ENDBRANCH  18  19
ENDBRANCH   1  18
TORSDOF 6
