REMARK  Name = ZINC34792481
REMARK  4 active torsions:
REMARK  status: ('A' for Active; 'I' for Inactive)
REMARK    1  A    between atoms: C_1  and  O_2
REMARK    2  A    between atoms: O_2  and  C_3
REMARK    3  A    between atoms: C_3  and  C_5
REMARK    4  A    between atoms: C_18  and  C_21
REMARK                            x       y       z     vdW  Elec       q    Type
REMARK                         _______ _______ _______ _____ _____    ______ ____
ROOT
ATOM      1  C   UNL     1       0.657  -2.104  -1.120  0.00  0.00    +0.169 C 
ATOM      2  C   UNL     1       1.795  -2.617  -0.227  0.00  0.00    +0.067 C 
ATOM      3  C   UNL     1       2.004  -4.079  -0.533  0.00  0.00    -0.015 A 
ATOM      4  C   UNL     1       2.719  -5.081   0.225  0.00  0.00    +0.003 A 
ATOM      5  C   UNL     1       3.420  -5.038   1.434  0.00  0.00    +0.010 A 
ATOM      6  C   UNL     1       3.986  -6.212   1.866  0.00  0.00    +0.001 A 
ATOM      7  C   UNL     1       3.875  -7.391   1.148  0.00  0.00    +0.002 A 
ATOM      8  C   UNL     1       3.187  -7.463  -0.051  0.00  0.00    +0.026 A 
ATOM      9  C   UNL     1       2.602  -6.287  -0.515  0.00  0.00    +0.047 A 
ATOM     10  N   UNL     1       1.867  -6.009  -1.633  0.00  0.00    -0.356 N 
ATOM     11  H   UNL     1       1.632  -6.652  -2.319  0.00  0.00    +0.166 HD
ATOM     12  C   UNL     1       1.514  -4.687  -1.637  0.00  0.00    +0.042 A 
ATOM     13  C   UNL     1       0.704  -3.962  -2.686  0.00  0.00    +0.132 C 
ATOM     14  N   UNL     1       0.903  -2.514  -2.509  0.00  0.00    -0.292 NA
ATOM     15  H   UNL     1       0.325  -1.989  -3.149  0.00  0.00    +0.124 HD
ENDROOT
BRANCH  13  16
ATOM     16  C   UNL     1       1.165  -4.377  -4.059  0.00  0.00    -0.021 A 
ATOM     17  C   UNL     1       2.309  -3.820  -4.600  0.00  0.00    +0.009 A 
ATOM     18  C   UNL     1       2.735  -4.197  -5.860  0.00  0.00    +0.050 A 
ATOM     19  C   UNL     1       2.015  -5.136  -6.584  0.00  0.00    +0.162 A 
ATOM     20  C   UNL     1       0.867  -5.698  -6.039  0.00  0.00    +0.162 A 
ATOM     21  C   UNL     1       0.448  -5.318  -4.772  0.00  0.00    +0.055 A 
ATOM     22  O   UNL     1       0.151  -6.627  -6.729  0.00  0.00    -0.485 OA
ATOM     23  C   UNL     1       0.394  -6.711  -8.137  0.00  0.00    +0.270 C 
ATOM     24  C   UNL     1       1.912  -6.710  -8.364  0.00  0.00    +0.270 C 
ATOM     25  O   UNL     1       2.444  -5.495  -7.825  0.00  0.00    -0.485 OA
ENDBRANCH  13  16
BRANCH   1  26
ATOM     26  C   UNL     1       0.598  -0.600  -1.043  0.00  0.00    +0.324 C 
ATOM     27  O   UNL     1       1.088   0.070  -1.921  0.00  0.00    -0.249 OA
BRANCH  26  29
ATOM     28  C   UNL     1      -0.017   1.425   0.010  0.00  0.00    +0.280 C 
ATOM     29  O   UNL     1       0.002  -0.004   0.002  0.00  0.00    -0.467 OA
ENDBRANCH  26  29
ENDBRANCH   1  26
TORSDOF 3
