REMARK  Name = ZINC11787917
REMARK  12 active torsions:
REMARK  status: ('A' for Active; 'I' for Inactive)
REMARK    1  A    between atoms: C_1  and  C_2
REMARK    2  A    between atoms: C_2  and  C_3
REMARK    3  A    between atoms: C_2  and  C_4
REMARK    4  A    between atoms: C_4  and  C_5
REMARK    5  A    between atoms: C_5  and  C_6
REMARK    6  A    between atoms: C_6  and  C_17
REMARK    7  A    between atoms: N_9  and  C_13
REMARK    8  A    between atoms: C_13  and  C_14
REMARK    9  A    between atoms: C_14  and  N_73
REMARK   10  A    between atoms: C_15  and  N_73
REMARK   11  A    between atoms: C_16  and  N_73
REMARK   12  A    between atoms: C_23  and  C_25
REMARK                            x       y       z     vdW  Elec       q    Type
REMARK                         _______ _______ _______ _____ _____    ______ ____
ROOT
ATOM      1  C   UNL     1      -0.871   9.079  -2.538  0.00  0.00    +0.115 C 
ATOM      2  C   UNL     1      -0.165  10.419  -2.599  0.00  0.00    +0.247 C 
ATOM      3  O   UNL     1      -0.203  11.305  -1.773  0.00  0.00    -0.273 OA
ATOM      4  N   UNL     1       0.516  10.419  -3.762  0.00  0.00    -0.226 N 
ATOM      5  C   UNL     1       0.339   9.278  -4.438  0.00  0.00    +0.309 C 
ATOM      6  O   UNL     1       0.852   9.044  -5.515  0.00  0.00    -0.252 OA
ATOM      7  N   UNL     1      -0.469   8.418  -3.792  0.00  0.00    -0.285 N 
ATOM      8  H   UNL     1      -0.735   7.535  -4.092  0.00  0.00    +0.151 HD
ENDROOT
BRANCH   1   9
ATOM      9  C   UNL     1      -0.394   8.274  -1.328  0.00  0.00    +0.024 C 
ATOM     10  C   UNL     1       1.117   8.050  -1.428  0.00  0.00    +0.025 C 
ATOM     11  C   UNL     1       1.596   7.273  -0.197  0.00  0.00    +0.108 C 
ATOM     12  N   UNL     1       0.809   6.037  -0.082  0.00  0.00    -0.296 N 
ATOM     13  C   UNL     1      -0.657   6.132  -0.074  0.00  0.00    +0.108 C 
ATOM     14  C   UNL     1      -1.111   6.922  -1.300  0.00  0.00    +0.025 C 
ATOM     15  C   UNL     1       1.421   4.840   0.009  0.00  0.00    +0.269 C 
ATOM     16  O   UNL     1       2.632   4.781   0.086  0.00  0.00    -0.268 OA
BRANCH  15  17
ATOM     17  C   UNL     1       0.615   3.595   0.017  0.00  0.00    +0.171 A 
ATOM     18  C   UNL     1       1.096   2.269  -0.007  0.00  0.00    +0.027 A 
ATOM     19  C   UNL     1      -0.019   1.502   0.010  0.00  0.00    +0.141 A 
ATOM     20  O   UNL     1      -1.056   2.337   0.038  0.00  0.00    -0.359 OA
ATOM     21  N   UNL     1      -0.696   3.497   0.046  0.00  0.00    -0.073 NA
ATOM     22  C   UNL     1       0.001  -0.004  -0.008  0.00  0.00    +0.077 C 
ATOM     23  C   UNL     1       1.391  -0.462  -0.466  0.00  0.00    +0.008 C 
ATOM     24  C   UNL     1       2.468   0.259   0.349  0.00  0.00    +0.005 C 
ATOM     25  C   UNL     1       2.501   1.743  -0.043  0.00  0.00    +0.041 C 
ENDBRANCH  15  17
ENDBRANCH   1   9
BRANCH   1  26
ATOM     26  C   UNL     1      -2.388   9.272  -2.490  0.00  0.00    +0.036 C 
BRANCH  26  27
ATOM     27  C   UNL     1      -2.854   9.970  -3.769  0.00  0.00    +0.005 C 
BRANCH  27  29
ATOM     28  C   UNL     1      -4.727  11.123  -2.584  0.00  0.00    +0.007 C 
ATOM     29  C   UNL     1      -4.371  10.163  -3.721  0.00  0.00    -0.017 C 
ATOM     30  C   UNL     1      -4.853  10.746  -5.051  0.00  0.00    +0.007 C 
ENDBRANCH  27  29
ENDBRANCH  26  27
ENDBRANCH   1  26
BRANCH   4  31
ATOM     31  C   UNL     1       1.346  11.532  -4.230  0.00  0.00    +0.099 C 
BRANCH  31  32
ATOM     32  C   UNL     1       2.778  11.348  -3.724  0.00  0.00    -0.060 C 
BRANCH  32  35
ATOM     33  C   UNL     1       3.184  13.731  -3.583  0.00  0.00    -0.097 C 
ATOM     34  C   UNL     1       5.032  12.207  -3.932  0.00  0.00    -0.097 C 
ATOM     35  N   UNL     1       3.607  12.467  -4.222  0.00  0.00    +0.377 N 
ATOM     36  H   UNL     1       3.482  12.548  -5.237  0.00  0.00    -0.083 HD
ENDBRANCH  32  35
ENDBRANCH  31  32
ENDBRANCH   4  31
TORSDOF 8
