REMARK  Name = ZINC39656115
REMARK  10 active torsions:
REMARK  status: ('A' for Active; 'I' for Inactive)
REMARK    1  A    between atoms: C_1  and  C_2
REMARK    2  A    between atoms: C_8  and  C_11
REMARK    3  A    between atoms: C_11  and  C_12
REMARK    4  A    between atoms: C_12  and  N_13
REMARK    5  A    between atoms: C_14  and  C_16
REMARK    6  A    between atoms: C_27  and  C_29
REMARK    7  A    between atoms: C_31  and  O_37
REMARK    8  A    between atoms: C_34  and  O_35
REMARK    9  A    between atoms: O_35  and  C_36
REMARK   10  A    between atoms: O_37  and  C_38
REMARK                            x       y       z     vdW  Elec       q    Type
REMARK                         _______ _______ _______ _____ _____    ______ ____
ROOT
ATOM      1  C   UNL     1       4.618  -0.110  -7.498  0.00  0.00    +0.100 C 
ATOM      2  C   UNL     1       4.720   0.718  -8.799  0.00  0.00    +0.121 C 
ATOM      3  N   UNL     1       5.636  -0.059  -9.667  0.00  0.00    -0.296 N 
ATOM      4  C   UNL     1       5.257  -1.473  -9.430  0.00  0.00    +0.115 C 
ATOM      5  C   UNL     1       4.971  -1.547  -7.917  0.00  0.00    -0.004 C 
ATOM      6  C   UNL     1       3.793  -2.479  -7.648  0.00  0.00    -0.010 C 
ATOM      7  C   UNL     1       4.187  -3.912  -8.018  0.00  0.00    -0.082 C 
ATOM      8  N   UNL     1       5.351  -4.321  -7.223  0.00  0.00    +0.379 N 
ATOM      9  C   UNL     1       6.506  -3.478  -7.556  0.00  0.00    -0.082 C 
ATOM     10  C   UNL     1       6.210  -2.027  -7.167  0.00  0.00    -0.010 C 
ATOM     11  C   UNL     1       6.596   0.412 -10.487  0.00  0.00    +0.250 C 
ATOM     12  O   UNL     1       6.855   1.600 -10.500  0.00  0.00    -0.270 OA
ATOM     13  H   UNL     1       5.138  -4.225  -6.242  0.00  0.00    -0.086 HD
ATOM     14  H   UNL     1       5.572  -5.285  -7.423  0.00  0.00    -0.086 HD
ENDROOT
BRANCH  11  15
ATOM     15  C   UNL     1       7.333  -0.513 -11.368  0.00  0.00    +0.082 A 
ATOM     16  C   UNL     1       6.683  -1.615 -11.931  0.00  0.00    +0.062 A 
ATOM     17  C   UNL     1       7.380  -2.477 -12.756  0.00  0.00    +0.121 A 
ATOM     18  C   UNL     1       8.725  -2.252 -13.026  0.00  0.00    +0.049 A 
ATOM     19  C   UNL     1       9.375  -1.167 -12.474  0.00  0.00    +0.050 A 
ATOM     20  C   UNL     1       8.687  -0.289 -11.649  0.00  0.00    +0.132 A 
BRANCH  20  21
ATOM     21  O   UNL     1       9.326   0.781 -11.111  0.00  0.00    -0.494 OA
ATOM     22  C   UNL     1      10.707   0.946 -11.441  0.00  0.00    +0.277 C 
ENDBRANCH  20  21
BRANCH  17  23
ATOM     23  O   UNL     1       6.749  -3.549 -13.305  0.00  0.00    -0.495 OA
ATOM     24  C   UNL     1       7.529  -4.400 -14.148  0.00  0.00    +0.277 C 
ENDBRANCH  17  23
ENDBRANCH  11  15
BRANCH   1  26
ATOM     25  N   UNL     1       2.990  -0.333  -5.649  0.00  0.00    -0.315 N 
ATOM     26  C   UNL     1       3.217  -0.052  -6.948  0.00  0.00    +0.218 C 
ATOM     27  O   UNL     1       2.292   0.248  -7.673  0.00  0.00    -0.275 OA
ATOM     28  H   UNL     1       3.730  -0.573  -5.069  0.00  0.00    +0.149 HD
BRANCH  25  29
ATOM     29  C   UNL     1       1.628  -0.277  -5.114  0.00  0.00    +0.109 C 
BRANCH  29  30
ATOM     30  C   UNL     1       1.649  -0.637  -3.627  0.00  0.00    +0.056 C 
BRANCH  30  38
ATOM     31  C   UNL     1      -1.890  -5.121  -4.066  0.00  0.00    +0.044 C 
ATOM     32  C   UNL     1      -1.883  -3.718  -3.514  0.00  0.00    -0.050 A 
ATOM     33  C   UNL     1      -3.017  -3.218  -2.890  0.00  0.00    +0.005 A 
ATOM     34  C   UNL     1      -3.032  -1.938  -2.380  0.00  0.00    +0.026 A 
ATOM     35  C   UNL     1      -1.900  -1.138  -2.490  0.00  0.00    +0.047 A 
ATOM     36  N   UNL     1      -1.605   0.148  -2.094  0.00  0.00    -0.360 N 
ATOM     37  C   UNL     1      -0.323   0.463  -2.452  0.00  0.00    +0.087 A 
ATOM     38  C   UNL     1       0.247  -0.579  -3.077  0.00  0.00    -0.021 A 
ATOM     39  C   UNL     1      -0.752  -1.650  -3.123  0.00  0.00    +0.003 A 
ATOM     40  C   UNL     1      -0.758  -2.951  -3.628  0.00  0.00    +0.013 A 
ATOM     41  H   UNL     1      -2.216   0.742  -1.630  0.00  0.00    +0.165 HD
ENDBRANCH  30  38
ENDBRANCH  29  30
ENDBRANCH  25  29
ENDBRANCH   1  26
TORSDOF 7
