REMARK  Name = ZINC04744615
REMARK  6 active torsions:
REMARK  status: ('A' for Active; 'I' for Inactive)
REMARK    1  A    between atoms: N_9  and  C_12
REMARK    2  A    between atoms: C_12  and  C_13
REMARK    3  A    between atoms: N_15  and  N_16
REMARK    4  A    between atoms: N_16  and  C_17
REMARK    5  A    between atoms: C_17  and  N_19
REMARK    6  A    between atoms: N_19  and  C_20
REMARK                            x       y       z     vdW  Elec       q    Type
REMARK                         _______ _______ _______ _____ _____    ______ ____
ROOT
ATOM      1  C   UNL     1      -0.054  -0.003  -0.056  0.00  0.00    +0.251 C 
ATOM      2  O   UNL     1       0.972  -0.614   0.154  0.00  0.00    -0.272 OA
ATOM      3  N   UNL     1      -0.053   1.345  -0.033  0.00  0.00    -0.234 N 
ATOM      4  H   UNL     1      -0.874   1.833  -0.205  0.00  0.00    +0.173 HD
ENDROOT
BRANCH   3   5
ATOM      5  N   UNL     1       1.133   2.040   0.234  0.00  0.00    -0.246 N 
ATOM      6  H   UNL     1       1.954   1.552   0.402  0.00  0.00    +0.172 HD
BRANCH   5   7
ATOM      7  C   UNL     1       1.134   3.387   0.257  0.00  0.00    +0.151 C 
ATOM      8  S   UNL     1       2.584   4.237   0.584  0.00  0.00    -0.017 S 
BRANCH   7   9
ATOM      9  N   UNL     1      -0.007   4.066   0.024  0.00  0.00    -0.295 N 
ATOM     10  H   UNL     1      -0.814   3.588  -0.223  0.00  0.00    +0.154 HD
BRANCH   9  11
ATOM     11  C   UNL     1      -0.027   5.461   0.137  0.00  0.00    +0.051 A 
ATOM     12  C   UNL     1       0.969   6.222  -0.459  0.00  0.00    +0.025 A 
ATOM     13  C   UNL     1       0.944   7.599  -0.350  0.00  0.00    +0.002 A 
ATOM     14  C   UNL     1      -0.067   8.219   0.361  0.00  0.00    +0.002 A 
ATOM     15  C   UNL     1      -1.058   7.465   0.962  0.00  0.00    +0.022 A 
ATOM     16  C   UNL     1      -1.041   6.087   0.852  0.00  0.00    +0.062 A 
ATOM     17 CL   UNL     1      -2.285   5.140   1.606  0.00  0.00    -0.082 Cl
ENDBRANCH   9  11
ENDBRANCH   7   9
ENDBRANCH   5   7
ENDBRANCH   3   5
BRANCH   1  18
ATOM     18  C   UNL     1      -1.331  -0.751  -0.343  0.00  0.00    +0.244 C 
BRANCH  18  27
ATOM     19  C   UNL     1      -0.419  -7.024   0.813  0.00  0.00    +0.001 A 
ATOM     20  C   UNL     1      -0.792  -6.410   2.002  0.00  0.00    +0.001 A 
ATOM     21  C   UNL     1      -1.052  -5.057   2.043  0.00  0.00    +0.014 A 
ATOM     22  C   UNL     1      -0.937  -4.302   0.876  0.00  0.00    +0.050 A 
ATOM     23  C   UNL     1      -0.557  -4.931  -0.331  0.00  0.00    +0.007 A 
ATOM     24  C   UNL     1      -0.301  -6.304  -0.343  0.00  0.00    +0.010 A 
ATOM     25  C   UNL     1      -0.445  -4.115  -1.540  0.00  0.00    +0.141 A 
ATOM     26  N   UNL     1      -0.698  -2.841  -1.490  0.00  0.00    -0.176 NA
ATOM     27  N   UNL     1      -1.070  -2.192  -0.312  0.00  0.00    -0.220 N 
ATOM     28  C   UNL     1      -1.200  -2.858   0.855  0.00  0.00    +0.275 A 
ATOM     29  O   UNL     1      -1.530  -2.272   1.870  0.00  0.00    -0.266 OA
ENDBRANCH  18  27
ENDBRANCH   1  18
TORSDOF 6
