REMARK  Name = ZINC42747820
REMARK  5 active torsions:
REMARK  status: ('A' for Active; 'I' for Inactive)
REMARK    1  A    between atoms: C_1  and  C_2
REMARK    2  A    between atoms: C_5  and  S_9
REMARK    3  A    between atoms: S_9  and  N_12
REMARK    4  A    between atoms: C_14  and  C_21
REMARK    5  A    between atoms: C_18  and  C_20
REMARK                            x       y       z     vdW  Elec       q    Type
REMARK                         _______ _______ _______ _____ _____    ______ ____
ROOT
ATOM      1  N   UNL     1       1.458  -5.330   0.733  0.00  0.00    -0.173 NA
ATOM      2  C   UNL     1       2.730  -5.512   0.021  0.00  0.00    +0.122 C 
ATOM      3  C   UNL     1       3.477  -6.698   0.640  0.00  0.00    +0.090 C 
ATOM      4  C   UNL     1       3.627  -6.470   2.146  0.00  0.00    +0.015 C 
ATOM      5  C   UNL     1       2.242  -6.382   2.791  0.00  0.00    +0.021 C 
ATOM      6  C   UNL     1       1.482  -5.188   2.195  0.00  0.00    +0.077 C 
ATOM      7  C   UNL     1       0.049  -5.170   2.732  0.00  0.00    +0.026 C 
ENDROOT
BRANCH   3   8
ATOM      8  C   UNL     1       4.841  -6.817   0.011  0.00  0.00    +0.215 C 
ATOM      9  O   UNL     1       5.184  -6.032  -0.849  0.00  0.00    -0.276 OA
ATOM     10  N   UNL     1       5.681  -7.796   0.402  0.00  0.00    -0.329 N 
ATOM     11  H   UNL     1       5.407  -8.423   1.090  0.00  0.00    +0.145 HD
ATOM     12  H   UNL     1       6.559  -7.873  -0.003  0.00  0.00    +0.145 HD
ENDBRANCH   3   8
BRANCH   1  13
ATOM     13  S   UNL     1       0.026  -5.281  -0.097  0.00  0.00    +0.062 S 
ATOM     14  O   UNL     1       0.357  -5.116  -1.469  0.00  0.00    -0.153 OA
ATOM     15  O   UNL     1      -0.815  -4.370   0.599  0.00  0.00    -0.153 OA
BRANCH  13  20
ATOM     16  C   UNL     1      -2.529 -10.723   0.420  0.00  0.00    +0.044 C 
ATOM     17  C   UNL     1      -1.890  -9.364   0.291  0.00  0.00    -0.049 A 
ATOM     18  C   UNL     1      -2.481  -8.264   0.884  0.00  0.00    +0.005 A 
ATOM     19  C   UNL     1      -1.895  -7.017   0.766  0.00  0.00    +0.030 A 
ATOM     20  C   UNL     1      -0.719  -6.870   0.055  0.00  0.00    +0.124 A 
ATOM     21  C   UNL     1      -0.128  -7.971  -0.539  0.00  0.00    +0.068 A 
ATOM     22  C   UNL     1      -0.711  -9.220  -0.415  0.00  0.00    +0.025 A 
ATOM     23 CL   UNL     1       1.349  -7.787  -1.432  0.00  0.00    -0.082 Cl
ENDBRANCH  13  20
ENDBRANCH   1  13
TORSDOF 3
