REMARK  Name = ZINC64449032
REMARK  8 active torsions:
REMARK  status: ('A' for Active; 'I' for Inactive)
REMARK    1  A    between atoms: C_1  and  C_2
REMARK    2  A    between atoms: C_6  and  C_15
REMARK    3  A    between atoms: N_8  and  C_9
REMARK    4  A    between atoms: C_21  and  N_24
REMARK    5  A    between atoms: N_24  and  C_25
REMARK    6  A    between atoms: N_24  and  C_26
REMARK    7  A    between atoms: C_26  and  C_27
REMARK    8  A    between atoms: C_27  and  O_28
REMARK                            x       y       z     vdW  Elec       q    Type
REMARK                         _______ _______ _______ _____ _____    ______ ____
ROOT
ATOM      1  C   UNL     1       0.068  -4.310   0.390  0.00  0.00    +0.273 C 
ATOM      2  O   UNL     1      -0.012  -5.010  -0.601  0.00  0.00    -0.268 OA
ATOM      3  N   UNL     1       0.157  -4.877   1.610  0.00  0.00    -0.265 N 
ATOM      4  C   UNL     1       0.269  -6.263   1.728  0.00  0.00    +0.125 A 
ATOM      5  C   UNL     1       0.471  -6.832   2.980  0.00  0.00    +0.045 A 
ATOM      6  C   UNL     1       0.581  -8.206   3.087  0.00  0.00    +0.028 A 
ATOM      7  C   UNL     1       0.483  -8.972   1.926  0.00  0.00    +0.048 A 
ATOM      8  C   UNL     1       0.281  -8.335   0.711  0.00  0.00    +0.136 A 
ATOM      9  N   UNL     1       0.177  -7.021   0.647  0.00  0.00    -0.238 NA
ATOM     10  H   UNL     1       0.143  -4.322   2.405  0.00  0.00    +0.157 HD
ENDROOT
BRANCH   1  16
ATOM     11  C   UNL     1       0.074   1.386   0.069  0.00  0.00    +0.066 C 
ATOM     12  C   UNL     1       0.065  -0.121   0.067  0.00  0.00    +0.044 A 
ATOM     13  C   UNL     1      -0.027  -0.788  -1.108  0.00  0.00    +0.076 A 
ATOM     14  C   UNL     1      -0.032  -2.206  -1.066  0.00  0.00    +0.213 A 
ATOM     15  O   UNL     1      -0.112  -2.873  -2.086  0.00  0.00    -0.285 OA
ATOM     16  C   UNL     1       0.066  -2.840   0.259  0.00  0.00    +0.193 A 
ATOM     17  N   UNL     1       0.150  -2.071   1.324  0.00  0.00    -0.158 NA
ATOM     18  N   UNL     1       0.156  -0.792   1.242  0.00  0.00    -0.236 N 
BRANCH  18  19
ATOM     19  C   UNL     1       0.255  -0.051   2.424  0.00  0.00    +0.066 A 
ATOM     20  C   UNL     1      -0.633  -0.283   3.467  0.00  0.00    +0.028 A 
ATOM     21  C   UNL     1      -0.532   0.450   4.634  0.00  0.00    +0.002 A 
ATOM     22  C   UNL     1       0.451   1.414   4.763  0.00  0.00    +0.000 A 
ATOM     23  C   UNL     1       1.336   1.648   3.727  0.00  0.00    +0.002 A 
ATOM     24  C   UNL     1       1.244   0.915   2.560  0.00  0.00    +0.028 A 
ENDBRANCH  18  19
ENDBRANCH   1  16
BRANCH   7  25
ATOM     25  N   UNL     1       0.589 -10.366   1.986  0.00  0.00    -0.330 N 
ATOM     26  C   UNL     1       0.803 -11.030   3.275  0.00  0.00    +0.129 C 
BRANCH  25  27
ATOM     27  C   UNL     1       0.485 -11.162   0.761  0.00  0.00    +0.132 C 
BRANCH  27  28
ATOM     28  C   UNL     1       1.876 -11.339   0.149  0.00  0.00    +0.174 C 
BRANCH  28  29
ATOM     29  O   UNL     1       2.691 -12.112   1.033  0.00  0.00    -0.393 OA
ATOM     30  H   UNL     1       3.589 -12.264   0.708  0.00  0.00    +0.209 HD
ENDBRANCH  28  29
ENDBRANCH  27  28
ENDBRANCH  25  27
ENDBRANCH   7  25
TORSDOF 6
