REMARK  Name = ZINC27533370
REMARK  7 active torsions:
REMARK  status: ('A' for Active; 'I' for Inactive)
REMARK    1  A    between atoms: C_1  and  C_2
REMARK    2  A    between atoms: C_2  and  O_3
REMARK    3  A    between atoms: O_3  and  C_4
REMARK    4  A    between atoms: C_7  and  C_10
REMARK    5  A    between atoms: C_12  and  C_30
REMARK    6  A    between atoms: C_13  and  N_29
REMARK    7  A    between atoms: C_20  and  C_23
REMARK                            x       y       z     vdW  Elec       q    Type
REMARK                         _______ _______ _______ _____ _____    ______ ____
ROOT
ATOM      1  C   UNL     1       5.632   6.811   0.031  0.00  0.00    +0.101 C 
ATOM      2  C   UNL     1       6.351   6.679   1.344  0.00  0.00    +0.098 C 
ATOM      3  C   UNL     1       5.692   6.245   2.446  0.00  0.00    +0.198 C 
ATOM      4  O   UNL     1       4.389   5.928   2.402  0.00  0.00    -0.445 OA
ATOM      5  C   UNL     1       3.815   5.616   1.225  0.00  0.00    +0.115 C 
ATOM      6  C   UNL     1       4.355   6.006   0.056  0.00  0.00    +0.046 C 
ATOM      7  C   UNL     1       3.756   5.674  -1.174  0.00  0.00    +0.164 C 
ATOM      8  O   UNL     1       4.262   6.063  -2.208  0.00  0.00    -0.292 OA
ATOM      9  C   UNL     1       2.501   4.846  -1.232  0.00  0.00    +0.088 C 
ATOM     10  C   UNL     1       2.451   3.937   0.000  0.00  0.00    +0.034 C 
ATOM     11  C   UNL     1       2.535   4.812   1.252  0.00  0.00    +0.083 C 
ENDROOT
BRANCH   1  15
ATOM     12  C   UNL     1       4.699  10.923  -0.667  0.00  0.00    +0.121 A 
ATOM     13  C   UNL     1       5.503  10.231  -1.561  0.00  0.00    +0.046 A 
ATOM     14  C   UNL     1       5.803   8.902  -1.333  0.00  0.00    +0.008 A 
ATOM     15  C   UNL     1       5.303   8.261  -0.215  0.00  0.00    -0.034 A 
ATOM     16  C   UNL     1       4.497   8.947   0.675  0.00  0.00    +0.008 A 
ATOM     17  C   UNL     1       4.199  10.277   0.455  0.00  0.00    +0.046 A 
BRANCH  12  18
ATOM     18  O   UNL     1       4.402  12.230  -0.889  0.00  0.00    -0.492 OA
BRANCH  18  20
ATOM     19  C   UNL     1       3.346  14.334  -0.342  0.00  0.00    +0.048 C 
ATOM     20  C   UNL     1       3.569  12.879   0.074  0.00  0.00    +0.225 C 
ENDBRANCH  18  20
ENDBRANCH  12  18
ENDBRANCH   1  15
BRANCH  10  21
ATOM     21  C   UNL     1       1.156   3.165   0.008  0.00  0.00    -0.043 A 
ATOM     22  C   UNL     1       1.175   1.783   0.000  0.00  0.00    +0.004 A 
ATOM     23  C   UNL     1      -0.013   1.076   0.008  0.00  0.00    +0.000 A 
ATOM     24  C   UNL     1      -1.219   1.751   0.017  0.00  0.00    +0.000 A 
ATOM     25  C   UNL     1      -1.238   3.133   0.029  0.00  0.00    +0.000 A 
ATOM     26  C   UNL     1      -0.050   3.840   0.022  0.00  0.00    +0.004 A 
ENDBRANCH  10  21
BRANCH   3  27
ATOM     27  N   UNL     1       6.372   6.128   3.633  0.00  0.00    -0.328 N 
ATOM     28  H   UNL     1       5.848   5.777   4.535  0.00  0.00    +0.145 HD
ATOM     29  H   UNL     1       7.441   6.384   3.682  0.00  0.00    +0.145 HD
ENDBRANCH   3  27
BRANCH   2  30
ATOM     30  C   UNL     1       7.741   7.013   1.431  0.00  0.00    +0.101 C 
ATOM     31  N   UNL     1       8.843   7.278   1.501  0.00  0.00    -0.191 NA
ENDBRANCH   2  30
TORSDOF 6
