REMARK  Name = ZINC09355626
REMARK  5 active torsions:
REMARK  status: ('A' for Active; 'I' for Inactive)
REMARK    1  A    between atoms: C_1  and  C_2
REMARK    2  A    between atoms: N_8  and  C_9
REMARK    3  A    between atoms: C_9  and  C_10
REMARK    4  A    between atoms: C_26  and  C_30
REMARK    5  A    between atoms: C_27  and  N_29
REMARK                            x       y       z     vdW  Elec       q    Type
REMARK                         _______ _______ _______ _____ _____    ______ ____
ROOT
ATOM      1  C   UNL     1      -2.732   3.648   0.290  0.00  0.00    +0.064 C 
ATOM      2  C   UNL     1      -3.081   2.285   0.829  0.00  0.00    +0.023 A 
ATOM      3  C   UNL     1      -4.376   1.959   1.029  0.00  0.00    +0.068 A 
ATOM      4  C   UNL     1      -4.707   0.686   1.538  0.00  0.00    +0.142 A 
ATOM      5  C   UNL     1      -3.693  -0.205   1.821  0.00  0.00    +0.084 A 
ATOM      6  C   UNL     1      -2.365   0.176   1.592  0.00  0.00    +0.260 A 
ATOM      7  O   UNL     1      -1.456  -0.603   1.838  0.00  0.00    -0.267 OA
ATOM      8  N   UNL     1      -2.088   1.399   1.103  0.00  0.00    -0.310 N 
ATOM      9  C   UNL     1      -4.006  -1.568   2.368  0.00  0.00    +0.146 C 
ATOM     10  C   UNL     1      -3.783  -2.627   1.333  0.00  0.00    -0.001 A 
ATOM     11  C   UNL     1      -4.370  -2.840   0.104  0.00  0.00    +0.007 A 
ATOM     12  C   UNL     1      -3.927  -3.939  -0.624  0.00  0.00    +0.000 A 
ATOM     13  C   UNL     1      -2.944  -4.776  -0.136  0.00  0.00    +0.002 A 
ATOM     14  C   UNL     1      -2.349  -4.567   1.098  0.00  0.00    +0.023 A 
ATOM     15  C   UNL     1      -2.784  -3.468   1.839  0.00  0.00    +0.038 A 
ATOM     16  N   UNL     1      -2.371  -3.028   3.084  0.00  0.00    -0.284 N 
ATOM     17  C   UNL     1      -3.031  -1.918   3.474  0.00  0.00    +0.238 C 
ATOM     18  O   UNL     1      -2.874  -1.314   4.514  0.00  0.00    -0.274 OA
ATOM     19  C   UNL     1      -5.413  -1.618   2.891  0.00  0.00    +0.110 C 
ATOM     20  C   UNL     1      -6.316  -0.666   2.554  0.00  0.00    +0.199 C 
ATOM     21  O   UNL     1      -6.000   0.358   1.742  0.00  0.00    -0.441 OA
ATOM     22  H   UNL     1      -1.687  -3.466   3.614  0.00  0.00    +0.155 HD
ENDROOT
BRANCH  20  23
ATOM     23  N   UNL     1      -7.591  -0.750   3.056  0.00  0.00    -0.328 N 
ATOM     24  H   UNL     1      -7.834  -1.483   3.643  0.00  0.00    +0.145 HD
ATOM     25  H   UNL     1      -8.249  -0.076   2.824  0.00  0.00    +0.145 HD
ENDBRANCH  20  23
BRANCH  19  26
ATOM     26  C   UNL     1      -5.805  -2.688   3.759  0.00  0.00    +0.102 C 
ATOM     27  N   UNL     1      -6.116  -3.536   4.447  0.00  0.00    -0.191 NA
ENDBRANCH  19  26
BRANCH   8  28
ATOM     28  C   UNL     1      -0.694   1.782   0.866  0.00  0.00    +0.156 C 
BRANCH  28  29
ATOM     29  C   UNL     1      -0.330   1.508  -0.594  0.00  0.00    +0.138 C 
ATOM     30  C   UNL     1       1.162   1.840  -0.848  0.00  0.00    +0.035 C 
ATOM     31  C   UNL     1       1.462   0.932  -2.071  0.00  0.00    +0.031 C 
ATOM     32  C   UNL     1       0.576  -0.300  -1.790  0.00  0.00    +0.160 C 
ATOM     33  O   UNL     1      -0.457   0.107  -0.885  0.00  0.00    -0.375 OA
ENDBRANCH  28  29
ENDBRANCH   8  28
TORSDOF 4
