REMARK  Name = ZINC63314739
REMARK  8 active torsions:
REMARK  status: ('A' for Active; 'I' for Inactive)
REMARK    1  A    between atoms: C_1  and  O_2
REMARK    2  A    between atoms: O_2  and  C_3
REMARK    3  A    between atoms: C_9  and  C_12
REMARK    4  A    between atoms: C_12  and  C_13
REMARK    5  A    between atoms: C_13  and  N_14
REMARK    6  A    between atoms: C_17  and  C_21
REMARK    7  A    between atoms: C_17  and  N_25
REMARK    8  A    between atoms: C_26  and  C_28
REMARK                            x       y       z     vdW  Elec       q    Type
REMARK                         _______ _______ _______ _____ _____    ______ ____
ROOT
ATOM      1  N   UNL     1      -0.759  -6.798   1.434  0.00  0.00    -0.219 N 
ATOM      2  C   UNL     1      -1.142  -8.088   1.333  0.00  0.00    +0.279 C 
ATOM      3  O   UNL     1      -2.271  -8.517   1.234  0.00  0.00    -0.270 OA
ATOM      4  C   UNL     1       0.148  -8.884   1.369  0.00  0.00    +0.304 C 
ATOM      5  N   UNL     1       1.193  -7.857   1.497  0.00  0.00    -0.188 NA
ATOM      6  C   UNL     1       0.606  -6.703   1.522  0.00  0.00    +0.341 C 
ATOM      7  O   UNL     1       1.268  -5.530   1.628  0.00  0.00    -0.247 OA
ENDROOT
BRANCH   4   8
ATOM      8  C   UNL     1       0.166  -9.823   2.577  0.00  0.00    +0.440 C 
ATOM      9  F   UNL     1      -0.913 -10.710   2.494  0.00  0.00    -0.166 F 
ATOM     10  F   UNL     1       1.364 -10.546   2.588  0.00  0.00    -0.166 F 
ATOM     11  F   UNL     1       0.064  -9.072   3.752  0.00  0.00    -0.166 F 
ENDBRANCH   4   8
BRANCH   4  12
ATOM     12  N   UNL     1       0.320  -9.640   0.126  0.00  0.00    -0.273 N 
ATOM     13  C   UNL     1      -0.599 -10.556  -0.239  0.00  0.00    +0.246 C 
ATOM     14  O   UNL     1      -1.572 -10.754   0.463  0.00  0.00    -0.270 OA
ATOM     15  H   UNL     1       1.096  -9.482  -0.435  0.00  0.00    +0.152 HD
BRANCH  13  16
ATOM     16  C   UNL     1      -0.426 -11.319  -1.494  0.00  0.00    +0.037 A 
ATOM     17  C   UNL     1       0.692 -11.098  -2.299  0.00  0.00    +0.013 A 
ATOM     18  C   UNL     1       0.849 -11.813  -3.468  0.00  0.00    +0.001 A 
ATOM     19  C   UNL     1      -0.100 -12.748  -3.843  0.00  0.00    +0.000 A 
ATOM     20  C   UNL     1      -1.211 -12.972  -3.049  0.00  0.00    +0.001 A 
ATOM     21  C   UNL     1      -1.376 -12.268  -1.874  0.00  0.00    +0.013 A 
ENDBRANCH  13  16
ENDBRANCH   4  12
BRANCH   1  22
ATOM     22  C   UNL     1      -1.676  -5.655   1.443  0.00  0.00    +0.123 C 
BRANCH  22  23
ATOM     23  C   UNL     1      -1.908  -5.176   0.009  0.00  0.00    +0.052 C 
BRANCH  23  30
ATOM     24  C   UNL     1      -1.200  -0.637   0.010  0.00  0.00    +0.121 A 
ATOM     25  C   UNL     1      -2.375   0.135   0.020  0.00  0.00    +0.047 A 
ATOM     26  C   UNL     1      -3.607  -0.415   0.028  0.00  0.00    +0.029 A 
ATOM     27  C   UNL     1      -3.753  -1.875   0.027  0.00  0.00    +0.043 A 
ATOM     28  N   UNL     1      -4.809  -2.650   0.034  0.00  0.00    -0.380 N 
ATOM     29  C   UNL     1      -4.362  -4.047   0.029  0.00  0.00    +0.144 C 
ATOM     30  C   UNL     1      -2.851  -4.000   0.018  0.00  0.00    -0.040 C 
ATOM     31  C   UNL     1      -2.516  -2.690   0.016  0.00  0.00    +0.002 A 
ATOM     32  C   UNL     1      -1.226  -1.992   0.003  0.00  0.00    +0.055 A 
ATOM     33  H   UNL     1      -5.731  -2.350   0.042  0.00  0.00    +0.160 HD
BRANCH  24  35
ATOM     34  C   UNL     1      -0.017   1.425   0.010  0.00  0.00    +0.277 C 
ATOM     35  O   UNL     1       0.002  -0.004   0.002  0.00  0.00    -0.495 OA
ENDBRANCH  24  35
ENDBRANCH  23  30
ENDBRANCH  22  23
ENDBRANCH   1  22
TORSDOF 7
