REMARK  Name = ZINC41318001
REMARK  6 active torsions:
REMARK  status: ('A' for Active; 'I' for Inactive)
REMARK    1  A    between atoms: C_2  and  C_3
REMARK    2  A    between atoms: C_3  and  N_4
REMARK    3  A    between atoms: C_5  and  C_7
REMARK    4  A    between atoms: C_7  and  C_8
REMARK    5  A    between atoms: N_11  and  S_14
REMARK    6  A    between atoms: S_14  and  C_17
REMARK                            x       y       z     vdW  Elec       q    Type
REMARK                         _______ _______ _______ _____ _____    ______ ____
ROOT
ATOM      1  C   UNL     1       3.844  -4.156   2.440  0.00  0.00    +0.000 C 
ATOM      2  C   UNL     1       3.925  -5.027   1.184  0.00  0.00    +0.021 C 
ATOM      3  C   UNL     1       5.277  -5.746   1.153  0.00  0.00    +0.110 C 
ATOM      4  N   UNL     1       5.449  -6.485   2.412  0.00  0.00    -0.177 NA
ATOM      5  C   UNL     1       5.301  -5.761   3.682  0.00  0.00    +0.110 C 
ATOM      6  C   UNL     1       3.948  -5.042   3.684  0.00  0.00    +0.021 C 
ENDROOT
BRANCH   4   7
ATOM      7  S   UNL     1       5.802  -8.103   2.399  0.00  0.00    +0.061 S 
ATOM      8  O   UNL     1       5.362  -8.624   3.645  0.00  0.00    -0.153 OA
ATOM      9  O   UNL     1       5.338  -8.610   1.155  0.00  0.00    -0.153 OA
BRANCH   7  10
ATOM     10  C   UNL     1       7.557  -8.253   2.381  0.00  0.00    +0.105 A 
ATOM     11  C   UNL     1       8.235  -8.299   1.177  0.00  0.00    +0.028 A 
ATOM     12  C   UNL     1       9.612  -8.417   1.164  0.00  0.00    +0.002 A 
ATOM     13  C   UNL     1      10.312  -8.488   2.354  0.00  0.00    +0.000 A 
ATOM     14  C   UNL     1       9.634  -8.441   3.558  0.00  0.00    +0.002 A 
ATOM     15  C   UNL     1       8.257  -8.319   3.572  0.00  0.00    +0.028 A 
ENDBRANCH   7  10
ENDBRANCH   4   7
BRANCH   1  16
ATOM     16  C   UNL     1       2.508  -3.409   2.457  0.00  0.00    +0.099 C 
BRANCH  16  18
ATOM     17  N   UNL     1       1.367  -1.676   1.111  0.00  0.00    -0.312 N 
ATOM     18  C   UNL     1       2.457  -2.447   1.299  0.00  0.00    +0.214 C 
ATOM     19  O   UNL     1       3.396  -2.366   0.535  0.00  0.00    -0.276 OA
ATOM     20  H   UNL     1       0.617  -1.740   1.722  0.00  0.00    +0.149 HD
BRANCH  17  21
ATOM     21  C   UNL     1       1.317  -0.740  -0.015  0.00  0.00    +0.131 C 
BRANCH  21  23
ATOM     22  C   UNL     1      -0.016   1.306   0.009  0.00  0.00    +0.005 C 
ATOM     23  C   UNL     1       0.002  -0.004   0.002  0.00  0.00    -0.016 C 
ENDBRANCH  21  23
ENDBRANCH  17  21
ENDBRANCH  16  18
ENDBRANCH   1  16
TORSDOF 6
