REMARK  Name = ZINC37556213
REMARK  10 active torsions:
REMARK  status: ('A' for Active; 'I' for Inactive)
REMARK    1  A    between atoms: C_1  and  C_2
REMARK    2  A    between atoms: C_2  and  C_3
REMARK    3  A    between atoms: C_3  and  N_4
REMARK    4  A    between atoms: N_4  and  C_5
REMARK    5  A    between atoms: N_4  and  S_8
REMARK    6  A    between atoms: C_5  and  C_6
REMARK    7  A    between atoms: C_5  and  C_7
REMARK    8  A    between atoms: S_8  and  C_11
REMARK    9  A    between atoms: C_12  and  N_19
REMARK   10  A    between atoms: N_19  and  N_20
REMARK                            x       y       z     vdW  Elec       q    Type
REMARK                         _______ _______ _______ _____ _____    ______ ____
ROOT
ATOM      1  C   UNL     1       0.864  -3.757   1.180  0.00  0.00    +0.222 A 
ATOM      2  C   UNL     1       1.328  -3.131   2.280  0.00  0.00    +0.179 A 
ATOM      3  N   UNL     1       0.579  -3.511   3.330  0.00  0.00    -0.203 NA
ATOM      4  C   UNL     1      -0.331  -4.349   2.921  0.00  0.00    +0.181 A 
ATOM      5  N   UNL     1      -0.219  -4.551   1.571  0.00  0.00    -0.276 N 
ATOM      6  C   UNL     1      -1.123  -5.413   0.991  0.00  0.00    +0.102 A 
ATOM      7  C   UNL     1      -2.060  -6.013   1.724  0.00  0.00    +0.067 A 
ATOM      8  S   UNL     1      -1.710  -5.382   3.358  0.00  0.00    -0.058 S 
ENDROOT
BRANCH   1   9
ATOM      9  S   UNL     1       1.501  -3.599  -0.455  0.00  0.00    +0.080 S 
ATOM     10  O   UNL     1       1.125  -4.778  -1.154  0.00  0.00    -0.151 OA
ATOM     11  O   UNL     1       2.856  -3.190  -0.325  0.00  0.00    -0.151 OA
BRANCH   9  12
ATOM     12  N   UNL     1       0.695  -2.344  -1.175  0.00  0.00    -0.173 NA
BRANCH  12  13
ATOM     13  C   UNL     1      -0.543  -2.598  -1.916  0.00  0.00    +0.074 C 
ATOM     14  C   UNL     1      -1.708  -1.894  -1.218  0.00  0.00    +0.025 C 
ATOM     15  C   UNL     1      -0.403  -2.062  -3.342  0.00  0.00    +0.025 C 
ENDBRANCH  12  13
BRANCH  12  16
ATOM     16  C   UNL     1       1.220  -0.981  -1.072  0.00  0.00    +0.109 C 
BRANCH  16  18
ATOM     17  C   UNL     1       2.606   0.763  -2.204  0.00  0.00    +0.005 C 
ATOM     18  C   UNL     1       2.080  -0.671  -2.299  0.00  0.00    +0.014 C 
ENDBRANCH  16  18
ENDBRANCH  12  16
ENDBRANCH   9  12
ENDBRANCH   1   9
BRANCH   2  19
ATOM     19  N   UNL     1       2.408  -2.235   2.323  0.00  0.00    -0.265 N 
ATOM     20  H   UNL     1       2.892  -2.020   1.510  0.00  0.00    +0.168 HD
BRANCH  19  21
ATOM     21  N   UNL     1       2.778  -1.667   3.508  0.00  0.00    -0.255 NA
ATOM     22  H   UNL     1       2.979  -2.373   4.201  0.00  0.00    +0.140 HD
ATOM     23  H   UNL     1       3.566  -1.049   3.383  0.00  0.00    +0.140 HD
ENDBRANCH  19  21
ENDBRANCH   2  19
TORSDOF 7
