REMARK  Name = ZINC61373916
REMARK  6 active torsions:
REMARK  status: ('A' for Active; 'I' for Inactive)
REMARK    1  A    between atoms: C_1  and  C_2
REMARK    2  A    between atoms: C_2  and  C_4
REMARK    3  A    between atoms: C_2  and  N_9
REMARK    4  A    between atoms: C_10  and  C_12
REMARK    5  A    between atoms: C_14  and  N_20
REMARK    6  A    between atoms: C_15  and  N_19
REMARK                            x       y       z     vdW  Elec       q    Type
REMARK                         _______ _______ _______ _____ _____    ______ ____
ROOT
ATOM      1  C   UNL     1      -3.542  -0.936  -1.014  0.00  0.00    +0.040 A 
ATOM      2  C   UNL     1      -4.222  -0.972  -2.235  0.00  0.00    +0.047 A 
ATOM      3  C   UNL     1      -5.405  -1.667  -2.343  0.00  0.00    +0.149 A 
ATOM      4  C   UNL     1      -5.927  -2.332  -1.237  0.00  0.00    +0.074 A 
ATOM      5  C   UNL     1      -5.253  -2.298  -0.018  0.00  0.00    +0.065 A 
ATOM      6  C   UNL     1      -4.065  -1.610   0.093  0.00  0.00    +0.035 A 
ATOM      7 CL   UNL     1      -5.907  -3.130   1.358  0.00  0.00    -0.082 Cl
ENDROOT
BRANCH   1   9
ATOM      8  N   UNL     1      -1.617  -0.163   0.280  0.00  0.00    -0.305 N 
ATOM      9  C   UNL     1      -2.274  -0.193  -0.896  0.00  0.00    +0.245 C 
ATOM     10  O   UNL     1      -1.821   0.393  -1.861  0.00  0.00    -0.270 OA
ATOM     11  H   UNL     1      -1.978  -0.631   1.049  0.00  0.00    +0.150 HD
BRANCH   8  13
ATOM     12  C   UNL     1      -0.653   2.046   0.694  0.00  0.00    +0.033 C 
ATOM     13  C   UNL     1      -0.357   0.575   0.397  0.00  0.00    +0.101 C 
BRANCH  13  14
ATOM     14  C   UNL     1       0.464  -0.008   1.519  0.00  0.00    -0.020 A 
ATOM     15  C   UNL     1       1.833  -0.146   1.387  0.00  0.00    +0.013 A 
ATOM     16  C   UNL     1       2.542  -0.674   2.415  0.00  0.00    +0.045 A 
ATOM     17  S   UNL     1       1.264  -0.995   3.619  0.00  0.00    -0.105 S 
ATOM     18  C   UNL     1      -0.128  -0.399   2.674  0.00  0.00    +0.050 A 
ENDBRANCH  13  14
ENDBRANCH   8  13
ENDBRANCH   1   9
BRANCH   4  19
ATOM     19  N   UNL     1      -7.123  -3.033  -1.349  0.00  0.00    -0.355 N 
ATOM     20  H   UNL     1      -7.528  -3.165  -2.221  0.00  0.00    +0.142 HD
ATOM     21  H   UNL     1      -7.553  -3.390  -0.556  0.00  0.00    +0.142 HD
ENDBRANCH   4  19
BRANCH   3  22
ATOM     22  N   UNL     1      -6.125  -1.705  -3.635  0.00  0.00    +0.058 N 
ATOM     23  O   UNL     1      -5.505  -1.778  -4.671  0.00  0.00    -0.126 OA
ATOM     24  O   UNL     1      -7.333  -1.662  -3.656  0.00  0.00    -0.126 OA
ENDBRANCH   3  22
TORSDOF 5
