REMARK  Name = ZINC40346856
REMARK  10 active torsions:
REMARK  status: ('A' for Active; 'I' for Inactive)
REMARK    1  A    between atoms: C_1  and  C_2
REMARK    2  A    between atoms: C_2  and  C_3
REMARK    3  A    between atoms: C_2  and  C_4
REMARK    4  A    between atoms: C_2  and  N_5
REMARK    5  A    between atoms: C_6  and  C_8
REMARK    6  A    between atoms: C_8  and  N_9
REMARK    7  A    between atoms: N_9  and  C_10
REMARK    8  A    between atoms: N_9  and  S_11
REMARK    9  A    between atoms: S_11  and  C_14
REMARK   10  A    between atoms: C_16  and  N_21
REMARK                            x       y       z     vdW  Elec       q    Type
REMARK                         _______ _______ _______ _____ _____    ______ ____
ROOT
ATOM      1  S   UNL     1       4.439   1.211  -3.596  0.00  0.00    +0.062 S 
ATOM      2  O   UNL     1       3.369   2.138  -3.712  0.00  0.00    -0.153 OA
ATOM      3  O   UNL     1       5.689   1.560  -3.016  0.00  0.00    -0.153 OA
ENDROOT
BRANCH   1   4
ATOM      4  C   UNL     1       4.783   0.632  -5.224  0.00  0.00    +0.125 A 
ATOM      5  C   UNL     1       4.033   1.088  -6.291  0.00  0.00    +0.052 A 
ATOM      6  C   UNL     1       4.305   0.631  -7.574  0.00  0.00    +0.026 A 
ATOM      7  C   UNL     1       5.330  -0.284  -7.780  0.00  0.00    +0.024 A 
ATOM      8  C   UNL     1       6.076  -0.736  -6.710  0.00  0.00    +0.024 A 
ATOM      9  C   UNL     1       5.807  -0.275  -5.433  0.00  0.00    +0.067 A 
ATOM     10 CL   UNL     1       6.751  -0.841  -4.091  0.00  0.00    -0.082 Cl
BRANCH   6  11
ATOM     11  N   UNL     1       3.548   1.090  -8.655  0.00  0.00    -0.358 N 
ATOM     12  H   UNL     1       2.832   1.728  -8.510  0.00  0.00    +0.142 HD
ATOM     13  H   UNL     1       3.739   0.770  -9.551  0.00  0.00    +0.142 HD
ENDBRANCH   6  11
ENDBRANCH   1   4
BRANCH   1  14
ATOM     14  N   UNL     1       3.859  -0.076  -2.730  0.00  0.00    -0.171 NA
ATOM     15  C   UNL     1       4.762  -0.853  -1.879  0.00  0.00    +0.132 C 
BRANCH  14  16
ATOM     16  C   UNL     1       2.442  -0.438  -2.817  0.00  0.00    +0.204 C 
BRANCH  16  18
ATOM     17  N   UNL     1       0.361   0.013  -1.557  0.00  0.00    -0.309 N 
ATOM     18  C   UNL     1       1.689   0.206  -1.681  0.00  0.00    +0.229 C 
ATOM     19  O   UNL     1       2.278   0.899  -0.879  0.00  0.00    -0.274 OA
ATOM     20  H   UNL     1      -0.110  -0.541  -2.199  0.00  0.00    +0.149 HD
BRANCH  17  22
ATOM     21  C   UNL     1      -0.226   2.159  -0.542  0.00  0.00    +0.031 C 
ATOM     22  C   UNL     1      -0.371   0.639  -0.453  0.00  0.00    +0.026 C 
ATOM     23  C   UNL     1       0.200   0.149   0.879  0.00  0.00    +0.031 C 
ATOM     24  C   UNL     1      -1.851   0.261  -0.543  0.00  0.00    +0.031 C 
ENDBRANCH  17  22
ENDBRANCH  16  18
ENDBRANCH  14  16
ENDBRANCH   1  14
TORSDOF 6
