REMARK  Name = ZINC39303104
REMARK  11 active torsions:
REMARK  status: ('A' for Active; 'I' for Inactive)
REMARK    1  A    between atoms: C_1  and  C_2
REMARK    2  A    between atoms: C_6  and  N_8
REMARK    3  A    between atoms: N_11  and  C_12
REMARK    4  A    between atoms: C_12  and  C_14
REMARK    5  A    between atoms: C_12  and  C_21
REMARK    6  A    between atoms: C_14  and  C_15
REMARK    7  A    between atoms: N_23  and  C_24
REMARK    8  A    between atoms: N_28  and  C_30
REMARK    9  A    between atoms: C_30  and  C_31
REMARK   10  A    between atoms: C_35  and  O_37
REMARK   11  A    between atoms: O_37  and  C_38
REMARK                            x       y       z     vdW  Elec       q    Type
REMARK                         _______ _______ _______ _____ _____    ______ ____
ROOT
ATOM      1  C   UNL     1       0.308  -6.823   4.848  0.00  0.00    +0.234 C 
ATOM      2  O   UNL     1       0.713  -6.063   5.702  0.00  0.00    -0.274 OA
ATOM      3  N   UNL     1       0.321  -8.153   5.068  0.00  0.00    -0.313 N 
ATOM      4  H   UNL     1      -0.003  -8.761   4.385  0.00  0.00    +0.149 HD
ENDROOT
BRANCH   3   5
ATOM      5  C   UNL     1       0.825  -8.680   6.338  0.00  0.00    +0.055 C 
ATOM      6  C   UNL     1       2.353  -8.901   6.260  0.00  0.00    +0.002 C 
ATOM      7  C   UNL     1       2.551 -10.227   7.036  0.00  0.00    -0.077 C 
ATOM      8  N   UNL     1       1.361 -11.027   6.652  0.00  0.00    +0.384 N 
ATOM      9  C   UNL     1       0.228 -10.073   6.613  0.00  0.00    -0.056 C 
ATOM     10  H   UNL     1       1.499 -11.442   5.743  0.00  0.00    -0.081 HD
BRANCH   8  11
ATOM     11  C   UNL     1       1.107 -12.071   7.654  0.00  0.00    -0.043 C 
BRANCH  11  12
ATOM     12  C   UNL     1       2.235 -13.071   7.635  0.00  0.00    -0.057 A 
ATOM     13  C   UNL     1       2.166 -14.171   6.800  0.00  0.00    +0.051 A 
ATOM     14  C   UNL     1       3.201 -15.093   6.779  0.00  0.00    +0.170 A 
ATOM     15  C   UNL     1       4.310 -14.910   7.598  0.00  0.00    +0.208 A 
ATOM     16  C   UNL     1       4.374 -13.803   8.435  0.00  0.00    +0.166 A 
ATOM     17  C   UNL     1       3.337 -12.882   8.447  0.00  0.00    +0.051 A 
ATOM     18  O   UNL     1       5.179 -15.943   7.395  0.00  0.00    -0.449 OA
ATOM     19  C   UNL     1       4.408 -16.972   6.745  0.00  0.00    +0.467 C 
ATOM     20  O   UNL     1       3.374 -16.241   6.060  0.00  0.00    -0.452 OA
BRANCH  16  21
ATOM     21  O   UNL     1       5.457 -13.619   9.238  0.00  0.00    -0.491 OA
ATOM     22  C   UNL     1       5.456 -12.459  10.072  0.00  0.00    +0.277 C 
ENDBRANCH  16  21
ENDBRANCH  11  12
ENDBRANCH   8  11
ENDBRANCH   3   5
BRANCH   1  23
ATOM     23  C   UNL     1      -0.210  -6.281   3.541  0.00  0.00    +0.165 C 
BRANCH  23  27
ATOM     24  N   UNL     1       0.051  -2.797   2.393  0.00  0.00    -0.269 N 
ATOM     25  C   UNL     1      -0.032  -4.143   2.386  0.00  0.00    +0.304 C 
ATOM     26  O   UNL     1      -0.029  -4.746   1.330  0.00  0.00    -0.252 OA
ATOM     27  N   UNL     1      -0.119  -4.819   3.548  0.00  0.00    -0.288 N 
ATOM     28  H   UNL     1       0.116  -2.320   3.235  0.00  0.00    +0.156 HD
ATOM     29  H   UNL     1      -0.121  -4.337   4.390  0.00  0.00    +0.151 HD
BRANCH  24  35
ATOM     30  C   UNL     1      -1.253   1.194  -0.165  0.00  0.00    +0.044 C 
ATOM     31  C   UNL     1      -0.581  -0.152  -0.082  0.00  0.00    -0.049 A 
ATOM     32  C   UNL     1       0.030  -0.690  -1.201  0.00  0.00    +0.003 A 
ATOM     33  C   UNL     1       0.647  -1.925  -1.129  0.00  0.00    +0.002 A 
ATOM     34  C   UNL     1       0.656  -2.626   0.061  0.00  0.00    +0.023 A 
ATOM     35  C   UNL     1       0.044  -2.089   1.186  0.00  0.00    +0.035 A 
ATOM     36  C   UNL     1      -0.571  -0.846   1.112  0.00  0.00    +0.026 A 
ENDBRANCH  24  35
ENDBRANCH  23  27
BRANCH  23  37
ATOM     37  C   UNL     1      -1.670  -6.700   3.357  0.00  0.00    +0.067 C 
BRANCH  37  38
ATOM     38  C   UNL     1      -2.151  -6.264   1.997  0.00  0.00    -0.045 A 
ATOM     39  C   UNL     1      -2.724  -5.016   1.834  0.00  0.00    +0.004 A 
ATOM     40  C   UNL     1      -3.165  -4.616   0.587  0.00  0.00    +0.000 A 
ATOM     41  C   UNL     1      -3.033  -5.463  -0.498  0.00  0.00    +0.000 A 
ATOM     42  C   UNL     1      -2.458  -6.709  -0.335  0.00  0.00    +0.000 A 
ATOM     43  C   UNL     1      -2.013  -7.108   0.911  0.00  0.00    +0.004 A 
ENDBRANCH  37  38
ENDBRANCH  23  37
ENDBRANCH   1  23
TORSDOF 9
