REMARK  Name = ZINC35767092
REMARK  8 active torsions:
REMARK  status: ('A' for Active; 'I' for Inactive)
REMARK    1  A    between atoms: C_1  and  C_2
REMARK    2  A    between atoms: C_2  and  C_4
REMARK    3  A    between atoms: C_2  and  S_17
REMARK    4  A    between atoms: C_4  and  C_6
REMARK    5  A    between atoms: C_7  and  N_16
REMARK    6  A    between atoms: N_8  and  C_15
REMARK    7  A    between atoms: N_11  and  C_14
REMARK    8  A    between atoms: S_17  and  C_18
REMARK                            x       y       z     vdW  Elec       q    Type
REMARK                         _______ _______ _______ _____ _____    ______ ____
ROOT
ATOM      1  C   UNL     1      -0.262   1.252  -1.584  0.00  0.00    +0.028 C 
ATOM      2  C   UNL     1      -0.076   0.054  -0.651  0.00  0.00    +0.122 C 
ENDROOT
BRANCH   2   3
ATOM      3  C   UNL     1       0.941   0.394   0.407  0.00  0.00    +0.185 C 
ATOM      4  O   UNL     1       2.105   0.084   0.252  0.00  0.00    -0.291 OA
BRANCH   3   5
ATOM      5  C   UNL     1       0.541   1.071   1.579  0.00  0.00    +0.121 A 
ATOM      6  C   UNL     1       1.446   1.299   2.630  0.00  0.00    +0.116 A 
ATOM      7  N   UNL     1       1.012   1.960   3.744  0.00  0.00    -0.284 N 
ATOM      8  C   UNL     1      -0.255   2.391   3.849  0.00  0.00    +0.333 A 
ATOM      9  O   UNL     1      -0.592   2.974   4.861  0.00  0.00    -0.246 OA
ATOM     10  N   UNL     1      -1.163   2.203   2.878  0.00  0.00    -0.263 N 
ATOM     11  C   UNL     1      -0.833   1.567   1.736  0.00  0.00    +0.269 A 
ATOM     12  O   UNL     1      -1.657   1.402   0.855  0.00  0.00    -0.267 OA
ATOM     13  C   UNL     1      -2.529   2.701   3.060  0.00  0.00    +0.157 C 
ATOM     14  C   UNL     1       1.947   2.202   4.845  0.00  0.00    +0.155 C 
BRANCH   6  15
ATOM     15  N   UNL     1       2.733   0.867   2.540  0.00  0.00    -0.344 N 
ATOM     16  H   UNL     1       3.146   0.753   1.670  0.00  0.00    +0.144 HD
ATOM     17  H   UNL     1       3.237   0.674   3.346  0.00  0.00    +0.144 HD
ENDBRANCH   6  15
ENDBRANCH   3   5
ENDBRANCH   2   3
BRANCH   2  18
ATOM     18  S   UNL     1       0.502  -1.374  -1.609  0.00  0.00    -0.075 S 
BRANCH  18  19
ATOM     19  C   UNL     1      -0.842  -1.735  -2.690  0.00  0.00    +0.192 A 
ATOM     20  N   UNL     1      -1.937  -0.985  -2.641  0.00  0.00    -0.207 NA
ATOM     21  C   UNL     1      -2.977  -1.208  -3.426  0.00  0.00    +0.129 A 
ATOM     22  C   UNL     1      -2.928  -2.284  -4.357  0.00  0.00    +0.051 A 
ATOM     23  C   UNL     1      -3.951  -2.713  -5.314  0.00  0.00    -0.025 A 
ATOM     24  C   UNL     1      -3.654  -3.773  -6.091  0.00  0.00    -0.004 A 
ATOM     25  S   UNL     1      -2.020  -4.260  -5.606  0.00  0.00    -0.073 S 
ATOM     26  C   UNL     1      -1.737  -3.035  -4.355  0.00  0.00    +0.115 A 
ATOM     27  N   UNL     1      -0.739  -2.747  -3.542  0.00  0.00    -0.214 NA
ATOM     28  C   UNL     1      -4.522  -4.402  -7.138  0.00  0.00    +0.043 C 
ATOM     29  C   UNL     1      -5.958  -3.895  -6.947  0.00  0.00    +0.005 C 
ATOM     30  C   UNL     1      -5.923  -2.372  -6.787  0.00  0.00    +0.005 C 
ATOM     31  C   UNL     1      -5.297  -2.006  -5.441  0.00  0.00    +0.037 C 
ATOM     32  N   UNL     1      -4.100  -0.405  -3.345  0.00  0.00    -0.343 N 
ATOM     33  H   UNL     1      -4.051   0.452  -2.893  0.00  0.00    +0.144 HD
ATOM     34  H   UNL     1      -4.936  -0.698  -3.739  0.00  0.00    +0.144 HD
ENDBRANCH  18  19
ENDBRANCH   2  18
TORSDOF 5
