REMARK  Name = ZINC45129468
REMARK  4 active torsions:
REMARK  status: ('A' for Active; 'I' for Inactive)
REMARK    1  A    between atoms: C_8  and  C_12
REMARK    2  A    between atoms: C_12  and  N_13
REMARK    3  A    between atoms: N_19  and  C_22
REMARK    4  A    between atoms: C_27  and  O_28
REMARK                            x       y       z     vdW  Elec       q    Type
REMARK                         _______ _______ _______ _____ _____    ______ ____
ROOT
ATOM      1  N   UNL     1       3.901  -4.766   0.594  0.00  0.00    -0.299 N 
ATOM      2  C   UNL     1       4.189  -6.074   0.444  0.00  0.00    +0.302 C 
ATOM      3  O   UNL     1       3.363  -6.828  -0.034  0.00  0.00    -0.253 OA
ATOM      4  N   UNL     1       5.392  -6.547   0.825  0.00  0.00    -0.283 N 
ATOM      5  C   UNL     1       6.355  -5.675   1.514  0.00  0.00    +0.128 C 
ATOM      6  C   UNL     1       6.754  -6.337   2.838  0.00  0.00    +0.124 C 
ATOM      7  N   UNL     1       7.127  -7.733   2.572  0.00  0.00    -0.324 N 
ATOM      8  C   UNL     1       6.165  -8.605   1.884  0.00  0.00    +0.124 C 
ATOM      9  C   UNL     1       5.763  -7.945   0.564  0.00  0.00    +0.128 C 
ATOM     10  H   UNL     1       4.530  -4.179   1.041  0.00  0.00    +0.150 HD
ENDROOT
BRANCH   7  11
ATOM     11  C   UNL     1       8.377  -8.224   2.967  0.00  0.00    +0.072 A 
ATOM     12  C   UNL     1       8.534  -8.799   4.220  0.00  0.00    +0.027 A 
ATOM     13  C   UNL     1       9.769  -9.283   4.608  0.00  0.00    +0.002 A 
ATOM     14  C   UNL     1      10.849  -9.197   3.750  0.00  0.00    +0.004 A 
ATOM     15  C   UNL     1      10.700  -8.626   2.499  0.00  0.00    +0.047 A 
ATOM     16  C   UNL     1       9.465  -8.143   2.101  0.00  0.00    +0.138 A 
BRANCH  16  17
ATOM     17  O   UNL     1       9.316  -7.585   0.870  0.00  0.00    -0.505 OA
ATOM     18  H   UNL     1       9.478  -6.632   0.847  0.00  0.00    +0.292 HD
ENDBRANCH  16  17
ENDBRANCH   7  11
BRANCH   1  19
ATOM     19  C   UNL     1       2.637  -4.231   0.082  0.00  0.00    +0.113 C 
BRANCH  19  27
ATOM     20  C   UNL     1      -0.009   1.380  -0.010  0.00  0.00    +0.000 A 
ATOM     21  C   UNL     1       1.180   2.086  -0.022  0.00  0.00    +0.004 A 
ATOM     22  C   UNL     1       2.382   1.410  -0.035  0.00  0.00    +0.046 A 
ATOM     23  C   UNL     1       2.404   0.018  -0.037  0.00  0.00    +0.124 A 
ATOM     24  C   UNL     1       1.212  -0.685  -0.028  0.00  0.00    -0.005 A 
ATOM     25  C   UNL     1       0.008  -0.001  -0.013  0.00  0.00    +0.007 A 
ATOM     26  C   UNL     1       1.190  -2.193  -0.042  0.00  0.00    +0.047 C 
ATOM     27  C   UNL     1       2.559  -2.732   0.379  0.00  0.00    +0.048 C 
ATOM     28  C   UNL     1       3.637  -1.989  -0.420  0.00  0.00    +0.234 C 
ATOM     29  O   UNL     1       3.607  -0.611  -0.044  0.00  0.00    -0.491 OA
ENDBRANCH  19  27
ENDBRANCH   1  19
TORSDOF 4
