REMARK  Name = ZINC48995859
REMARK  4 active torsions:
REMARK  status: ('A' for Active; 'I' for Inactive)
REMARK    1  A    between atoms: C_2  and  C_18
REMARK    2  A    between atoms: C_6  and  N_7
REMARK    3  A    between atoms: N_10  and  C_13
REMARK    4  A    between atoms: C_13  and  C_14
REMARK                            x       y       z     vdW  Elec       q    Type
REMARK                         _______ _______ _______ _____ _____    ______ ____
ROOT
ATOM      1  N   UNL     1      -1.197  -0.708   0.010  0.00  0.00    -0.319 N 
ATOM      2  C   UNL     1      -1.211  -2.179   0.009  0.00  0.00    +0.088 C 
ATOM      3  C   UNL     1      -2.132  -2.657   1.135  0.00  0.00    -0.060 C 
ATOM      4  N   UNL     1      -3.455  -2.038   0.980  0.00  0.00    +0.382 N 
ATOM      5  C   UNL     1      -3.349  -0.584   1.147  0.00  0.00    -0.060 C 
ATOM      6  C   UNL     1      -2.488  -0.003   0.027  0.00  0.00    +0.088 C 
ATOM      7  H   UNL     1      -3.816  -2.245   0.061  0.00  0.00    -0.082 HD
ENDROOT
BRANCH   1  13
ATOM      8  C   UNL     1      -0.009   1.370  -0.210  0.00  0.00    +0.059 A 
ATOM      9  C   UNL     1       1.204   2.063  -0.215  0.00  0.00    +0.069 A 
ATOM     10  C   UNL     1       2.382   1.337  -0.005  0.00  0.00    +0.055 A 
ATOM     11  C   UNL     1       2.305  -0.028   0.199  0.00  0.00    +0.132 A 
ATOM     12  N   UNL     1       1.141  -0.650   0.197  0.00  0.00    -0.221 NA
ATOM     13  C   UNL     1       0.002  -0.004   0.002  0.00  0.00    +0.124 A 
ATOM     14 CL   UNL     1       3.760  -0.937   0.461  0.00  0.00    -0.062 Cl
BRANCH   9  15
ATOM     15  C   UNL     1       1.242   3.525  -0.438  0.00  0.00    +0.387 C 
ATOM     16  O   UNL     1       0.204   4.143  -0.620  0.00  0.00    -0.241 OA
ATOM     17  O   UNL     1       2.313   4.115  -0.439  0.00  0.00    -0.241 OA
ENDBRANCH   9  15
ENDBRANCH   1  13
BRANCH   4  18
ATOM     18  C   UNL     1      -4.369  -2.581   1.994  0.00  0.00    -0.075 C 
BRANCH  18  19
ATOM     19  C   UNL     1      -5.777  -2.032   1.757  0.00  0.00    -0.028 C 
ATOM     20  C   UNL     1      -6.384  -1.147   2.848  0.00  0.00    +0.002 C 
ATOM     21  C   UNL     1      -6.904  -2.571   2.641  0.00  0.00    +0.002 C 
ENDBRANCH  18  19
ENDBRANCH   4  18
TORSDOF 4
