REMARK  Name = ZINC05567088
REMARK  3 active torsions:
REMARK  status: ('A' for Active; 'I' for Inactive)
REMARK    1  A    between atoms: C_8  and  N_9
REMARK    2  A    between atoms: N_9  and  N_10
REMARK    3  A    between atoms: C_11  and  C_13
REMARK                            x       y       z     vdW  Elec       q    Type
REMARK                         _______ _______ _______ _____ _____    ______ ____
ROOT
ATOM      1  N   UNL     1      -2.368  -0.094   0.024  0.00  0.00    -0.271 N 
ATOM      2  H   UNL     1      -2.393   0.875   0.030  0.00  0.00    +0.169 HD
ENDROOT
BRANCH   1  10
ATOM      3  C   UNL     1      -0.017   1.409   0.010  0.00  0.00    +0.033 C 
ATOM      4  C   UNL     1       1.153   2.102   0.002  0.00  0.00    +0.043 C 
ATOM      5  C   UNL     1       2.384   1.451  -0.013  0.00  0.00    +0.044 C 
ATOM      6  C   UNL     1       2.472   0.092  -0.021  0.00  0.00    +0.090 C 
ATOM      7  C   UNL     1       1.301  -0.688  -0.014  0.00  0.00    +0.206 C 
ATOM      8  O   UNL     1       1.364  -1.910  -0.021  0.00  0.00    -0.286 OA
ATOM      9  C   UNL     1       0.002  -0.004   0.002  0.00  0.00    +0.040 C 
ATOM     10  C   UNL     1      -1.189  -0.734   0.009  0.00  0.00    +0.099 C 
ATOM     11 CL   UNL     1       4.028  -0.678  -0.042  0.00  0.00    -0.080 Cl
ATOM     12 CL   UNL     1       1.110   3.837   0.012  0.00  0.00    -0.083 Cl
ENDBRANCH   1  10
BRANCH   1  13
ATOM     13  N   UNL     1      -3.562  -0.826   0.032  0.00  0.00    -0.232 N 
ATOM     14  C   UNL     1      -4.747  -0.183   0.046  0.00  0.00    +0.285 C 
ATOM     15  O   UNL     1      -4.779   1.031   0.053  0.00  0.00    -0.267 OA
ATOM     16  H   UNL     1      -3.537  -1.796   0.026  0.00  0.00    +0.173 HD
BRANCH  14  17
ATOM     17  C   UNL     1      -6.010  -0.958   0.054  0.00  0.00    +0.211 A 
ATOM     18  C   UNL     1      -7.364  -0.393   0.064  0.00  0.00    +0.193 A 
ATOM     19  N   UNL     1      -8.219  -1.379   0.069  0.00  0.00    -0.033 NA
ATOM     20  O   UNL     1      -7.486  -2.592   0.063  0.00  0.00    -0.240 OA
ATOM     21  N   UNL     1      -6.109  -2.261   0.048  0.00  0.00    -0.042 NA
ATOM     22  N   UNL     1      -7.681   0.958   0.068  0.00  0.00    -0.339 N 
ATOM     23  H   UNL     1      -6.975   1.622   0.064  0.00  0.00    +0.144 HD
ATOM     24  H   UNL     1      -8.610   1.238   0.075  0.00  0.00    +0.144 HD
ENDBRANCH  14  17
ENDBRANCH   1  13
TORSDOF 3
