REMARK  Name = ZINC37316535
REMARK  7 active torsions:
REMARK  status: ('A' for Active; 'I' for Inactive)
REMARK    1  A    between atoms: C_1  and  C_2
REMARK    2  A    between atoms: C_5  and  N_10
REMARK    3  A    between atoms: C_6  and  C_9
REMARK    4  A    between atoms: C_7  and  O_8
REMARK    5  A    between atoms: N_10  and  C_11
REMARK    6  A    between atoms: C_11  and  C_13
REMARK    7  A    between atoms: C_11  and  C_14
REMARK                            x       y       z     vdW  Elec       q    Type
REMARK                         _______ _______ _______ _____ _____    ______ ____
ROOT
ATOM      1  N   UNL     1       0.059  -4.171  -0.026  0.00  0.00    -0.337 N 
ATOM      2  H   UNL     1       0.070  -4.663   0.810  0.00  0.00    +0.147 HD
ENDROOT
BRANCH   1   7
ATOM      3  C   UNL     1      -0.018   1.503   0.010  0.00  0.00    +0.047 C 
ATOM      4  C   UNL     1       0.002  -0.004   0.002  0.00  0.00    -0.009 A 
ATOM      5  C   UNL     1       0.006  -0.688  -1.199  0.00  0.00    +0.009 A 
ATOM      6  C   UNL     1       0.025  -2.069  -1.211  0.00  0.00    +0.024 A 
ATOM      7  C   UNL     1       0.041  -2.774  -0.014  0.00  0.00    +0.034 A 
ATOM      8  C   UNL     1       0.037  -2.089   1.193  0.00  0.00    +0.012 A 
ATOM      9  C   UNL     1       0.023  -0.703   1.200  0.00  0.00    +0.124 A 
ATOM     10  C   UNL     1       0.054  -2.851   2.493  0.00  0.00    +0.049 C 
BRANCH   9  11
ATOM     11  O   UNL     1       0.025  -0.030   2.381  0.00  0.00    -0.506 OA
ATOM     12  H   UNL     1      -0.858   0.153   2.731  0.00  0.00    +0.292 HD
ENDBRANCH   9  11
ENDBRANCH   1   7
BRANCH   1  13
ATOM     13  C   UNL     1       0.063  -4.893  -1.300  0.00  0.00    +0.098 C 
ATOM     14  C   UNL     1      -1.375  -5.054  -1.799  0.00  0.00    +0.033 C 
BRANCH  13  15
ATOM     15  C   UNL     1       0.683  -6.252  -1.106  0.00  0.00    -0.027 A 
ATOM     16  C   UNL     1       0.403  -6.987   0.032  0.00  0.00    +0.009 A 
ATOM     17  C   UNL     1       0.964  -8.233   0.213  0.00  0.00    +0.046 A 
ATOM     18  C   UNL     1       1.819  -8.764  -0.750  0.00  0.00    +0.124 A 
ATOM     19  C   UNL     1       2.099  -8.014  -1.885  0.00  0.00    -0.002 A 
ATOM     20  C   UNL     1       1.530  -6.773  -2.068  0.00  0.00    +0.012 A 
ATOM     21  C   UNL     1       3.063  -8.826  -2.728  0.00  0.00    +0.080 C 
ATOM     22  C   UNL     1       3.551  -9.892  -1.718  0.00  0.00    +0.234 C 
ATOM     23  O   UNL     1       2.464  -9.963  -0.780  0.00  0.00    -0.491 OA
ENDBRANCH  13  15
ENDBRANCH   1  13
TORSDOF 4
