REMARK  Name = ZINC60158206
REMARK  11 active torsions:
REMARK  status: ('A' for Active; 'I' for Inactive)
REMARK    1  A    between atoms: C_1  and  C_2
REMARK    2  A    between atoms: C_4  and  C_8
REMARK    3  A    between atoms: C_5  and  C_7
REMARK    4  A    between atoms: C_8  and  C_10
REMARK    5  A    between atoms: C_8  and  N_11
REMARK    6  A    between atoms: C_12  and  C_14
REMARK    7  A    between atoms: C_14  and  N_15
REMARK    8  A    between atoms: C_21  and  C_24
REMARK    9  A    between atoms: C_24  and  C_25
REMARK   10  A    between atoms: C_24  and  C_26
REMARK   11  A    between atoms: C_24  and  C_27
REMARK                            x       y       z     vdW  Elec       q    Type
REMARK                         _______ _______ _______ _____ _____    ______ ____
ROOT
ATOM      1  N   UNL     1      -5.400  -5.017  -2.297  0.00  0.00    -0.215 N 
ATOM      2  C   UNL     1      -5.214  -5.439  -3.565  0.00  0.00    +0.247 C 
ATOM      3  O   UNL     1      -4.565  -4.895  -4.432  0.00  0.00    -0.273 OA
ATOM      4  C   UNL     1      -5.985  -6.734  -3.676  0.00  0.00    +0.113 C 
ATOM      5  C   UNL     1      -5.043  -7.887  -4.007  0.00  0.00    +0.035 C 
ATOM      6  C   UNL     1      -4.414  -7.654  -5.383  0.00  0.00    +0.006 C 
ATOM      7  C   UNL     1      -5.518  -7.556  -6.438  0.00  0.00    -0.005 C 
ATOM      8  C   UNL     1      -6.443  -6.384  -6.104  0.00  0.00    +0.006 C 
ATOM      9  C   UNL     1      -7.080  -6.612  -4.731  0.00  0.00    +0.035 C 
ATOM     10  N   UNL     1      -6.573  -6.915  -2.343  0.00  0.00    -0.285 N 
ATOM     11  C   UNL     1      -6.170  -5.864  -1.604  0.00  0.00    +0.310 C 
ATOM     12  O   UNL     1      -6.476  -5.700  -0.439  0.00  0.00    -0.252 OA
ATOM     13  H   UNL     1      -7.136  -7.649  -2.051  0.00  0.00    +0.151 HD
ENDROOT
BRANCH   7  14
ATOM     14  C   UNL     1      -4.890  -7.334  -7.815  0.00  0.00    -0.035 C 
ATOM     15  C   UNL     1      -3.967  -8.507  -8.149  0.00  0.00    +0.011 C 
ATOM     16  C   UNL     1      -5.994  -7.236  -8.870  0.00  0.00    +0.011 C 
ATOM     17  C   UNL     1      -4.080  -6.036  -7.802  0.00  0.00    +0.011 C 
ENDBRANCH   7  14
BRANCH   1  18
ATOM     18  C   UNL     1      -4.825  -3.787  -1.746  0.00  0.00    +0.213 C 
BRANCH  18  20
ATOM     19  N   UNL     1      -2.752  -3.099  -0.586  0.00  0.00    -0.307 N 
ATOM     20  C   UNL     1      -3.473  -4.086  -1.154  0.00  0.00    +0.231 C 
ATOM     21  O   UNL     1      -3.032  -5.216  -1.188  0.00  0.00    -0.274 OA
ATOM     22  H   UNL     1      -3.105  -2.196  -0.558  0.00  0.00    +0.149 HD
BRANCH  19  23
ATOM     23  C   UNL     1      -1.437  -3.390  -0.009  0.00  0.00    +0.103 C 
ATOM     24  C   UNL     1      -1.609  -3.892   1.426  0.00  0.00    +0.033 C 
BRANCH  23  28
ATOM     25  C   UNL     1      -0.018   1.503   0.010  0.00  0.00    +0.086 C 
ATOM     26  C   UNL     1       0.002  -0.004   0.002  0.00  0.00    +0.103 A 
ATOM     27  C   UNL     1      -1.078  -0.805   0.003  0.00  0.00    +0.050 A 
ATOM     28  C   UNL     1      -0.601  -2.136  -0.007  0.00  0.00    +0.013 A 
ATOM     29  C   UNL     1       0.742  -2.069  -0.013  0.00  0.00    +0.107 A 
ATOM     30  O   UNL     1       1.102  -0.775  -0.013  0.00  0.00    -0.465 OA
ATOM     31  C   UNL     1       1.684  -3.245  -0.023  0.00  0.00    +0.086 C 
ENDBRANCH  23  28
ENDBRANCH  19  23
ENDBRANCH  18  20
ENDBRANCH   1  18
TORSDOF 5
