REMARK  Name = ZINC14598853
REMARK  5 active torsions:
REMARK  status: ('A' for Active; 'I' for Inactive)
REMARK    1  A    between atoms: C_1  and  C_2
REMARK    2  A    between atoms: C_2  and  C_4
REMARK    3  A    between atoms: C_2  and  O_10
REMARK    4  A    between atoms: O_10  and  C_11
REMARK    5  A    between atoms: C_11  and  C_13
REMARK                            x       y       z     vdW  Elec       q    Type
REMARK                         _______ _______ _______ _____ _____    ______ ____
ROOT
ATOM      1  C   UNL     1      -0.729   1.579   1.267  0.00  0.00    +0.062 C 
ATOM      2  C   UNL     1      -0.013   1.086   0.008  0.00  0.00    +0.259 C 
ENDROOT
BRANCH   2   3
ATOM      3  C   UNL     1       1.401   1.607  -0.003  0.00  0.00    +0.261 C 
ATOM      4  O   UNL     1       1.753   2.387  -0.862  0.00  0.00    -0.271 OA
ATOM      5  N   UNL     1       2.274   1.208   0.943  0.00  0.00    -0.237 N 
ATOM      6  C   UNL     1       3.538   1.674   0.933  0.00  0.00    +0.303 C 
ATOM      7  O   UNL     1       3.892   2.455   0.072  0.00  0.00    -0.253 OA
ATOM      8  N   UNL     1       4.412   1.274   1.879  0.00  0.00    -0.313 N 
ATOM      9  H   UNL     1       1.992   0.584   1.631  0.00  0.00    +0.159 HD
ATOM     10  H   UNL     1       4.130   0.650   2.567  0.00  0.00    +0.146 HD
ATOM     11  H   UNL     1       5.322   1.610   1.872  0.00  0.00    +0.146 HD
ENDBRANCH   2   3
BRANCH   2  12
ATOM     12  O   UNL     1      -0.715   1.567  -1.168  0.00  0.00    -0.449 OA
BRANCH  12  13
ATOM     13  C   UNL     1      -1.690   0.780  -1.663  0.00  0.00    +0.343 C 
ATOM     14  O   UNL     1      -1.947  -0.279  -1.126  0.00  0.00    -0.245 OA
BRANCH  13  15
ATOM     15  C   UNL     1      -2.447   1.204  -2.857  0.00  0.00    +0.095 A 
ATOM     16  C   UNL     1      -2.155   2.422  -3.477  0.00  0.00    +0.033 A 
ATOM     17  C   UNL     1      -2.865   2.812  -4.592  0.00  0.00    +0.019 A 
ATOM     18  C   UNL     1      -3.868   2.001  -5.099  0.00  0.00    +0.018 A 
ATOM     19  C   UNL     1      -4.165   0.796  -4.492  0.00  0.00    +0.040 A 
ATOM     20  C   UNL     1      -3.457   0.388  -3.376  0.00  0.00    +0.137 A 
ATOM     21  F   UNL     1      -3.743  -0.794  -2.787  0.00  0.00    -0.205 F 
ATOM     22 BR   UNL     1      -2.470   4.459  -5.433  0.00  0.00    -0.050 Br
ENDBRANCH  13  15
ENDBRANCH  12  13
ENDBRANCH   2  12
TORSDOF 4
