REMARK  Name = ZINC36736357
REMARK  5 active torsions:
REMARK  status: ('A' for Active; 'I' for Inactive)
REMARK    1  A    between atoms: C_1  and  C_2
REMARK    2  A    between atoms: C_3  and  N_9
REMARK    3  A    between atoms: C_4  and  C_8
REMARK    4  A    between atoms: N_9  and  S_10
REMARK    5  A    between atoms: S_10  and  C_13
REMARK                            x       y       z     vdW  Elec       q    Type
REMARK                         _______ _______ _______ _____ _____    ______ ____
ROOT
ATOM      1  S   UNL     1       0.127  -1.467  -3.663  0.00  0.00    +0.073 S 
ATOM      2  O   UNL     1       0.172  -0.725  -4.875  0.00  0.00    -0.150 OA
ATOM      3  O   UNL     1       1.157  -2.369  -3.283  0.00  0.00    -0.150 OA
ENDROOT
BRANCH   1   4
ATOM      4  C   UNL     1      -1.370  -2.396  -3.698  0.00  0.00    +0.111 A 
ATOM      5  C   UNL     1      -1.449  -3.603  -3.028  0.00  0.00    +0.049 A 
ATOM      6  C   UNL     1      -2.624  -4.333  -3.054  0.00  0.00    +0.044 A 
ATOM      7  C   UNL     1      -3.719  -3.856  -3.752  0.00  0.00    +0.040 A 
ATOM      8  C   UNL     1      -3.639  -2.649  -4.422  0.00  0.00    +0.044 A 
ATOM      9  C   UNL     1      -2.466  -1.917  -4.390  0.00  0.00    +0.049 A 
ATOM     10 CL   UNL     1      -5.013  -2.050  -5.298  0.00  0.00    -0.083 Cl
ATOM     11 CL   UNL     1      -2.723  -5.849  -2.214  0.00  0.00    -0.083 Cl
ENDBRANCH   1   4
BRANCH   1  12
ATOM     12  N   UNL     1      -0.011  -0.362  -2.437  0.00  0.00    -0.213 N 
ATOM     13  H   UNL     1       0.018   0.587  -2.634  0.00  0.00    +0.174 HD
BRANCH  12  16
ATOM     14  C   UNL     1       1.960  -2.203  -0.955  0.00  0.00    +0.067 C 
ATOM     15  C   UNL     1       0.678  -1.611  -0.428  0.00  0.00    +0.056 A 
ATOM     16  C   UNL     1      -0.171  -0.801  -1.109  0.00  0.00    +0.091 A 
ATOM     17  C   UNL     1      -1.236  -0.478  -0.256  0.00  0.00    +0.082 A 
ATOM     18  N   UNL     1      -1.036  -1.070   0.894  0.00  0.00    -0.177 NA
ATOM     19  N   UNL     1       0.159  -1.796   0.815  0.00  0.00    -0.280 N 
ATOM     20  H   UNL     1       0.548  -2.334   1.522  0.00  0.00    +0.189 HD
ATOM     21  C   UNL     1      -2.409   0.401  -0.603  0.00  0.00    +0.069 C 
ENDBRANCH  12  16
ENDBRANCH   1  12
TORSDOF 3
