REMARK  Name = ZINC39608634
REMARK  9 active torsions:
REMARK  status: ('A' for Active; 'I' for Inactive)
REMARK    1  A    between atoms: C_1  and  C_2
REMARK    2  A    between atoms: C_3  and  C_12
REMARK    3  A    between atoms: C_7  and  O_8
REMARK    4  A    between atoms: O_8  and  C_9
REMARK    5  A    between atoms: C_9  and  C_11
REMARK    6  A    between atoms: C_16  and  C_25
REMARK    7  A    between atoms: N_27  and  C_28
REMARK    8  A    between atoms: N_32  and  C_34
REMARK    9  A    between atoms: C_34  and  C_35
REMARK                            x       y       z     vdW  Elec       q    Type
REMARK                         _______ _______ _______ _____ _____    ______ ____
ROOT
ATOM      1  C   UNL     1      -0.165  -0.069  -2.698  0.00  0.00    +0.247 C 
ATOM      2  O   UNL     1      -0.092   1.137  -2.831  0.00  0.00    -0.270 OA
ATOM      3  N   UNL     1      -0.391  -0.853  -3.771  0.00  0.00    -0.296 N 
ATOM      4  C   UNL     1      -0.636  -2.314  -3.792  0.00  0.00    +0.121 C 
ATOM      5  C   UNL     1      -1.728  -2.511  -4.867  0.00  0.00    +0.100 C 
ATOM      6  C   UNL     1      -1.601  -1.284  -5.786  0.00  0.00    -0.004 C 
ATOM      7  C   UNL     1      -0.457  -0.447  -5.195  0.00  0.00    +0.115 C 
ATOM      8  C   UNL     1      -2.897  -0.479  -5.775  0.00  0.00    -0.010 C 
ATOM      9  C   UNL     1      -2.765   0.704  -6.739  0.00  0.00    -0.082 C 
ATOM     10  N   UNL     1      -2.486   0.206  -8.091  0.00  0.00    +0.379 N 
ATOM     11  C   UNL     1      -1.193  -0.488  -8.113  0.00  0.00    -0.082 C 
ATOM     12  C   UNL     1      -1.257  -1.721  -7.207  0.00  0.00    -0.010 C 
ATOM     13  H   UNL     1      -3.214  -0.434  -8.370  0.00  0.00    -0.086 HD
ATOM     14  H   UNL     1      -2.460   0.982  -8.735  0.00  0.00    -0.086 HD
ENDROOT
BRANCH   1  17
ATOM     15  C   UNL     1      -1.187   1.312  -0.370  0.00  0.00    +0.048 C 
ATOM     16  C   UNL     1      -0.495  -0.019  -0.230  0.00  0.00    +0.004 A 
ATOM     17  C   UNL     1      -0.006  -0.676  -1.359  0.00  0.00    +0.043 A 
ATOM     18  C   UNL     1       0.634  -1.909  -1.221  0.00  0.00    +0.013 A 
ATOM     19  C   UNL     1       0.780  -2.473   0.030  0.00  0.00    +0.004 A 
ATOM     20  C   UNL     1       0.295  -1.821   1.148  0.00  0.00    +0.047 A 
ATOM     21  C   UNL     1      -0.338  -0.592   1.021  0.00  0.00    +0.135 A 
BRANCH  21  22
ATOM     22  O   UNL     1      -0.809   0.047   2.125  0.00  0.00    -0.426 OA
BRANCH  22  23
ATOM     23  C   UNL     1      -0.105   1.088   2.599  0.00  0.00    +0.309 C 
ATOM     24  O   UNL     1       0.960   1.373   2.104  0.00  0.00    -0.251 OA
ATOM     25  C   UNL     1      -0.643   1.901   3.748  0.00  0.00    +0.136 C 
ENDBRANCH  22  23
ENDBRANCH  21  22
ENDBRANCH   1  17
BRANCH   5  26
ATOM     26  C   UNL     1      -1.478  -3.779  -5.644  0.00  0.00    +0.218 C 
ATOM     27  O   UNL     1      -0.355  -4.228  -5.726  0.00  0.00    -0.275 OA
ATOM     28  N   UNL     1      -2.504  -4.413  -6.246  0.00  0.00    -0.314 N 
ATOM     29  H   UNL     1      -3.402  -4.054  -6.179  0.00  0.00    +0.149 HD
BRANCH  28  30
ATOM     30  C   UNL     1      -2.261  -5.645  -7.000  0.00  0.00    +0.055 C 
ATOM     31  C   UNL     1      -1.895  -5.314  -8.465  0.00  0.00    +0.002 C 
ATOM     32  C   UNL     1      -2.630  -6.419  -9.264  0.00  0.00    -0.077 C 
ATOM     33  N   UNL     1      -3.904  -6.586  -8.520  0.00  0.00    +0.384 N 
ATOM     34  C   UNL     1      -3.550  -6.483  -7.085  0.00  0.00    -0.056 C 
ATOM     35  H   UNL     1      -4.553  -5.856  -8.772  0.00  0.00    -0.081 HD
BRANCH  33  36
ATOM     36  C   UNL     1      -4.487  -7.904  -8.803  0.00  0.00    -0.043 C 
BRANCH  36  37
ATOM     37  C   UNL     1      -4.904  -7.969 -10.249  0.00  0.00    -0.064 A 
ATOM     38  C   UNL     1      -6.177  -7.577 -10.620  0.00  0.00    +0.002 A 
ATOM     39  C   UNL     1      -6.560  -7.636 -11.947  0.00  0.00    +0.000 A 
ATOM     40  C   UNL     1      -5.669  -8.087 -12.903  0.00  0.00    +0.000 A 
ATOM     41  C   UNL     1      -4.396  -8.478 -12.533  0.00  0.00    +0.000 A 
ATOM     42  C   UNL     1      -4.012  -8.415 -11.207  0.00  0.00    +0.002 A 
ENDBRANCH  36  37
ENDBRANCH  33  36
ENDBRANCH  28  30
ENDBRANCH   5  26
TORSDOF 7
