REMARK  Name = ZINC11790576
REMARK  6 active torsions:
REMARK  status: ('A' for Active; 'I' for Inactive)
REMARK    1  A    between atoms: C_5  and  C_7
REMARK    2  A    between atoms: C_7  and  C_21
REMARK    3  A    between atoms: N_10  and  C_14
REMARK    4  A    between atoms: C_14  and  C_15
REMARK    5  A    between atoms: C_26  and  C_27
REMARK    6  A    between atoms: C_26  and  N_62
REMARK                            x       y       z     vdW  Elec       q    Type
REMARK                         _______ _______ _______ _____ _____    ______ ____
ROOT
ATOM      1  C   UNL     1      -2.030   3.565  -4.731  0.00  0.00    +0.157 C 
ATOM      2  C   UNL     1      -2.421   5.028  -4.665  0.00  0.00    +0.253 C 
ATOM      3  O   UNL     1      -1.678   5.986  -4.686  0.00  0.00    -0.272 OA
ATOM      4  N   UNL     1      -3.766   5.042  -4.579  0.00  0.00    -0.221 N 
ATOM      5  C   UNL     1      -4.273   3.804  -4.580  0.00  0.00    +0.310 C 
ATOM      6  O   UNL     1      -5.462   3.562  -4.510  0.00  0.00    -0.252 OA
ATOM      7  N   UNL     1      -3.321   2.858  -4.668  0.00  0.00    -0.280 N 
ATOM      8  H   UNL     1      -3.458   1.898  -4.686  0.00  0.00    +0.152 HD
ENDROOT
BRANCH   1   9
ATOM      9  C   UNL     1      -1.151   3.189  -3.537  0.00  0.00    +0.024 C 
ATOM     10  C   UNL     1      -0.771   1.708  -3.627  0.00  0.00    -0.012 C 
ATOM     11  C   UNL     1       0.058   1.323  -2.400  0.00  0.00    -0.078 C 
ATOM     12  C   UNL     1      -1.059   2.996  -1.049  0.00  0.00    -0.078 C 
ATOM     13  C   UNL     1      -1.922   3.431  -2.236  0.00  0.00    -0.012 C 
ATOM     14  N   UNL     1      -0.749   1.556  -1.184  0.00  0.00    +0.382 N 
ATOM     15  H   UNL     1      -1.628   1.032  -1.261  0.00  0.00    -0.081 HD
BRANCH  14  16
ATOM     16  C   UNL     1      -0.013   1.086   0.008  0.00  0.00    -0.043 C 
BRANCH  16  17
ATOM     17  C   UNL     1      -0.718   1.572   1.248  0.00  0.00    -0.061 A 
ATOM     18  C   UNL     1      -0.359   2.779   1.818  0.00  0.00    +0.005 A 
ATOM     19  C   UNL     1      -1.009   3.230   2.952  0.00  0.00    +0.041 A 
ATOM     20  C   UNL     1      -2.011   2.467   3.524  0.00  0.00    +0.158 A 
ATOM     21  C   UNL     1      -2.368   1.253   2.956  0.00  0.00    +0.159 A 
ATOM     22  C   UNL     1      -1.719   0.807   1.817  0.00  0.00    +0.043 A 
ATOM     23  F   UNL     1      -3.346   0.507   3.513  0.00  0.00    -0.202 F 
ATOM     24  F   UNL     1      -2.643   2.904   4.636  0.00  0.00    -0.202 F 
ENDBRANCH  16  17
ENDBRANCH  14  16
ENDBRANCH   1   9
BRANCH   1  29
ATOM     25  C   UNL     1      -1.220   2.103  -8.110  0.00  0.00    +0.003 A 
ATOM     26  C   UNL     1      -0.013   2.741  -8.353  0.00  0.00    +0.020 A 
ATOM     27  C   UNL     1       0.486   3.620  -7.411  0.00  0.00    +0.111 A 
ATOM     28  N   UNL     1      -0.170   3.853  -6.291  0.00  0.00    -0.257 NA
ATOM     29  C   UNL     1      -1.320   3.264  -6.026  0.00  0.00    +0.074 A 
ATOM     30  C   UNL     1      -1.878   2.368  -6.919  0.00  0.00    +0.026 A 
ENDBRANCH   1  29
BRANCH   4  31
ATOM     31  C   UNL     1      -4.572   6.262  -4.492  0.00  0.00    +0.149 C 
BRANCH  31  32
ATOM     32  C   UNL     1      -4.945   6.728  -5.901  0.00  0.00    +0.136 C 
ATOM     33  C   UNL     1      -5.689   8.081  -5.841  0.00  0.00    +0.035 C 
ATOM     34  C   UNL     1      -6.758   7.971  -6.952  0.00  0.00    +0.031 C 
ATOM     35  C   UNL     1      -6.533   6.565  -7.551  0.00  0.00    +0.160 C 
ATOM     36  O   UNL     1      -5.890   5.814  -6.499  0.00  0.00    -0.375 OA
ENDBRANCH  31  32
ENDBRANCH   4  31
TORSDOF 6
