REMARK  Name = ZINC00951778
REMARK  10 active torsions:
REMARK  status: ('A' for Active; 'I' for Inactive)
REMARK    1  A    between atoms: C_1  and  C_2
REMARK    2  A    between atoms: C_2  and  N_3
REMARK    3  A    between atoms: N_3  and  C_4
REMARK    4  A    between atoms: N_3  and  C_6
REMARK    5  A    between atoms: C_4  and  C_5
REMARK    6  A    between atoms: C_9  and  C_12
REMARK    7  A    between atoms: C_14  and  C_26
REMARK    8  A    between atoms: C_16  and  C_21
REMARK    9  A    between atoms: C_16  and  O_25
REMARK   10  A    between atoms: C_26  and  C_28
REMARK                            x       y       z     vdW  Elec       q    Type
REMARK                         _______ _______ _______ _____ _____    ______ ____
ROOT
ATOM      1  C   UNL     1       1.436  -6.183   1.129  0.00  0.00    +0.120 C 
ATOM      2  C   UNL     1       1.738  -6.457  -0.349  0.00  0.00    +0.144 C 
ATOM      3  C   UNL     1       1.785  -7.973  -0.565  0.00  0.00    +0.243 C 
ATOM      4  N   UNL     1       2.761  -8.559   0.355  0.00  0.00    -0.264 N 
ATOM      5  C   UNL     1       3.026  -7.996   1.544  0.00  0.00    +0.302 C 
ATOM      6  O   UNL     1       3.838  -8.530   2.275  0.00  0.00    -0.253 OA
ATOM      7  N   UNL     1       2.430  -6.867   1.958  0.00  0.00    -0.292 N 
ATOM      8  H   UNL     1       3.225  -9.372   0.101  0.00  0.00    +0.153 HD
ATOM      9  H   UNL     1       2.663  -6.496   2.823  0.00  0.00    +0.151 HD
ENDROOT
BRANCH   1  13
ATOM     10  C   UNL     1       1.609  -1.980   1.869  0.00  0.00    +0.013 A 
ATOM     11  C   UNL     1       0.387  -2.602   1.700  0.00  0.00    +0.022 A 
ATOM     12  C   UNL     1       0.331  -3.962   1.460  0.00  0.00    +0.007 A 
ATOM     13  C   UNL     1       1.498  -4.700   1.389  0.00  0.00    -0.026 A 
ATOM     14  C   UNL     1       2.720  -4.078   1.558  0.00  0.00    +0.007 A 
ATOM     15  C   UNL     1       2.776  -2.717   1.794  0.00  0.00    +0.022 A 
BRANCH  10  16
ATOM     16  N   UNL     1       1.666  -0.604   2.112  0.00  0.00    -0.394 NA
ATOM     17  H   UNL     1       2.629  -0.319   2.206  0.00  0.00    +0.126 HD
BRANCH  16  19
ATOM     18  C   UNL     1       1.221   1.623   1.196  0.00  0.00    +0.022 C 
ATOM     19  C   UNL     1       1.048   0.117   0.991  0.00  0.00    +0.081 C 
ENDBRANCH  16  19
BRANCH  16  20
ATOM     20  C   UNL     1       0.941  -0.295   3.352  0.00  0.00    +0.081 C 
ATOM     21  C   UNL     1       1.657  -0.945   4.537  0.00  0.00    +0.022 C 
ENDBRANCH  16  20
ENDBRANCH  10  16
ENDBRANCH   1  13
BRANCH   3  22
ATOM     22  C   UNL     1       2.198  -8.271  -2.007  0.00  0.00    +0.436 C 
ATOM     23  F   UNL     1       3.403  -7.619  -2.291  0.00  0.00    -0.166 F 
ATOM     24  F   UNL     1       2.366  -9.651  -2.168  0.00  0.00    -0.166 F 
ATOM     25  F   UNL     1       1.205  -7.817  -2.881  0.00  0.00    -0.166 F 
ENDBRANCH   3  22
BRANCH   3  26
ATOM     26  O   UNL     1       0.494  -8.531  -0.311  0.00  0.00    -0.364 OA
ATOM     27  H   UNL     1       0.450  -9.490  -0.429  0.00  0.00    +0.212 HD
ENDBRANCH   3  26
BRANCH   2  28
ATOM     28  C   UNL     1       0.657  -5.852  -1.206  0.00  0.00    +0.174 C 
ATOM     29  O   UNL     1      -0.487  -6.242  -1.105  0.00  0.00    -0.291 OA
BRANCH  28  30
ATOM     30  C   UNL     1       0.988  -4.789  -2.168  0.00  0.00    +0.036 A 
ATOM     31  C   UNL     1      -0.026  -4.116  -2.866  0.00  0.00    +0.014 A 
ATOM     32  C   UNL     1       0.340  -3.124  -3.758  0.00  0.00    +0.020 A 
ATOM     33  C   UNL     1       1.681  -2.830  -3.931  0.00  0.00    +0.111 A 
ATOM     34  N   UNL     1       2.615  -3.478  -3.261  0.00  0.00    -0.263 NA
ATOM     35  C   UNL     1       2.319  -4.427  -2.397  0.00  0.00    +0.122 A 
ENDBRANCH  28  30
ENDBRANCH   2  28
TORSDOF 8
