REMARK  Name = ZINC19760434
REMARK  6 active torsions:
REMARK  status: ('A' for Active; 'I' for Inactive)
REMARK    1  A    between atoms: C_1  and  C_2
REMARK    2  A    between atoms: C_2  and  C_3
REMARK    3  A    between atoms: N_6  and  C_15
REMARK    4  A    between atoms: C_10  and  N_14
REMARK    5  A    between atoms: C_15  and  O_16
REMARK    6  A    between atoms: O_16  and  C_17
REMARK                            x       y       z     vdW  Elec       q    Type
REMARK                         _______ _______ _______ _____ _____    ______ ____
ROOT
ATOM      1  C   UNL     1       0.794  -1.105  -0.528  0.00  0.00    +0.190 C 
ATOM      2  C   UNL     1       1.082  -2.600  -0.720  0.00  0.00    +0.152 C 
ATOM      3  N   UNL     1       1.527  -2.793  -2.111  0.00  0.00    -0.301 N 
ATOM      4  C   UNL     1       0.840  -2.092  -3.120  0.00  0.00    +0.074 A 
ATOM      5  C   UNL     1       1.014  -2.442  -4.449  0.00  0.00    +0.028 A 
ATOM      6  C   UNL     1       0.342  -1.750  -5.439  0.00  0.00    +0.025 A 
ATOM      7  C   UNL     1      -0.508  -0.706  -5.101  0.00  0.00    +0.028 A 
ATOM      8  C   UNL     1      -0.686  -0.354  -3.770  0.00  0.00    +0.070 A 
ATOM      9  C   UNL     1      -0.014  -1.047  -2.775  0.00  0.00    +0.144 A 
ATOM     10  O   UNL     1      -0.199  -0.699  -1.473  0.00  0.00    -0.485 OA
ENDROOT
BRANCH   7  11
ATOM     11  N   UNL     1      -1.187  -0.004  -6.105  0.00  0.00    -0.358 N 
ATOM     12  H   UNL     1      -1.064  -0.249  -7.035  0.00  0.00    +0.142 HD
ATOM     13  H   UNL     1      -1.781   0.726  -5.870  0.00  0.00    +0.142 HD
ENDBRANCH   7  11
BRANCH   1  15
ATOM     14  C   UNL     1       0.105   0.643   1.119  0.00  0.00    +0.007 C 
ATOM     15  C   UNL     1       0.280  -0.860   0.892  0.00  0.00    +0.043 C 
ENDBRANCH   1  15
BRANCH   3  16
ATOM     16  C   UNL     1       2.645  -3.682  -2.434  0.00  0.00    +0.268 C 
BRANCH  16  17
ATOM     17  O   UNL     1       3.796  -2.901  -2.760  0.00  0.00    -0.365 OA
ATOM     18  C   UNL     1       4.466  -2.351  -1.623  0.00  0.00    +0.196 C 
ENDBRANCH  16  17
ENDBRANCH   3  16
TORSDOF 4
