REMARK  Name = ZINC06078540
REMARK  9 active torsions:
REMARK  status: ('A' for Active; 'I' for Inactive)
REMARK    1  A    between atoms: C_1  and  C_2
REMARK    2  A    between atoms: C_2  and  N_3
REMARK    3  A    between atoms: N_3  and  C_4
REMARK    4  A    between atoms: N_3  and  C_6
REMARK    5  A    between atoms: C_4  and  C_5
REMARK    6  A    between atoms: C_18  and  N_36
REMARK    7  A    between atoms: C_19  and  C_34
REMARK    8  A    between atoms: C_20  and  C_22
REMARK    9  A    between atoms: C_28  and  C_33
REMARK                            x       y       z     vdW  Elec       q    Type
REMARK                         _______ _______ _______ _____ _____    ______ ____
ROOT
ATOM      1  C   UNL     1      -6.487   3.591   4.782  0.00  0.00    +0.033 A 
ATOM      2  C   UNL     1      -6.921   4.159   3.583  0.00  0.00    +0.024 A 
ATOM      3  C   UNL     1      -6.260   3.900   2.418  0.00  0.00    +0.017 A 
ATOM      4  C   UNL     1      -5.141   3.062   2.425  0.00  0.00    +0.060 A 
ATOM      5  C   UNL     1      -4.698   2.486   3.628  0.00  0.00    +0.144 A 
ATOM      6  C   UNL     1      -5.379   2.757   4.804  0.00  0.00    +0.070 A 
ATOM      7  O   UNL     1      -3.616   1.677   3.627  0.00  0.00    -0.422 OA
ATOM      8  C   UNL     1      -2.942   1.404   2.498  0.00  0.00    +0.345 A 
ATOM      9  O   UNL     1      -1.972   0.668   2.552  0.00  0.00    -0.245 OA
ATOM     10  C   UNL     1      -3.323   1.942   1.259  0.00  0.00    +0.092 A 
ATOM     11  C   UNL     1      -4.408   2.767   1.186  0.00  0.00    +0.152 A 
ATOM     12  O   UNL     1      -4.808   3.302   0.017  0.00  0.00    -0.440 OA
ATOM     13  C   UNL     1      -4.403   2.759  -1.145  0.00  0.00    +0.199 C 
ATOM     14  C   UNL     1      -3.326   1.941  -1.208  0.00  0.00    +0.098 C 
ATOM     15  C   UNL     1      -2.532   1.605   0.023  0.00  0.00    +0.108 C 
ENDROOT
BRANCH  15  16
ATOM     16  C   UNL     1      -1.249   2.394   0.021  0.00  0.00    +0.003 A 
ATOM     17  C   UNL     1      -1.286   3.759   0.034  0.00  0.00    +0.017 A 
ATOM     18  C   UNL     1      -0.063   4.457   0.026  0.00  0.00    +0.001 A 
ATOM     19  C   UNL     1      -0.024   5.861   0.032  0.00  0.00    +0.010 A 
ATOM     20  C   UNL     1       1.179   6.500   0.024  0.00  0.00    +0.001 A 
ATOM     21  C   UNL     1       2.371   5.780   0.009  0.00  0.00    +0.005 A 
ATOM     22  C   UNL     1       2.369   4.419   0.002  0.00  0.00    -0.024 A 
ATOM     23  C   UNL     1       1.148   3.723   0.011  0.00  0.00    +0.076 A 
ATOM     24  N   UNL     1       1.116   2.386   0.004  0.00  0.00    -0.235 NA
ATOM     25  C   UNL     1      -0.021   1.732   0.012  0.00  0.00    +0.134 A 
ATOM     26 CL   UNL     1       0.002  -0.004   0.002  0.00  0.00    -0.062 Cl
ATOM     27  C   UNL     1       3.672   3.661  -0.015  0.00  0.00    +0.046 C 
ENDBRANCH  15  16
BRANCH  13  28
ATOM     28  N   UNL     1      -5.099   3.040  -2.294  0.00  0.00    -0.328 N 
ATOM     29  H   UNL     1      -5.873   3.624  -2.262  0.00  0.00    +0.145 HD
ATOM     30  H   UNL     1      -4.817   2.654  -3.138  0.00  0.00    +0.145 HD
ENDBRANCH  13  28
BRANCH  14  31
ATOM     31  C   UNL     1      -2.936   1.386  -2.470  0.00  0.00    +0.101 C 
ATOM     32  N   UNL     1      -2.627   0.946  -3.471  0.00  0.00    -0.191 NA
ENDBRANCH  14  31
BRANCH   1  33
ATOM     33  N   UNL     1      -7.171   3.863   5.963  0.00  0.00    -0.330 N 
BRANCH  33  35
ATOM     34  C   UNL     1      -9.603   3.910   5.708  0.00  0.00    +0.024 C 
ATOM     35  C   UNL     1      -8.342   4.744   5.945  0.00  0.00    +0.102 C 
ENDBRANCH  33  35
BRANCH  33  36
ATOM     36  C   UNL     1      -6.720   3.269   7.224  0.00  0.00    +0.102 C 
ATOM     37  C   UNL     1      -5.710   4.203   7.894  0.00  0.00    +0.024 C 
ENDBRANCH  33  36
ENDBRANCH   1  33
TORSDOF 6
