REMARK  Name = ZINC40921451
REMARK  7 active torsions:
REMARK  status: ('A' for Active; 'I' for Inactive)
REMARK    1  A    between atoms: C_1  and  C_2
REMARK    2  A    between atoms: C_5  and  C_8
REMARK    3  A    between atoms: C_8  and  O_9
REMARK    4  A    between atoms: O_9  and  C_10
REMARK    5  A    between atoms: C_13  and  C_16
REMARK    6  A    between atoms: C_21  and  C_25
REMARK    7  A    between atoms: C_21  and  C_26
REMARK                            x       y       z     vdW  Elec       q    Type
REMARK                         _______ _______ _______ _____ _____    ______ ____
ROOT
ATOM      1  C   UNL     1       2.223 -10.308  -0.067  0.00  0.00    +0.177 C 
ATOM      2  C   UNL     1       2.996 -10.696  -1.309  0.00  0.00    +0.041 C 
ATOM      3  C   UNL     1       4.298 -11.052  -1.262  0.00  0.00    +0.020 C 
ATOM      4  C   UNL     1       5.047 -11.416  -2.522  0.00  0.00    +0.058 C 
ATOM      5  C   UNL     1       4.086 -12.056  -3.526  0.00  0.00    -0.023 C 
ATOM      6  C   UNL     1       2.962 -11.057  -3.822  0.00  0.00    +0.086 C 
ATOM      7  C   UNL     1       2.298 -10.672  -2.529  0.00  0.00    +0.164 C 
ATOM      8  O   UNL     1       1.130 -10.335  -2.539  0.00  0.00    -0.292 OA
ATOM      9  C   UNL     1       4.835 -12.387  -4.818  0.00  0.00    +0.011 C 
ATOM     10  C   UNL     1       3.495 -13.335  -2.929  0.00  0.00    +0.011 C 
ATOM     11  N   UNL     1       4.994 -11.105  -0.078  0.00  0.00    -0.286 N 
ATOM     12  C   UNL     1       4.273 -11.065   1.103  0.00  0.00    +0.240 A 
ATOM     13  N   UNL     1       2.968 -10.695   1.121  0.00  0.00    -0.201 N 
ATOM     14  N   UNL     1       2.579 -10.779   2.457  0.00  0.00    -0.042 NA
ATOM     15  N   UNL     1       3.620 -11.166   3.120  0.00  0.00    -0.021 NA
ATOM     16  N   UNL     1       4.617 -11.334   2.329  0.00  0.00    -0.092 NA
ATOM     17  H   UNL     1       5.962 -11.169  -0.071  0.00  0.00    +0.155 HD
ENDROOT
BRANCH   1  21
ATOM     18  C   UNL     1       1.608  -6.079  -0.040  0.00  0.00    +0.121 A 
ATOM     19  C   UNL     1       0.520  -6.939  -0.044  0.00  0.00    +0.046 A 
ATOM     20  C   UNL     1       0.721  -8.306  -0.053  0.00  0.00    +0.009 A 
ATOM     21  C   UNL     1       2.006  -8.817  -0.058  0.00  0.00    -0.018 A 
ATOM     22  C   UNL     1       3.092  -7.961  -0.053  0.00  0.00    +0.009 A 
ATOM     23  C   UNL     1       2.896  -6.594  -0.050  0.00  0.00    +0.046 A 
BRANCH  18  24
ATOM     24  O   UNL     1       1.413  -4.734  -0.032  0.00  0.00    -0.487 OA
BRANCH  24  25
ATOM     25  C   UNL     1       0.059  -4.275  -0.021  0.00  0.00    +0.264 C 
BRANCH  25  30
ATOM     26  C   UNL     1      -0.018   1.503   0.010  0.00  0.00    +0.044 C 
ATOM     27  C   UNL     1       0.002  -0.004   0.002  0.00  0.00    -0.050 A 
ATOM     28  C   UNL     1       0.006  -0.689  -1.199  0.00  0.00    +0.004 A 
ATOM     29  C   UNL     1       0.025  -2.071  -1.206  0.00  0.00    +0.007 A 
ATOM     30  C   UNL     1       0.040  -2.768  -0.013  0.00  0.00    -0.010 A 
ATOM     31  C   UNL     1       0.037  -2.084   1.188  0.00  0.00    +0.007 A 
ATOM     32  C   UNL     1       0.023  -0.702   1.195  0.00  0.00    +0.004 A 
ENDBRANCH  25  30
ENDBRANCH  24  25
ENDBRANCH  18  24
ENDBRANCH   1  21
TORSDOF 4
