REMARK  Name = ZINC61689098
REMARK  8 active torsions:
REMARK  status: ('A' for Active; 'I' for Inactive)
REMARK    1  A    between atoms: C_1  and  C_2
REMARK    2  A    between atoms: C_3  and  C_16
REMARK    3  A    between atoms: C_4  and  N_14
REMARK    4  A    between atoms: C_6  and  C_8
REMARK    5  A    between atoms: N_11  and  C_13
REMARK    6  A    between atoms: N_14  and  N_15
REMARK    7  A    between atoms: C_16  and  C_17
REMARK    8  A    between atoms: C_16  and  C_18
REMARK                            x       y       z     vdW  Elec       q    Type
REMARK                         _______ _______ _______ _____ _____    ______ ____
ROOT
ATOM      1  C   UNL     1      -0.454   1.504  -0.167  0.00  0.00    +0.066 C 
ATOM      2  C   UNL     1      -0.278   0.011  -0.060  0.00  0.00    +0.047 A 
ATOM      3  C   UNL     1      -0.116  -0.757  -1.198  0.00  0.00    +0.017 A 
ATOM      4  C   UNL     1       0.045  -2.137  -1.054  0.00  0.00    +0.140 A 
ATOM      5  N   UNL     1       0.038  -2.663   0.166  0.00  0.00    -0.211 NA
ATOM      6  C   UNL     1      -0.120  -1.892   1.233  0.00  0.00    +0.165 A 
ATOM      7  N   UNL     1      -0.270  -0.578   1.126  0.00  0.00    -0.232 NA
ENDROOT
BRANCH   6   8
ATOM      8  C   UNL     1      -0.123  -2.512   2.579  0.00  0.00    +0.057 A 
ATOM      9  C   UNL     1      -0.284  -1.839   3.807  0.00  0.00    +0.146 A 
ATOM     10  N   UNL     1      -0.230  -2.725   4.765  0.00  0.00    -0.179 NA
ATOM     11  N   UNL     1      -0.034  -3.988   4.193  0.00  0.00    -0.274 N 
ATOM     12  C   UNL     1       0.024  -3.842   2.857  0.00  0.00    +0.119 A 
ATOM     13  C   UNL     1       0.083  -5.252   4.924  0.00  0.00    +0.172 C 
ENDBRANCH   6   8
BRANCH   3  14
ATOM     14  C   UNL     1      -0.115  -0.119  -2.563  0.00  0.00    +0.018 C 
ATOM     15  C   UNL     1       1.241  -0.353  -3.234  0.00  0.00    +0.012 C 
ATOM     16  C   UNL     1      -1.220  -0.742  -3.418  0.00  0.00    +0.012 C 
ENDBRANCH   3  14
BRANCH   4  17
ATOM     17  N   UNL     1       0.209  -2.945  -2.167  0.00  0.00    -0.267 N 
ATOM     18  H   UNL     1       0.315  -2.546  -3.045  0.00  0.00    +0.167 HD
BRANCH  17  19
ATOM     19  N   UNL     1       0.222  -4.304  -2.029  0.00  0.00    -0.255 NA
ATOM     20  H   UNL     1      -0.619  -4.629  -1.575  0.00  0.00    +0.140 HD
ATOM     21  H   UNL     1       0.349  -4.757  -2.921  0.00  0.00    +0.140 HD
ENDBRANCH  17  19
ENDBRANCH   4  17
TORSDOF 4
