REMARK  Name = ZINC66647497
REMARK  7 active torsions:
REMARK  status: ('A' for Active; 'I' for Inactive)
REMARK    1  A    between atoms: C_1  and  C_2
REMARK    2  A    between atoms: C_2  and  C_4
REMARK    3  A    between atoms: C_2  and  N_18
REMARK    4  A    between atoms: C_4  and  C_5
REMARK    5  A    between atoms: C_14  and  O_16
REMARK    6  A    between atoms: O_16  and  C_17
REMARK    7  A    between atoms: C_19  and  C_21
REMARK                            x       y       z     vdW  Elec       q    Type
REMARK                         _______ _______ _______ _____ _____    ______ ____
ROOT
ATOM      1  C   UNL     1      -1.433  -0.534   0.013  0.00  0.00    +0.118 C 
ENDROOT
BRANCH   1   2
ATOM      2  C   UNL     1      -1.416  -2.035  -0.119  0.00  0.00    +0.217 C 
ATOM      3  O   UNL     1      -0.359  -2.623  -0.213  0.00  0.00    -0.276 OA
ATOM      4  N   UNL     1      -2.574  -2.724  -0.133  0.00  0.00    -0.300 N 
ATOM      5  C   UNL     1      -2.500  -4.179  -0.258  0.00  0.00    +0.109 C 
ATOM      6  C   UNL     1      -2.612  -4.775   1.131  0.00  0.00    +0.038 C 
ATOM      7  C   UNL     1      -4.083  -4.966   1.511  0.00  0.00    +0.112 C 
ATOM      8  N   UNL     1      -4.925  -3.833   1.097  0.00  0.00    -0.266 N 
ATOM      9  C   UNL     1      -4.529  -2.445   1.258  0.00  0.00    +0.130 C 
ATOM     10  C   UNL     1      -3.784  -1.986  -0.021  0.00  0.00    +0.127 C 
ATOM     11  C   UNL     1      -6.124  -4.097   0.540  0.00  0.00    +0.403 C 
ATOM     12  O   UNL     1      -6.485  -5.248   0.391  0.00  0.00    -0.226 OA
BRANCH  11  13
ATOM     13  O   UNL     1      -6.921  -3.085   0.149  0.00  0.00    -0.454 OA
ATOM     14  C   UNL     1      -8.178  -3.438  -0.433  0.00  0.00    +0.282 C 
ENDBRANCH  11  13
ENDBRANCH   1   2
BRANCH   1  16
ATOM     15  C   UNL     1      -0.019   1.526   0.010  0.00  0.00    +0.028 C 
ATOM     16  C   UNL     1       0.002  -0.004   0.002  0.00  0.00    +0.079 C 
BRANCH  16  17
ATOM     17  N   UNL     1       0.711  -0.489   1.189  0.00  0.00    -0.312 N 
ATOM     18  C   UNL     1       2.054  -0.600   1.174  0.00  0.00    +0.216 C 
ATOM     19  O   UNL     1       2.676  -0.297   0.177  0.00  0.00    -0.276 OA
ATOM     20  H   UNL     1       0.213  -0.731   1.986  0.00  0.00    +0.149 HD
BRANCH  18  21
ATOM     21  C   UNL     1       2.783  -1.099   2.395  0.00  0.00    +0.075 C 
ATOM     22  C   UNL     1       2.502  -0.165   3.574  0.00  0.00    +0.013 C 
ATOM     23  C   UNL     1       3.242  -0.672   4.813  0.00  0.00    +0.001 C 
ATOM     24  C   UNL     1       4.746  -0.702   4.533  0.00  0.00    +0.000 C 
ATOM     25  C   UNL     1       5.026  -1.635   3.354  0.00  0.00    +0.001 C 
ATOM     26  C   UNL     1       4.287  -1.129   2.114  0.00  0.00    +0.013 C 
ENDBRANCH  18  21
ENDBRANCH  16  17
ENDBRANCH   1  16
TORSDOF 5
