REMARK  Name = ZINC39927330
REMARK  11 active torsions:
REMARK  status: ('A' for Active; 'I' for Inactive)
REMARK    1  A    between atoms: C_1  and  O_2
REMARK    2  A    between atoms: O_2  and  C_3
REMARK    3  A    between atoms: C_5  and  C_13
REMARK    4  A    between atoms: C_7  and  O_11
REMARK    5  A    between atoms: C_8  and  O_9
REMARK    6  A    between atoms: O_9  and  C_10
REMARK    7  A    between atoms: O_11  and  C_12
REMARK    8  A    between atoms: C_17  and  S_20
REMARK    9  A    between atoms: N_18  and  N_19
REMARK   10  A    between atoms: S_20  and  C_21
REMARK   11  A    between atoms: C_21  and  C_22
REMARK                            x       y       z     vdW  Elec       q    Type
REMARK                         _______ _______ _______ _____ _____    ______ ____
ROOT
ATOM      1  C   UNL     1       2.398   0.396  -4.252  0.00  0.00    +0.223 C 
ATOM      2  N   UNL     1       2.844   1.691  -3.708  0.00  0.00    -0.241 N 
ATOM      3  N   UNL     1       4.232   1.731  -3.884  0.00  0.00    -0.161 NA
ATOM      4  C   UNL     1       4.668   0.656  -4.449  0.00  0.00    +0.189 C 
ATOM      5  N   UNL     1       3.640  -0.238  -4.726  0.00  0.00    -0.221 N 
ATOM      6  H   UNL     1       2.287   2.377  -3.308  0.00  0.00    +0.171 HD
ENDROOT
BRANCH   1   9
ATOM      7  C   UNL     1       1.853  -1.459  -1.005  0.00  0.00    +0.166 A 
ATOM      8  C   UNL     1       2.440  -0.692  -2.000  0.00  0.00    +0.056 A 
ATOM      9  C   UNL     1       1.756  -0.438  -3.174  0.00  0.00    +0.000 A 
ATOM     10  C   UNL     1       0.485  -0.948  -3.362  0.00  0.00    +0.056 A 
ATOM     11  C   UNL     1      -0.109  -1.716  -2.372  0.00  0.00    +0.166 A 
ATOM     12  C   UNL     1       0.577  -1.978  -1.192  0.00  0.00    +0.204 A 
BRANCH   7  14
ATOM     13  C   UNL     1       3.833  -1.143   0.274  0.00  0.00    +0.277 C 
ATOM     14  O   UNL     1       2.526  -1.708   0.150  0.00  0.00    -0.491 OA
ENDBRANCH   7  14
BRANCH  12  15
ATOM     15  O   UNL     1      -0.001  -2.735  -0.220  0.00  0.00    -0.488 OA
ATOM     16  C   UNL     1      -0.778  -2.048   0.762  0.00  0.00    +0.277 C 
ENDBRANCH  12  15
BRANCH  11  17
ATOM     17  O   UNL     1      -1.360  -2.216  -2.557  0.00  0.00    -0.491 OA
ATOM     18  C   UNL     1      -2.004  -1.911  -3.796  0.00  0.00    +0.277 C 
ENDBRANCH  11  17
ENDBRANCH   1   9
BRANCH   5  19
ATOM     19  N   UNL     1       3.757  -1.463  -5.318  0.00  0.00    -0.250 NA
ATOM     20  H   UNL     1       4.725  -1.690  -5.492  0.00  0.00    +0.141 HD
ATOM     21  H   UNL     1       3.312  -2.178  -4.762  0.00  0.00    +0.141 HD
ENDBRANCH   5  19
BRANCH   4  22
ATOM     22  S   UNL     1       6.363   0.358  -4.827  0.00  0.00    -0.080 S 
BRANCH  22  23
ATOM     23  C   UNL     1       7.212   1.852  -4.245  0.00  0.00    +0.151 C 
BRANCH  23  24
ATOM     24  C   UNL     1       8.690   1.726  -4.511  0.00  0.00    +0.118 A 
ATOM     25  N   UNL     1       9.286   2.113  -5.601  0.00  0.00    -0.232 NA
ATOM     26  C   UNL     1      10.616   1.852  -5.510  0.00  0.00    +0.089 A 
ATOM     27  C   UNL     1      11.698   2.057  -6.370  0.00  0.00    +0.030 A 
ATOM     28  C   UNL     1      12.954   1.678  -5.985  0.00  0.00    +0.002 A 
ATOM     29  C   UNL     1      13.167   1.090  -4.747  0.00  0.00    +0.002 A 
ATOM     30  C   UNL     1      12.114   0.877  -3.883  0.00  0.00    +0.028 A 
ATOM     31  C   UNL     1      10.832   1.257  -4.256  0.00  0.00    +0.066 A 
ATOM     32  N   UNL     1       9.595   1.195  -3.645  0.00  0.00    -0.341 N 
ATOM     33  H   UNL     1       9.407   0.838  -2.763  0.00  0.00    +0.167 HD
ENDBRANCH  23  24
ENDBRANCH  22  23
ENDBRANCH   4  22
TORSDOF 8
