REMARK  Name = ZINC58474757
REMARK  5 active torsions:
REMARK  status: ('A' for Active; 'I' for Inactive)
REMARK    1  A    between atoms: C_3  and  C_10
REMARK    2  A    between atoms: N_12  and  C_13
REMARK    3  A    between atoms: C_13  and  C_14
REMARK    4  A    between atoms: N_16  and  C_17
REMARK    5  A    between atoms: C_17  and  C_18
REMARK                            x       y       z     vdW  Elec       q    Type
REMARK                         _______ _______ _______ _____ _____    ______ ____
ROOT
ATOM      1  C   UNL     1       3.552   2.120   1.264  0.00  0.00    +0.218 C 
ATOM      2  O   UNL     1       3.932   2.825   0.352  0.00  0.00    -0.275 OA
ATOM      3  N   UNL     1       4.386   1.826   2.281  0.00  0.00    -0.306 N 
ATOM      4  H   UNL     1       4.082   1.263   3.010  0.00  0.00    +0.149 HD
ENDROOT
BRANCH   1   7
ATOM      5  C   UNL     1      -0.020   1.529   0.013  0.00  0.00    +0.020 C 
ATOM      6  C   UNL     1       1.417   2.056   0.003  0.00  0.00    +0.016 C 
ATOM      7  C   UNL     1       2.147   1.575   1.259  0.00  0.00    +0.092 C 
ATOM      8  C   UNL     1       2.193   0.044   1.263  0.00  0.00    +0.122 C 
ATOM      9  N   UNL     1       0.824  -0.471   1.127  0.00  0.00    -0.285 N 
ATOM     10  C   UNL     1       0.002  -0.003   0.003  0.00  0.00    +0.109 C 
ATOM     11  C   UNL     1       0.332  -1.357   2.016  0.00  0.00    +0.300 C 
ATOM     12  O   UNL     1       1.050  -1.807   2.887  0.00  0.00    -0.253 OA
ATOM     13  N   UNL     1      -0.957  -1.743   1.939  0.00  0.00    -0.313 N 
ATOM     14  H   UNL     1      -1.511  -1.442   1.201  0.00  0.00    +0.146 HD
ATOM     15  H   UNL     1      -1.331  -2.323   2.621  0.00  0.00    +0.146 HD
ENDBRANCH   1   7
BRANCH   3  16
ATOM     16  C   UNL     1       5.752   2.356   2.285  0.00  0.00    +0.200 C 
BRANCH  16  17
ATOM     17  C   UNL     1       6.470   1.882   3.522  0.00  0.00    +0.230 C 
ATOM     18  O   UNL     1       5.898   1.172   4.322  0.00  0.00    -0.274 OA
ATOM     19  N   UNL     1       7.749   2.248   3.741  0.00  0.00    -0.305 N 
ATOM     20  H   UNL     1       8.206   2.817   3.102  0.00  0.00    +0.149 HD
BRANCH  19  21
ATOM     21  C   UNL     1       8.447   1.788   4.944  0.00  0.00    +0.217 C 
BRANCH  21  22
ATOM     22  C   UNL     1       9.873   2.342   4.949  0.00  0.00    +0.405 C 
ATOM     23  F   UNL     1       9.831   3.740   4.941  0.00  0.00    -0.169 F 
ATOM     24  F   UNL     1      10.540   1.902   6.097  0.00  0.00    -0.169 F 
ATOM     25  F   UNL     1      10.553   1.890   3.812  0.00  0.00    -0.169 F 
ENDBRANCH  21  22
ENDBRANCH  19  21
ENDBRANCH  16  17
ENDBRANCH   3  16
TORSDOF 5
