REMARK  Name = ZINC57682337
REMARK  5 active torsions:
REMARK  status: ('A' for Active; 'I' for Inactive)
REMARK    1  A    between atoms: C_1  and  C_2
REMARK    2  A    between atoms: C_4  and  C_24
REMARK    3  A    between atoms: C_9  and  N_14
REMARK    4  A    between atoms: C_11  and  C_13
REMARK    5  A    between atoms: C_15  and  C_17
REMARK                            x       y       z     vdW  Elec       q    Type
REMARK                         _______ _______ _______ _____ _____    ______ ____
ROOT
ATOM      1  C   UNL     1      -0.018   1.503   0.010  0.00  0.00    +0.066 C 
ATOM      2  C   UNL     1       0.002  -0.004   0.002  0.00  0.00    +0.044 A 
ATOM      3  C   UNL     1       0.006  -0.699  -1.197  0.00  0.00    +0.046 A 
ATOM      4  C   UNL     1       0.025  -2.085  -1.159  0.00  0.00    +0.044 A 
ATOM      5  N   UNL     1       0.039  -2.697   0.013  0.00  0.00    -0.216 NA
ATOM      6  C   UNL     1       0.035  -2.003   1.140  0.00  0.00    +0.253 A 
ATOM      7  N   UNL     1       0.022  -0.680   1.139  0.00  0.00    -0.216 NA
ATOM      8  N   UNL     1       0.049  -2.682   2.357  0.00  0.00    -0.183 N 
ATOM      9  C   UNL     1       0.042  -2.113   3.595  0.00  0.00    +0.132 A 
ATOM     10  C   UNL     1       0.061  -3.121   4.508  0.00  0.00    +0.068 A 
ATOM     11  C   UNL     1       0.081  -4.332   3.809  0.00  0.00    +0.062 A 
ATOM     12  N   UNL     1       0.069  -4.073   2.527  0.00  0.00    -0.167 NA
ATOM     13  C   UNL     1       0.107  -5.706   4.428  0.00  0.00    +0.067 C 
ATOM     14  C   UNL     1       0.029  -2.883  -2.437  0.00  0.00    +0.066 C 
ENDROOT
BRANCH   9  15
ATOM     15  N   UNL     1       0.019  -0.747   3.874  0.00  0.00    -0.270 N 
ATOM     16  C   UNL     1       0.014  -0.322   5.153  0.00  0.00    +0.222 C 
ATOM     17  O   UNL     1       0.029  -1.126   6.061  0.00  0.00    -0.275 OA
ATOM     18  H   UNL     1       0.007  -0.104   3.149  0.00  0.00    +0.156 HD
BRANCH  16  19
ATOM     19  C   UNL     1      -0.010   1.155   5.456  0.00  0.00    +0.079 C 
ATOM     20  C   UNL     1      -0.000   1.370   6.974  0.00  0.00    +0.017 C 
ATOM     21  C   UNL     1      -0.205   2.861   7.253  0.00  0.00    +0.027 C 
ATOM     22  C   UNL     1       0.738   3.677   6.419  0.00  0.00    -0.031 C 
ATOM     23  C   UNL     1       1.361   3.226   5.377  0.00  0.00    -0.030 C 
ATOM     24  C   UNL     1       1.232   1.822   4.860  0.00  0.00    +0.039 C 
ENDBRANCH  16  19
ENDBRANCH   9  15
TORSDOF 2
