REMARK  Name = ZINC44713845
REMARK  8 active torsions:
REMARK  status: ('A' for Active; 'I' for Inactive)
REMARK    1  A    between atoms: C_1  and  C_2
REMARK    2  A    between atoms: C_3  and  C_9
REMARK    3  A    between atoms: C_4  and  C_8
REMARK    4  A    between atoms: C_9  and  C_11
REMARK    5  A    between atoms: C_9  and  N_12
REMARK    6  A    between atoms: C_13  and  C_15
REMARK    7  A    between atoms: C_26  and  C_28
REMARK    8  A    between atoms: C_28  and  C_34
REMARK                            x       y       z     vdW  Elec       q    Type
REMARK                         _______ _______ _______ _____ _____    ______ ____
ROOT
ATOM      1  C   UNL     1      -2.801  -1.628  -5.700  0.00  0.00    +0.100 C 
ATOM      2  C   UNL     1      -3.977  -1.776  -4.709  0.00  0.00    +0.121 C 
ATOM      3  N   UNL     1      -4.898  -0.667  -5.051  0.00  0.00    -0.300 N 
ATOM      4  C   UNL     1      -4.863  -0.603  -6.532  0.00  0.00    +0.115 C 
ATOM      5  C   UNL     1      -3.388  -0.861  -6.897  0.00  0.00    -0.004 C 
ATOM      6  C   UNL     1      -3.297  -1.707  -8.163  0.00  0.00    -0.010 C 
ATOM      7  C   UNL     1      -3.833  -0.901  -9.350  0.00  0.00    -0.082 C 
ATOM      8  N   UNL     1      -3.047   0.330  -9.503  0.00  0.00    +0.379 N 
ATOM      9  C   UNL     1      -3.215   1.180  -8.318  0.00  0.00    -0.082 C 
ATOM     10  C   UNL     1      -2.653   0.463  -7.088  0.00  0.00    -0.010 C 
ATOM     11  C   UNL     1      -5.606   0.109  -4.207  0.00  0.00    +0.222 C 
ATOM     12  O   UNL     1      -5.473  -0.020  -3.009  0.00  0.00    -0.275 OA
ATOM     13  H   UNL     1      -2.072   0.094  -9.610  0.00  0.00    -0.086 HD
ATOM     14  H   UNL     1      -3.362   0.829 -10.321  0.00  0.00    -0.086 HD
ENDROOT
BRANCH  11  15
ATOM     15  C   UNL     1      -6.564   1.136  -4.753  0.00  0.00    +0.044 C 
ATOM     16  C   UNL     1      -5.780   2.226  -5.487  0.00  0.00    +0.016 C 
ATOM     17  C   UNL     1      -4.810   2.899  -4.515  0.00  0.00    +0.001 C 
ATOM     18  C   UNL     1      -5.596   3.526  -3.362  0.00  0.00    +0.000 C 
ATOM     19  C   UNL     1      -6.380   2.437  -2.627  0.00  0.00    +0.001 C 
ATOM     20  C   UNL     1      -7.351   1.763  -3.600  0.00  0.00    +0.016 C 
ATOM     21  C   UNL     1      -7.535   0.463  -5.725  0.00  0.00    +0.021 C 
ENDBRANCH  11  15
BRANCH   1  23
ATOM     22  N   UNL     1      -0.404  -1.078  -5.434  0.00  0.00    -0.308 N 
ATOM     23  C   UNL     1      -1.680  -0.841  -5.071  0.00  0.00    +0.219 C 
ATOM     24  O   UNL     1      -1.927   0.005  -4.238  0.00  0.00    -0.275 OA
ATOM     25  H   UNL     1      -0.207  -1.755  -6.101  0.00  0.00    +0.149 HD
BRANCH  22  26
ATOM     26  C   UNL     1       0.685  -0.313  -4.823  0.00  0.00    +0.104 C 
ATOM     27  C   UNL     1       0.796   1.052  -5.505  0.00  0.00    +0.033 C 
BRANCH  26  30
ATOM     28  C   UNL     1       1.705  -1.667  -7.452  0.00  0.00    +0.065 C 
ATOM     29  C   UNL     1       2.422  -1.649  -6.127  0.00  0.00    +0.038 A 
ATOM     30  C   UNL     1       1.981  -1.064  -4.989  0.00  0.00    +0.015 A 
ATOM     31  C   UNL     1       2.941  -1.279  -3.995  0.00  0.00    +0.065 A 
ATOM     32  N   UNL     1       3.923  -1.968  -4.517  0.00  0.00    -0.179 NA
ATOM     33  N   UNL     1       3.616  -2.219  -5.860  0.00  0.00    -0.281 N 
ATOM     34  H   UNL     1       4.166  -2.712  -6.489  0.00  0.00    +0.189 HD
ATOM     35  C   UNL     1       2.859  -0.798  -2.569  0.00  0.00    +0.068 C 
ENDBRANCH  26  30
ENDBRANCH  22  26
ENDBRANCH   1  23
TORSDOF 4
