REMARK  Name = ZINC36206195
REMARK  15 active torsions:
REMARK  status: ('A' for Active; 'I' for Inactive)
REMARK    1  A    between atoms: C_1  and  C_2
REMARK    2  A    between atoms: C_2  and  C_3
REMARK    3  A    between atoms: C_2  and  N_4
REMARK    4  A    between atoms: N_4  and  C_5
REMARK    5  A    between atoms: N_4  and  C_24
REMARK    6  A    between atoms: C_5  and  C_6
REMARK    7  A    between atoms: C_12  and  C_17
REMARK    8  A    between atoms: C_24  and  C_25
REMARK    9  A    between atoms: C_25  and  C_27
REMARK   10  A    between atoms: C_25  and  O_33
REMARK   11  A    between atoms: C_27  and  O_28
REMARK   12  A    between atoms: O_28  and  C_29
REMARK   13  A    between atoms: C_29  and  C_30
REMARK   14  A    between atoms: C_29  and  C_31
REMARK   15  A    between atoms: C_29  and  C_32
REMARK                            x       y       z     vdW  Elec       q    Type
REMARK                         _______ _______ _______ _____ _____    ______ ____
ROOT
ATOM      1  C   UNL     1      -2.560   1.407  -0.607  0.00  0.00    +0.094 A 
ATOM      2  N   UNL     1      -3.321   2.066  -1.519  0.00  0.00    -0.312 N 
ATOM      3  H   UNL     1      -3.620   1.598  -2.315  0.00  0.00    +0.170 HD
ATOM      4  C   UNL     1      -3.668   3.354  -1.341  0.00  0.00    +0.260 A 
ATOM      5  O   UNL     1      -4.351   3.930  -2.169  0.00  0.00    -0.267 OA
ATOM      6  C   UNL     1      -3.223   4.036  -0.164  0.00  0.00    +0.080 A 
ATOM      7  C   UNL     1      -3.463   5.412   0.251  0.00  0.00    +0.004 A 
ATOM      8  C   UNL     1      -2.934   5.842   1.422  0.00  0.00    +0.056 A 
ATOM      9  S   UNL     1      -2.074   4.407   2.037  0.00  0.00    -0.076 S 
ATOM     10  C   UNL     1      -2.442   3.275   0.721  0.00  0.00    +0.116 A 
ATOM     11  N   UNL     1      -2.143   2.001   0.479  0.00  0.00    -0.229 NA
ENDROOT
BRANCH   7  12
ATOM     12  C   UNL     1      -4.272   6.325  -0.592  0.00  0.00    -0.016 A 
ATOM     13  C   UNL     1      -3.994   6.451  -1.952  0.00  0.00    +0.010 A 
ATOM     14  C   UNL     1      -4.750   7.301  -2.732  0.00  0.00    +0.020 A 
ATOM     15  C   UNL     1      -5.783   8.029  -2.167  0.00  0.00    +0.041 A 
ATOM     16  C   UNL     1      -6.063   7.908  -0.816  0.00  0.00    +0.020 A 
ATOM     17  C   UNL     1      -5.317   7.056  -0.028  0.00  0.00    +0.010 A 
ATOM     18 CL   UNL     1      -6.731   9.097  -3.154  0.00  0.00    -0.084 Cl
ENDBRANCH   7  12
BRANCH   1  19
ATOM     19  C   UNL     1      -2.197  -0.035  -0.848  0.00  0.00    -0.003 C 
BRANCH  19  20
ATOM     20  N   UNL     1      -1.247  -0.479   0.180  0.00  0.00    +0.388 N 
ATOM     21  H   UNL     1      -1.494  -0.067   1.067  0.00  0.00    -0.081 HD
BRANCH  20  23
ATOM     22  C   UNL     1       0.492  -0.701  -1.530  0.00  0.00    -0.014 C 
ATOM     23  C   UNL     1       0.111  -0.061  -0.193  0.00  0.00    -0.074 C 
ATOM     24  C   UNL     1       0.157   1.463  -0.326  0.00  0.00    -0.014 C 
ENDBRANCH  20  23
BRANCH  20  25
ATOM     25  C   UNL     1      -1.295  -1.943   0.291  0.00  0.00    -0.044 C 
BRANCH  25  26
ATOM     26  C   UNL     1      -0.400  -2.397   1.446  0.00  0.00    +0.124 C 
BRANCH  26  27
ATOM     27  O   UNL     1      -0.863  -1.813   2.666  0.00  0.00    -0.391 OA
ATOM     28  H   UNL     1      -1.771  -2.053   2.897  0.00  0.00    +0.210 HD
ENDBRANCH  26  27
BRANCH  26  29
ATOM     29  C   UNL     1      -0.448  -3.922   1.561  0.00  0.00    +0.189 C 
BRANCH  29  30
ATOM     30  O   UNL     1       0.476  -4.354   2.562  0.00  0.00    -0.372 OA
BRANCH  30  31
ATOM     31  C   UNL     1       0.509  -5.770   2.749  0.00  0.00    +0.061 C 
ATOM     32  C   UNL     1       0.914  -6.448   1.439  0.00  0.00    +0.041 C 
ATOM     33  C   UNL     1       1.527  -6.116   3.838  0.00  0.00    +0.041 C 
ATOM     34  C   UNL     1      -0.877  -6.262   3.171  0.00  0.00    +0.041 C 
ENDBRANCH  30  31
ENDBRANCH  29  30
ENDBRANCH  26  29
ENDBRANCH  25  26
ENDBRANCH  20  25
ENDBRANCH  19  20
ENDBRANCH   1  19
TORSDOF 10
