REMARK  Name = ZINC39064963
REMARK  5 active torsions:
REMARK  status: ('A' for Active; 'I' for Inactive)
REMARK    1  A    between atoms: C_1  and  C_2
REMARK    2  A    between atoms: C_3  and  C_4
REMARK    3  A    between atoms: C_6  and  C_9
REMARK    4  A    between atoms: N_11  and  C_12
REMARK    5  A    between atoms: N_11  and  C_13
REMARK                            x       y       z     vdW  Elec       q    Type
REMARK                         _______ _______ _______ _____ _____    ______ ____
ROOT
ATOM      1  C   UNL     1       1.200   0.122  -2.122  0.00  0.00    +0.180 C 
ATOM      2  C   UNL     1       2.673  -0.149  -2.433  0.00  0.00    +0.237 C 
ATOM      3  O   UNL     1       2.233   1.056  -1.799  0.00  0.00    -0.354 OA
ENDROOT
BRANCH   2   4
ATOM      4  C   UNL     1       3.394  -1.167  -1.587  0.00  0.00    +0.247 C 
ATOM      5  O   UNL     1       4.310  -0.822  -0.872  0.00  0.00    -0.273 OA
ATOM      6  N   UNL     1       3.020  -2.462  -1.627  0.00  0.00    -0.305 N 
ATOM      7  C   UNL     1       3.720  -3.451  -0.805  0.00  0.00    +0.131 C 
ATOM      8  C   UNL     1       1.913  -2.878  -2.491  0.00  0.00    +0.131 C 
ENDBRANCH   2   4
BRANCH   1  11
ATOM      9  C   UNL     1      -0.018   1.503   0.010  0.00  0.00    +0.035 C 
ATOM     10  C   UNL     1       0.002  -0.004   0.002  0.00  0.00    -0.032 C 
ATOM     11  C   UNL     1       0.569  -0.646  -0.989  0.00  0.00    +0.003 C 
ENDBRANCH   1  11
TORSDOF 2
