REMARK  Name = ZINC57857014
REMARK  11 active torsions:
REMARK  status: ('A' for Active; 'I' for Inactive)
REMARK    1  A    between atoms: C_1  and  C_2
REMARK    2  A    between atoms: C_2  and  C_4
REMARK    3  A    between atoms: C_2  and  N_16
REMARK    4  A    between atoms: C_4  and  O_5
REMARK    5  A    between atoms: O_5  and  C_6
REMARK    6  A    between atoms: C_9  and  C_12
REMARK    7  A    between atoms: C_12  and  C_13
REMARK    8  A    between atoms: C_12  and  C_14
REMARK    9  A    between atoms: C_12  and  C_15
REMARK   10  A    between atoms: N_19  and  N_20
REMARK   11  A    between atoms: C_21  and  C_23
REMARK                            x       y       z     vdW  Elec       q    Type
REMARK                         _______ _______ _______ _____ _____    ______ ____
ROOT
ATOM      1  N   UNL     1       0.711  -0.489   1.189  0.00  0.00    -0.292 N 
ATOM      2  C   UNL     1       2.054  -0.600   1.174  0.00  0.00    +0.316 C 
ATOM      3  O   UNL     1       2.677  -0.297   0.175  0.00  0.00    -0.251 OA
ATOM      4  N   UNL     1       2.706  -1.046   2.266  0.00  0.00    -0.218 N 
ATOM      5  H   UNL     1       0.213  -0.731   1.986  0.00  0.00    +0.151 HD
ATOM      6  H   UNL     1       3.672  -1.126   2.255  0.00  0.00    +0.174 HD
ENDROOT
BRANCH   4   7
ATOM      7  N   UNL     1       1.987  -1.396   3.416  0.00  0.00    -0.231 N 
ATOM      8  C   UNL     1       2.639  -1.842   4.508  0.00  0.00    +0.258 C 
ATOM      9  O   UNL     1       3.848  -1.941   4.495  0.00  0.00    -0.271 OA
ATOM     10  H   UNL     1       1.020  -1.316   3.427  0.00  0.00    +0.173 HD
BRANCH   8  11
ATOM     11  C   UNL     1       1.866  -2.218   5.746  0.00  0.00    +0.205 C 
ATOM     12  C   UNL     1       0.985  -3.463   5.473  0.00  0.00    +0.043 C 
ATOM     13  C   UNL     1       0.828  -4.034   6.909  0.00  0.00    +0.031 C 
ATOM     14  C   UNL     1       2.190  -3.690   7.549  0.00  0.00    +0.161 C 
ATOM     15  O   UNL     1       2.765  -2.615   6.794  0.00  0.00    -0.367 OA
ENDBRANCH   8  11
ENDBRANCH   4   7
BRANCH   1  17
ATOM     16  C   UNL     1      -0.019   1.526   0.010  0.00  0.00    +0.031 C 
ATOM     17  C   UNL     1       0.002  -0.004   0.002  0.00  0.00    +0.109 C 
BRANCH  17  18
ATOM     18  C   UNL     1      -1.433  -0.534   0.013  0.00  0.00    +0.251 C 
BRANCH  18  19
ATOM     19  O   UNL     1      -2.137   0.021   1.126  0.00  0.00    -0.490 OA
BRANCH  19  20
ATOM     20  C   UNL     1      -3.435  -0.351   1.282  0.00  0.00    +0.121 A 
ATOM     21  C   UNL     1      -4.018  -1.235   0.386  0.00  0.00    +0.046 A 
ATOM     22  C   UNL     1      -5.337  -1.611   0.547  0.00  0.00    +0.008 A 
ATOM     23  C   UNL     1      -6.077  -1.107   1.601  0.00  0.00    -0.042 A 
ATOM     24  C   UNL     1      -5.499  -0.225   2.495  0.00  0.00    +0.008 A 
ATOM     25  C   UNL     1      -4.178   0.149   2.342  0.00  0.00    +0.046 A 
BRANCH  23  26
ATOM     26  C   UNL     1      -7.516  -1.519   1.774  0.00  0.00    -0.013 C 
ATOM     27  C   UNL     1      -7.594  -3.035   1.959  0.00  0.00    +0.015 C 
ATOM     28  C   UNL     1      -8.101  -0.824   3.006  0.00  0.00    +0.015 C 
ATOM     29  C   UNL     1      -8.315  -1.115   0.533  0.00  0.00    +0.015 C 
ENDBRANCH  23  26
ENDBRANCH  19  20
ENDBRANCH  18  19
ENDBRANCH  17  18
ENDBRANCH   1  17
TORSDOF 7
