REMARK  Name = ZINC16021864
REMARK  5 active torsions:
REMARK  status: ('A' for Active; 'I' for Inactive)
REMARK    1  A    between atoms: C_1  and  C_2
REMARK    2  A    between atoms: C_2  and  C_3
REMARK    3  A    between atoms: C_23  and  C_31
REMARK    4  A    between atoms: C_31  and  C_33
REMARK    5  A    between atoms: C_37  and  N_39
REMARK                            x       y       z     vdW  Elec       q    Type
REMARK                         _______ _______ _______ _____ _____    ______ ____
ROOT
ATOM      1  C   UNL     1       0.701  -0.655  -1.217  0.00  0.00    -0.047 A 
ATOM      2  C   UNL     1      -0.013  -0.935  -2.368  0.00  0.00    +0.005 A 
ATOM      3  C   UNL     1       0.636  -1.387  -3.498  0.00  0.00    +0.024 A 
ATOM      4  C   UNL     1       2.018  -1.565  -3.488  0.00  0.00    +0.039 A 
ATOM      5  C   UNL     1       2.726  -1.279  -2.325  0.00  0.00    +0.004 A 
ATOM      6  C   UNL     1       2.075  -0.823  -1.201  0.00  0.00    +0.011 A 
ATOM      7  C   UNL     1       4.169  -1.571  -2.635  0.00  0.00    +0.145 C 
ATOM      8  C   UNL     1       4.167  -2.037  -4.069  0.00  0.00    +0.244 C 
ATOM      9  O   UNL     1       5.132  -2.378  -4.720  0.00  0.00    -0.273 OA
ATOM     10  N   UNL     1       2.888  -2.003  -4.488  0.00  0.00    -0.283 N 
ATOM     11  C   UNL     1       5.042  -0.334  -2.457  0.00  0.00    +0.116 C 
ATOM     12  C   UNL     1       4.483   0.614  -1.435  0.00  0.00    -0.008 A 
ATOM     13  C   UNL     1       4.158   0.489  -0.103  0.00  0.00    +0.006 A 
ATOM     14  C   UNL     1       3.650   1.573   0.590  0.00  0.00    +0.000 A 
ATOM     15  C   UNL     1       3.469   2.781  -0.058  0.00  0.00    +0.002 A 
ATOM     16  C   UNL     1       3.792   2.911  -1.393  0.00  0.00    +0.023 A 
ATOM     17  C   UNL     1       4.305   1.825  -2.098  0.00  0.00    +0.038 A 
ATOM     18  N   UNL     1       4.703   1.708  -3.432  0.00  0.00    -0.284 N 
ATOM     19  C   UNL     1       5.148   0.470  -3.723  0.00  0.00    +0.231 C 
ATOM     20  O   UNL     1       5.556   0.081  -4.797  0.00  0.00    -0.274 OA
ATOM     21  C   UNL     1       6.409  -0.883  -2.025  0.00  0.00    +0.099 C 
ATOM     22  C   UNL     1       6.090  -2.241  -1.374  0.00  0.00    +0.070 C 
ATOM     23  N   UNL     1       4.707  -2.607  -1.744  0.00  0.00    -0.281 NA
ATOM     24  C   UNL     1       3.898  -2.686  -0.508  0.00  0.00    +0.086 C 
ATOM     25  C   UNL     1       4.922  -2.950   0.624  0.00  0.00    +0.017 C 
ATOM     26  C   UNL     1       6.143  -2.095   0.160  0.00  0.00    +0.021 C 
ATOM     27  H   UNL     1       2.604  -2.255  -5.380  0.00  0.00    +0.155 HD
ATOM     28  H   UNL     1       4.662   2.434  -4.074  0.00  0.00    +0.155 HD
ENDROOT
BRANCH   1  30
ATOM     29  C   UNL     1      -0.084   1.366  -0.013  0.00  0.00    +0.009 C 
ATOM     30  C   UNL     1      -0.014  -0.162   0.015  0.00  0.00    +0.032 C 
ENDBRANCH   1  30
BRANCH  21  31
ATOM     31  C   UNL     1       7.304  -1.069  -3.224  0.00  0.00    +0.169 C 
ATOM     32  O   UNL     1       7.342  -2.140  -3.791  0.00  0.00    -0.292 OA
BRANCH  31  33
ATOM     33  C   UNL     1       8.131   0.049  -3.705  0.00  0.00    +0.020 A 
ATOM     34  C   UNL     1       8.094   1.284  -3.049  0.00  0.00    +0.011 A 
ATOM     35  C   UNL     1       8.872   2.326  -3.506  0.00  0.00    +0.003 A 
ATOM     36  C   UNL     1       9.688   2.153  -4.610  0.00  0.00    +0.033 A 
ATOM     37  C   UNL     1       9.730   0.935  -5.264  0.00  0.00    +0.127 A 
ATOM     38  C   UNL     1       8.962  -0.120  -4.816  0.00  0.00    +0.044 A 
BRANCH  37  39
ATOM     39  N   UNL     1      10.606   0.760  -6.445  0.00  0.00    +0.056 N 
ATOM     40  O   UNL     1      11.283   1.682  -6.836  0.00  0.00    -0.126 OA
ATOM     41  O   UNL     1      10.644  -0.303  -7.018  0.00  0.00    -0.126 OA
ENDBRANCH  37  39
ENDBRANCH  31  33
ENDBRANCH  21  31
TORSDOF 4
