REMARK  Name = ZINC02649240
REMARK  7 active torsions:
REMARK  status: ('A' for Active; 'I' for Inactive)
REMARK    1  A    between atoms: C_1  and  C_2
REMARK    2  A    between atoms: C_2  and  C_3
REMARK    3  A    between atoms: C_3  and  C_4
REMARK    4  A    between atoms: C_4  and  N_5
REMARK    5  A    between atoms: N_5  and  C_6
REMARK    6  A    between atoms: N_9  and  C_10
REMARK    7  A    between atoms: C_10  and  C_20
REMARK                            x       y       z     vdW  Elec       q    Type
REMARK                         _______ _______ _______ _____ _____    ______ ____
ROOT
ATOM      1  C   UNL     1      -3.644   7.799   1.359  0.00  0.00    +0.436 C 
ATOM      2  O   UNL     1      -4.899   7.363   1.913  0.00  0.00    -0.426 OA
ATOM      3  C   UNL     1      -5.319   6.344   1.107  0.00  0.00    +0.169 A 
ATOM      4  C   UNL     1      -6.264   5.349   1.300  0.00  0.00    +0.051 A 
ATOM      5  C   UNL     1      -6.505   4.421   0.305  0.00  0.00    +0.024 A 
ATOM      6  C   UNL     1      -5.804   4.482  -0.886  0.00  0.00    +0.045 A 
ATOM      7  C   UNL     1      -4.859   5.472  -1.085  0.00  0.00    +0.069 A 
ATOM      8  C   UNL     1      -4.612   6.405  -0.092  0.00  0.00    +0.170 A 
ATOM      9  O   UNL     1      -3.750   7.462  -0.036  0.00  0.00    -0.426 OA
ATOM     10 CL   UNL     1      -6.111   3.313  -2.132  0.00  0.00    -0.083 Cl
ENDROOT
BRANCH   1  15
ATOM     11  N   UNL     1      -1.486   5.067   2.542  0.00  0.00    -0.289 N 
ATOM     12  C   UNL     1      -0.391   5.811   3.170  0.00  0.00    +0.133 C 
ATOM     13  C   UNL     1      -2.511   5.731   1.972  0.00  0.00    +0.308 C 
ATOM     14  O   UNL     1      -3.420   5.113   1.451  0.00  0.00    -0.252 OA
ATOM     15  N   UNL     1      -2.529   7.078   1.979  0.00  0.00    -0.220 N 
ATOM     16  H   UNL     1      -1.804   7.571   2.395  0.00  0.00    +0.158 HD
BRANCH  11  17
ATOM     17  C   UNL     1      -1.466   3.603   2.534  0.00  0.00    +0.109 C 
BRANCH  17  18
ATOM     18  C   UNL     1      -0.750   3.109   1.275  0.00  0.00    +0.019 C 
BRANCH  18  20
ATOM     19  C   UNL     1      -0.013   1.086   0.008  0.00  0.00    +0.004 C 
ATOM     20  C   UNL     1      -0.729   1.579   1.267  0.00  0.00    -0.002 C 
ENDBRANCH  18  20
ENDBRANCH  17  18
ENDBRANCH  11  17
ENDBRANCH   1  15
BRANCH   1  21
ATOM     21  C   UNL     1      -3.470   9.309   1.536  0.00  0.00    +0.490 C 
ATOM     22  F   UNL     1      -2.275   9.715   0.933  0.00  0.00    -0.162 F 
ATOM     23  F   UNL     1      -4.545   9.975   0.937  0.00  0.00    -0.162 F 
ATOM     24  F   UNL     1      -3.433   9.617   2.900  0.00  0.00    -0.162 F 
ENDBRANCH   1  21
TORSDOF 5
