REMARK  Name = ZINC16901932
REMARK  5 active torsions:
REMARK  status: ('A' for Active; 'I' for Inactive)
REMARK    1  A    between atoms: C_4  and  N_8
REMARK    2  A    between atoms: N_8  and  C_9
REMARK    3  A    between atoms: N_14  and  C_17
REMARK    4  A    between atoms: C_20  and  O_26
REMARK    5  A    between atoms: C_21  and  C_23
REMARK                            x       y       z     vdW  Elec       q    Type
REMARK                         _______ _______ _______ _____ _____    ______ ____
ROOT
ATOM      1  C   UNL     1       3.621  -2.250   0.566  0.00  0.00    +0.167 C 
ATOM      2  C   UNL     1       5.149  -2.185   0.772  0.00  0.00    +0.128 C 
ATOM      3  C   UNL     1       5.685  -3.172  -0.242  0.00  0.00    +0.228 C 
ATOM      4  O   UNL     1       6.856  -3.432  -0.417  0.00  0.00    -0.275 OA
ATOM      5  N   UNL     1       4.662  -3.713  -0.915  0.00  0.00    -0.209 N 
ATOM      6  C   UNL     1       3.452  -3.268  -0.541  0.00  0.00    +0.247 C 
ATOM      7  O   UNL     1       2.393  -3.622  -1.013  0.00  0.00    -0.273 OA
ENDROOT
BRANCH   5   8
ATOM      8  C   UNL     1       4.840  -4.669  -1.927  0.00  0.00    +0.045 A 
ATOM      9  C   UNL     1       4.912  -4.266  -3.257  0.00  0.00    +0.027 A 
ATOM     10  C   UNL     1       5.086  -5.198  -4.259  0.00  0.00    +0.048 A 
ATOM     11  C   UNL     1       5.190  -6.545  -3.948  0.00  0.00    +0.131 A 
ATOM     12  C   UNL     1       5.118  -6.960  -2.610  0.00  0.00    +0.106 A 
ATOM     13  C   UNL     1       4.947  -6.008  -1.599  0.00  0.00    +0.042 A 
BRANCH  12  14
ATOM     14  C   UNL     1       5.227  -8.388  -2.270  0.00  0.00    +0.390 C 
ATOM     15  O   UNL     1       5.163  -8.745  -1.102  0.00  0.00    -0.240 OA
ATOM     16  O   UNL     1       5.381  -9.217  -3.157  0.00  0.00    -0.240 OA
ENDBRANCH  12  14
BRANCH  11  17
ATOM     17  O   UNL     1       5.360  -7.460  -4.935  0.00  0.00    -0.506 OA
ATOM     18  H   UNL     1       6.286  -7.641  -5.148  0.00  0.00    +0.292 HD
ENDBRANCH  11  17
ENDBRANCH   5   8
BRANCH   1  19
ATOM     19  N   UNL     1       3.101  -0.945   0.150  0.00  0.00    -0.330 N 
ATOM     20  H   UNL     1       3.067  -0.714  -0.791  0.00  0.00    +0.147 HD
BRANCH  19  24
ATOM     21  C   UNL     1       1.766   1.774   3.011  0.00  0.00    +0.003 A 
ATOM     22  C   UNL     1       2.999   1.953   2.412  0.00  0.00    +0.022 A 
ATOM     23  C   UNL     1       3.446   1.053   1.463  0.00  0.00    +0.063 A 
ATOM     24  C   UNL     1       2.653  -0.033   1.110  0.00  0.00    +0.065 A 
ATOM     25  C   UNL     1       1.414  -0.209   1.714  0.00  0.00    +0.063 A 
ATOM     26  C   UNL     1       0.974   0.695   2.662  0.00  0.00    +0.022 A 
ATOM     27 CL   UNL     1       0.419  -1.563   1.277  0.00  0.00    -0.082 Cl
ATOM     28 CL   UNL     1       4.994   1.279   0.711  0.00  0.00    -0.082 Cl
ENDBRANCH  19  24
ENDBRANCH   1  19
TORSDOF 5
