REMARK  Name = ZINC39749598
REMARK  12 active torsions:
REMARK  status: ('A' for Active; 'I' for Inactive)
REMARK    1  A    between atoms: C_1  and  C_2
REMARK    2  A    between atoms: C_2  and  O_3
REMARK    3  A    between atoms: O_3  and  C_4
REMARK    4  A    between atoms: C_7  and  N_10
REMARK    5  A    between atoms: C_14  and  N_18
REMARK    6  A    between atoms: N_18  and  N_19
REMARK    7  A    between atoms: C_20  and  C_22
REMARK    8  A    between atoms: C_22  and  C_23
REMARK    9  A    between atoms: C_23  and  O_24
REMARK   10  A    between atoms: O_24  and  C_25
REMARK   11  A    between atoms: C_28  and  O_31
REMARK   12  A    between atoms: O_31  and  C_32
REMARK                            x       y       z     vdW  Elec       q    Type
REMARK                         _______ _______ _______ _____ _____    ______ ____
ROOT
ATOM      1  N   UNL     1       3.085  -8.611   2.415  0.00  0.00    -0.228 NA
ATOM      2  H   UNL     1       3.030  -9.612   2.298  0.00  0.00    +0.145 HD
ENDROOT
BRANCH   1   7
ATOM      3  N   UNL     1       1.137  -5.959   1.753  0.00  0.00    -0.209 N 
ATOM      4  C   UNL     1       0.556  -6.828   0.916  0.00  0.00    +0.228 C 
ATOM      5  O   UNL     1      -0.118  -6.531  -0.046  0.00  0.00    -0.275 OA
ATOM      6  C   UNL     1       0.875  -8.238   1.363  0.00  0.00    +0.126 C 
ATOM      7  C   UNL     1       1.750  -8.032   2.616  0.00  0.00    +0.168 C 
ATOM      8  C   UNL     1       1.838  -6.526   2.743  0.00  0.00    +0.245 C 
ATOM      9  O   UNL     1       2.446  -5.929   3.605  0.00  0.00    -0.273 OA
BRANCH   3  13
ATOM     10  C   UNL     1       0.803  -1.825   1.304  0.00  0.00    +0.121 A 
ATOM     11  C   UNL     1       2.029  -2.446   1.116  0.00  0.00    +0.047 A 
ATOM     12  C   UNL     1       2.140  -3.814   1.264  0.00  0.00    +0.027 A 
ATOM     13  C   UNL     1       1.024  -4.568   1.603  0.00  0.00    +0.044 A 
ATOM     14  C   UNL     1      -0.202  -3.946   1.791  0.00  0.00    +0.027 A 
ATOM     15  C   UNL     1      -0.311  -2.577   1.648  0.00  0.00    +0.047 A 
BRANCH  10  16
ATOM     16  O   UNL     1       0.694  -0.477   1.158  0.00  0.00    -0.492 OA
BRANCH  16  18
ATOM     17  C   UNL     1       1.565   1.727   0.686  0.00  0.00    +0.048 C 
ATOM     18  C   UNL     1       1.881   0.235   0.804  0.00  0.00    +0.225 C 
ENDBRANCH  16  18
ENDBRANCH  10  16
ENDBRANCH   3  13
ENDBRANCH   1   7
BRANCH   1  19
ATOM     19  N   UNL     1       3.718  -8.028   1.355  0.00  0.00    -0.250 N 
ATOM     20  C   UNL     1       4.958  -8.425   1.009  0.00  0.00    +0.230 C 
ATOM     21  O   UNL     1       5.513  -9.300   1.639  0.00  0.00    -0.274 OA
ATOM     22  H   UNL     1       3.274  -7.328   0.850  0.00  0.00    +0.169 HD
BRANCH  20  23
ATOM     23  C   UNL     1       5.657  -7.781  -0.162  0.00  0.00    +0.138 C 
BRANCH  23  24
ATOM     24  C   UNL     1       7.040  -8.409  -0.338  0.00  0.00    +0.238 C 
BRANCH  24  25
ATOM     25  O   UNL     1       7.702  -7.799  -1.448  0.00  0.00    -0.491 OA
BRANCH  25  26
ATOM     26  C   UNL     1       8.952  -8.246  -1.743  0.00  0.00    +0.121 A 
ATOM     27  C   UNL     1       9.525  -9.255  -0.983  0.00  0.00    +0.049 A 
ATOM     28  C   UNL     1      10.795  -9.709  -1.283  0.00  0.00    +0.049 A 
ATOM     29  C   UNL     1      11.496  -9.156  -2.345  0.00  0.00    +0.120 A 
ATOM     30  C   UNL     1      10.923  -8.148  -3.105  0.00  0.00    +0.049 A 
ATOM     31  C   UNL     1       9.652  -7.697  -2.808  0.00  0.00    +0.049 A 
BRANCH  29  32
ATOM     32  O   UNL     1      12.746  -9.603  -2.639  0.00  0.00    -0.495 OA
ATOM     33  C   UNL     1      13.411  -8.989  -3.745  0.00  0.00    +0.277 C 
ENDBRANCH  29  32
ENDBRANCH  25  26
ENDBRANCH  24  25
ENDBRANCH  23  24
ENDBRANCH  20  23
ENDBRANCH   1  19
TORSDOF 10
