REMARK  Name = ZINC04574929
REMARK  5 active torsions:
REMARK  status: ('A' for Active; 'I' for Inactive)
REMARK    1  A    between atoms: C_1  and  C_2
REMARK    2  A    between atoms: C_4  and  C_25
REMARK    3  A    between atoms: C_14  and  C_17
REMARK    4  A    between atoms: C_25  and  O_26
REMARK    5  A    between atoms: O_26  and  C_27
REMARK                            x       y       z     vdW  Elec       q    Type
REMARK                         _______ _______ _______ _____ _____    ______ ____
ROOT
ATOM      1  C   UNL     1     -10.156   2.768   1.364  0.00  0.00    +0.065 C 
ATOM      2  C   UNL     1      -8.708   3.174   1.256  0.00  0.00    +0.040 A 
ATOM      3  C   UNL     1      -7.761   2.204   0.977  0.00  0.00    +0.029 A 
ATOM      4  C   UNL     1      -6.416   2.502   0.866  0.00  0.00    -0.009 A 
ATOM      5  C   UNL     1      -6.065   3.864   1.054  0.00  0.00    +0.035 A 
ATOM      6  C   UNL     1      -4.731   4.428   0.993  0.00  0.00    +0.058 A 
ATOM      7  C   UNL     1      -4.638   5.801   1.200  0.00  0.00    +0.097 A 
ATOM      8  S   UNL     1      -6.295   6.339   1.490  0.00  0.00    -0.062 S 
ATOM      9  C   UNL     1      -7.116   4.780   1.333  0.00  0.00    +0.111 A 
ATOM     10  N   UNL     1      -8.385   4.449   1.431  0.00  0.00    -0.245 NA
ATOM     11  C   UNL     1      -3.431   6.523   1.154  0.00  0.00    +0.254 C 
ATOM     12  O   UNL     1      -3.348   7.682   1.519  0.00  0.00    -0.270 OA
ATOM     13  N   UNL     1      -2.362   5.832   0.672  0.00  0.00    -0.289 N 
ATOM     14  C   UNL     1      -2.562   4.525   0.049  0.00  0.00    +0.190 C 
ATOM     15  N   UNL     1      -3.552   3.704   0.747  0.00  0.00    -0.321 N 
ATOM     16  H   UNL     1      -1.470   6.205   0.742  0.00  0.00    +0.151 HD
ATOM     17  H   UNL     1      -3.173   3.330   1.604  0.00  0.00    +0.148 HD
ENDROOT
BRANCH  14  18
ATOM     18  C   UNL     1      -1.247   3.789   0.033  0.00  0.00    -0.008 A 
ATOM     19  C   UNL     1      -0.059   4.497   0.026  0.00  0.00    +0.008 A 
ATOM     20  C   UNL     1       1.148   3.824   0.011  0.00  0.00    +0.022 A 
ATOM     21  C   UNL     1       1.168   2.441   0.004  0.00  0.00    +0.059 A 
ATOM     22  C   UNL     1      -0.021   1.732   0.012  0.00  0.00    +0.060 A 
ATOM     23  C   UNL     1      -1.229   2.408   0.021  0.00  0.00    +0.028 A 
ATOM     24 CL   UNL     1       0.002  -0.004   0.002  0.00  0.00    -0.082 Cl
ATOM     25 CL   UNL     1       2.683   1.594  -0.015  0.00  0.00    -0.082 Cl
ENDBRANCH  14  18
BRANCH   4  26
ATOM     26  C   UNL     1      -5.385   1.445   0.563  0.00  0.00    +0.195 C 
BRANCH  26  27
ATOM     27  O   UNL     1      -6.030   0.177   0.426  0.00  0.00    -0.378 OA
ATOM     28  C   UNL     1      -5.137  -0.901   0.137  0.00  0.00    +0.194 C 
ENDBRANCH  26  27
ENDBRANCH   4  26
TORSDOF 3
