REMARK  Name = ZINC08634556
REMARK  7 active torsions:
REMARK  status: ('A' for Active; 'I' for Inactive)
REMARK    1  A    between atoms: C_1  and  C_2
REMARK    2  A    between atoms: C_5  and  C_8
REMARK    3  A    between atoms: C_11  and  C_14
REMARK    4  A    between atoms: C_19  and  C_21
REMARK    5  A    between atoms: C_21  and  N_22
REMARK    6  A    between atoms: C_25  and  C_29
REMARK    7  A    between atoms: C_25  and  C_30
REMARK                            x       y       z     vdW  Elec       q    Type
REMARK                         _______ _______ _______ _____ _____    ______ ____
ROOT
ATOM      1  C   UNL     1      -4.018  -2.908  -6.021  0.00  0.00    +0.069 C 
ATOM      2  N   UNL     1      -3.296  -2.733  -4.969  0.00  0.00    -0.181 NA
ATOM      3  N   UNL     1      -2.760  -1.452  -4.853  0.00  0.00    -0.181 N 
ATOM      4  C   UNL     1      -3.184  -0.652  -6.012  0.00  0.00    +0.173 C 
ATOM      5  C   UNL     1      -4.050  -1.631  -6.830  0.00  0.00    +0.090 C 
ATOM      6  C   UNL     1      -1.976  -1.019  -3.845  0.00  0.00    +0.253 C 
ATOM      7  O   UNL     1      -1.558   0.120  -3.849  0.00  0.00    -0.272 OA
ENDROOT
BRANCH   1  12
ATOM      8  C   UNL     1      -6.692  -7.800  -7.436  0.00  0.00    +0.044 C 
ATOM      9  C   UNL     1      -5.991  -6.518  -7.065  0.00  0.00    -0.050 A 
ATOM     10  C   UNL     1      -5.245  -6.452  -5.902  0.00  0.00    +0.004 A 
ATOM     11  C   UNL     1      -4.601  -5.283  -5.556  0.00  0.00    +0.010 A 
ATOM     12  C   UNL     1      -4.703  -4.162  -6.384  0.00  0.00    -0.002 A 
ATOM     13  C   UNL     1      -5.462  -4.234  -7.555  0.00  0.00    +0.010 A 
ATOM     14  C   UNL     1      -6.096  -5.412  -7.891  0.00  0.00    +0.004 A 
ENDBRANCH   1  12
BRANCH   4  15
ATOM     15  C   UNL     1      -1.989  -0.204  -6.814  0.00  0.00    +0.128 A 
ATOM     16  C   UNL     1      -1.843   0.996  -7.404  0.00  0.00    +0.046 A 
ATOM     17  C   UNL     1      -0.582   0.986  -8.043  0.00  0.00    +0.041 A 
ATOM     18  C   UNL     1      -0.033  -0.218  -7.805  0.00  0.00    +0.195 A 
ATOM     19  O   UNL     1      -0.887  -0.933  -7.055  0.00  0.00    -0.466 OA
ENDBRANCH   4  15
BRANCH   6  20
ATOM     20  C   UNL     1      -1.617  -1.950  -2.716  0.00  0.00    +0.215 C 
BRANCH  20  21
ATOM     21  N   UNL     1      -0.763  -1.246  -1.756  0.00  0.00    -0.215 N 
ATOM     22  C   UNL     1      -1.226  -0.550  -0.699  0.00  0.00    +0.251 C 
ATOM     23  O   UNL     1      -2.384  -0.394  -0.375  0.00  0.00    -0.272 OA
ATOM     24  C   UNL     1       0.002  -0.004   0.002  0.00  0.00    +0.135 C 
ATOM     25  N   UNL     1       1.119  -0.503  -0.819  0.00  0.00    -0.281 N 
ATOM     26  C   UNL     1       0.573  -1.216  -1.819  0.00  0.00    +0.310 C 
ATOM     27  O   UNL     1       1.221  -1.772  -2.685  0.00  0.00    -0.252 OA
ATOM     28  C   UNL     1       0.094  -0.547   1.429  0.00  0.00    +0.047 C 
ATOM     29  H   UNL     1       2.064  -0.347  -0.667  0.00  0.00    +0.152 HD
BRANCH  24  30
ATOM     30  C   UNL     1      -0.018   1.503   0.010  0.00  0.00    -0.016 A 
ATOM     31  C   UNL     1      -1.225   2.178   0.020  0.00  0.00    +0.006 A 
ATOM     32  C   UNL     1      -1.244   3.560   0.033  0.00  0.00    +0.000 A 
ATOM     33  C   UNL     1      -0.056   4.267   0.025  0.00  0.00    +0.000 A 
ATOM     34  C   UNL     1       1.151   3.592   0.010  0.00  0.00    +0.000 A 
ATOM     35  C   UNL     1       1.169   2.210   0.003  0.00  0.00    +0.006 A 
ENDBRANCH  24  30
ENDBRANCH  20  21
ENDBRANCH   6  20
TORSDOF 5
