REMARK  Name = ZINC37791253
REMARK  8 active torsions:
REMARK  status: ('A' for Active; 'I' for Inactive)
REMARK    1  A    between atoms: C_1  and  C_2
REMARK    2  A    between atoms: C_5  and  C_9
REMARK    3  A    between atoms: C_6  and  C_8
REMARK    4  A    between atoms: C_9  and  C_11
REMARK    5  A    between atoms: C_9  and  N_12
REMARK    6  A    between atoms: N_12  and  S_13
REMARK    7  A    between atoms: S_13  and  C_16
REMARK    8  A    between atoms: C_21  and  C_22
REMARK                            x       y       z     vdW  Elec       q    Type
REMARK                         _______ _______ _______ _____ _____    ______ ____
ROOT
ATOM      1  N   UNL     1       0.630  -4.723  -1.186  0.00  0.00    -0.183 NA
ATOM      2  H   UNL     1       0.496  -4.122  -1.936  0.00  0.00    +0.149 HD
ENDROOT
BRANCH   1   3
ATOM      3  S   UNL     1       1.433  -6.154  -1.406  0.00  0.00    +0.062 S 
ATOM      4  O   UNL     1       1.794  -6.211  -2.779  0.00  0.00    -0.153 OA
ATOM      5  O   UNL     1       2.392  -6.247  -0.362  0.00  0.00    -0.153 OA
BRANCH   3   6
ATOM      6  C   UNL     1       0.269  -7.450  -1.138  0.00  0.00    +0.145 A 
ATOM      7  C   UNL     1       0.312  -8.395  -0.107  0.00  0.00    +0.163 A 
ATOM      8  N   UNL     1      -0.718  -9.190  -0.238  0.00  0.00    -0.180 NA
ATOM      9  N   UNL     1      -1.450  -8.777  -1.358  0.00  0.00    -0.280 N 
ATOM     10  H   UNL     1      -2.264  -9.187  -1.691  0.00  0.00    +0.189 HD
ATOM     11  C   UNL     1      -0.827  -7.705  -1.890  0.00  0.00    +0.059 A 
ATOM     12  C   UNL     1      -1.270  -6.931  -3.105  0.00  0.00    +0.067 C 
ENDBRANCH   3   6
ENDBRANCH   1   3
BRANCH   1  13
ATOM     13  C   UNL     1       0.121  -4.364   0.140  0.00  0.00    +0.104 C 
ATOM     14  C   UNL     1      -1.362  -4.728   0.233  0.00  0.00    +0.031 C 
BRANCH  13  19
ATOM     15  C   UNL     1       0.764   1.317   0.979  0.00  0.00    +0.044 C 
ATOM     16  C   UNL     1       0.596  -0.165   0.760  0.00  0.00    -0.050 A 
ATOM     17  C   UNL     1       0.504  -0.667  -0.524  0.00  0.00    +0.004 A 
ATOM     18  C   UNL     1       0.351  -2.026  -0.725  0.00  0.00    +0.006 A 
ATOM     19  C   UNL     1       0.290  -2.883   0.359  0.00  0.00    -0.026 A 
ATOM     20  C   UNL     1       0.383  -2.380   1.643  0.00  0.00    -0.045 A 
ATOM     21  C   UNL     1       0.541  -1.021   1.843  0.00  0.00    +0.007 A 
ATOM     22  C   UNL     1       0.316  -3.313   2.824  0.00  0.00    +0.044 C 
ENDBRANCH  13  19
ENDBRANCH   1  13
TORSDOF 4
