REMARK  Name = ZINC23425649
REMARK  3 active torsions:
REMARK  status: ('A' for Active; 'I' for Inactive)
REMARK    1  A    between atoms: C_1  and  C_2
REMARK    2  A    between atoms: C_5  and  N_9
REMARK    3  A    between atoms: C_26  and  N_32
REMARK                            x       y       z     vdW  Elec       q    Type
REMARK                         _______ _______ _______ _____ _____    ______ ____
ROOT
ATOM      1  N   UNL     1      -0.062  -4.183  -0.066  0.00  0.00    -0.209 N 
ATOM      2  C   UNL     1       0.081  -4.908   1.075  0.00  0.00    +0.232 C 
ATOM      3  O   UNL     1      -0.020  -4.503   2.214  0.00  0.00    -0.274 OA
ATOM      4  C   UNL     1       0.387  -6.300   0.643  0.00  0.00    +0.110 C 
ATOM      5  C   UNL     1       0.124  -7.486   1.461  0.00  0.00    +0.075 C 
ATOM      6  C   UNL     1      -1.148  -7.543   2.246  0.00  0.00    +0.003 A 
ATOM      7  C   UNL     1      -2.033  -6.499   2.343  0.00  0.00    +0.008 A 
ATOM      8  C   UNL     1      -3.187  -6.646   3.095  0.00  0.00    +0.001 A 
ATOM      9  C   UNL     1      -3.447  -7.838   3.746  0.00  0.00    +0.004 A 
ATOM     10  C   UNL     1      -2.557  -8.893   3.652  0.00  0.00    +0.047 A 
ATOM     11  C   UNL     1      -1.407  -8.751   2.904  0.00  0.00    +0.136 A 
ATOM     12  O   UNL     1      -0.489  -9.752   2.772  0.00  0.00    -0.422 OA
ATOM     13  C   UNL     1       0.004  -9.957   1.517  0.00  0.00    +0.343 C 
ATOM     14  O   UNL     1       0.177 -11.080   1.076  0.00  0.00    -0.245 OA
ATOM     15  C   UNL     1       0.293  -8.804   0.746  0.00  0.00    +0.072 C 
ATOM     16  C   UNL     1       0.597  -8.960  -0.579  0.00  0.00    +0.070 C 
ATOM     17  S   UNL     1       0.636  -7.581  -1.691  0.00  0.00    -0.097 S 
ATOM     18  C   UNL     1      -0.332  -6.366  -0.732  0.00  0.00    +0.152 C 
ATOM     19  C   UNL     1      -0.138  -4.944  -1.188  0.00  0.00    +0.240 C 
ATOM     20  O   UNL     1      -0.063  -4.555  -2.334  0.00  0.00    -0.274 OA
ENDROOT
BRANCH   1  25
ATOM     21  C   UNL     1      -0.344   1.486  -0.136  0.00  0.00    +0.045 C 
ATOM     22  C   UNL     1      -0.269  -0.019  -0.117  0.00  0.00    -0.032 A 
ATOM     23  C   UNL     1      -0.352  -0.729  -1.301  0.00  0.00    +0.006 A 
ATOM     24  C   UNL     1      -0.284  -2.109  -1.287  0.00  0.00    +0.024 A 
ATOM     25  C   UNL     1      -0.132  -2.783  -0.083  0.00  0.00    +0.045 A 
ATOM     26  C   UNL     1      -0.048  -2.069   1.104  0.00  0.00    +0.044 A 
ATOM     27  C   UNL     1      -0.112  -0.688   1.084  0.00  0.00    +0.046 A 
ATOM     28 CL   UNL     1      -0.001   0.207   2.567  0.00  0.00    -0.083 Cl
ENDBRANCH   1  25
BRANCH  16  29
ATOM     29  N   UNL     1       0.878 -10.214  -1.058  0.00  0.00    -0.352 N 
ATOM     30  H   UNL     1       0.683 -10.435  -1.983  0.00  0.00    +0.143 HD
ATOM     31  H   UNL     1       1.271 -10.880  -0.473  0.00  0.00    +0.143 HD
ENDBRANCH  16  29
TORSDOF 2
