REMARK  Name = ZINC40334301
REMARK  7 active torsions:
REMARK  status: ('A' for Active; 'I' for Inactive)
REMARK    1  A    between atoms: C_1  and  C_2
REMARK    2  A    between atoms: C_2  and  C_4
REMARK    3  A    between atoms: C_2  and  N_9
REMARK    4  A    between atoms: N_9  and  C_10
REMARK    5  A    between atoms: N_9  and  S_11
REMARK    6  A    between atoms: S_11  and  C_14
REMARK    7  A    between atoms: C_19  and  N_20
REMARK                            x       y       z     vdW  Elec       q    Type
REMARK                         _______ _______ _______ _____ _____    ______ ____
ROOT
ATOM      1  S   UNL     1      -1.677  -1.640  -1.487  0.00  0.00    +0.063 S 
ATOM      2  O   UNL     1      -3.062  -1.769  -1.778  0.00  0.00    -0.153 OA
ATOM      3  O   UNL     1      -0.796  -0.875  -2.298  0.00  0.00    -0.153 OA
ENDROOT
BRANCH   1   4
ATOM      4  C   UNL     1      -1.020  -3.274  -1.432  0.00  0.00    +0.126 A 
ATOM      5  C   UNL     1      -1.851  -4.360  -1.625  0.00  0.00    +0.032 A 
ATOM      6  C   UNL     1      -1.337  -5.643  -1.582  0.00  0.00    +0.022 A 
ATOM      7  C   UNL     1       0.012  -5.843  -1.346  0.00  0.00    +0.043 A 
ATOM      8  C   UNL     1       0.849  -4.761  -1.152  0.00  0.00    +0.044 A 
ATOM      9  C   UNL     1       0.336  -3.471  -1.200  0.00  0.00    +0.053 A 
ATOM     10 CL   UNL     1       0.653  -7.455  -1.293  0.00  0.00    -0.083 Cl
BRANCH   9  11
ATOM     11  N   UNL     1       1.180  -2.374  -1.011  0.00  0.00    -0.356 N 
ATOM     12  H   UNL     1       0.812  -1.476  -0.995  0.00  0.00    +0.142 HD
ATOM     13  H   UNL     1       2.133  -2.510  -0.896  0.00  0.00    +0.142 HD
ENDBRANCH   9  11
ENDBRANCH   1   4
BRANCH   1  14
ATOM     14  N   UNL     1      -1.571  -1.018   0.044  0.00  0.00    -0.172 NA
ATOM     15  C   UNL     1      -2.606  -1.327   1.034  0.00  0.00    +0.132 C 
BRANCH  14  17
ATOM     16  C   UNL     1      -0.969   1.160   0.979  0.00  0.00    +0.031 C 
ATOM     17  C   UNL     1      -0.442  -0.158   0.408  0.00  0.00    +0.113 C 
BRANCH  17  18
ATOM     18  C   UNL     1       0.404  -0.852   1.445  0.00  0.00    +0.008 A 
ATOM     19  C   UNL     1       1.753  -0.956   1.516  0.00  0.00    +0.013 A 
ATOM     20  C   UNL     1       2.318  -1.648   2.570  0.00  0.00    +0.008 A 
ATOM     21  C   UNL     1       1.506  -2.202   3.503  0.00  0.00    +0.045 A 
ATOM     22  S   UNL     1      -0.112  -1.744   2.903  0.00  0.00    -0.100 S 
ENDBRANCH  17  18
ENDBRANCH  14  17
ENDBRANCH   1  14
TORSDOF 5
