REMARK  Name = ZINC35636255
REMARK  11 active torsions:
REMARK  status: ('A' for Active; 'I' for Inactive)
REMARK    1  A    between atoms: C_1  and  C_2
REMARK    2  A    between atoms: C_2  and  N_3
REMARK    3  A    between atoms: C_6  and  C_11
REMARK    4  A    between atoms: C_15  and  O_17
REMARK    5  A    between atoms: O_17  and  C_18
REMARK    6  A    between atoms: N_26  and  C_28
REMARK    7  A    between atoms: C_28  and  C_30
REMARK    8  A    between atoms: C_28  and  C_34
REMARK    9  A    between atoms: C_30  and  C_31
REMARK   10  A    between atoms: C_31  and  C_32
REMARK   11  A    between atoms: C_31  and  C_33
REMARK                            x       y       z     vdW  Elec       q    Type
REMARK                         _______ _______ _______ _____ _____    ______ ____
ROOT
ATOM      1  N   UNL     1       0.306   0.289  -0.924  0.00  0.00    -0.257 N 
ATOM      2  C   UNL     1      -0.276  -0.210  -2.054  0.00  0.00    +0.042 C 
ATOM      3  C   UNL     1       0.468  -0.728  -3.053  0.00  0.00    +0.058 C 
ATOM      4  C   UNL     1       1.973  -0.738  -2.879  0.00  0.00    +0.142 C 
ATOM      5  N   UNL     1       2.503  -0.176  -1.625  0.00  0.00    -0.288 N 
ATOM      6  C   UNL     1       1.630   0.310  -0.720  0.00  0.00    +0.307 C 
ATOM      7  O   UNL     1       2.058   0.779   0.317  0.00  0.00    -0.252 OA
ATOM      8  C   UNL     1      -0.362  -1.174  -4.102  0.00  0.00    +0.247 C 
ATOM      9  O   UNL     1       0.042  -1.685  -5.130  0.00  0.00    -0.270 OA
ATOM     10  N   UNL     1      -1.660  -0.961  -3.818  0.00  0.00    -0.281 N 
ATOM     11  C   UNL     1      -1.718  -0.330  -2.492  0.00  0.00    +0.160 C 
ATOM     12  H   UNL     1       3.457  -0.154  -1.455  0.00  0.00    +0.151 HD
ENDROOT
BRANCH   4  13
ATOM     13  C   UNL     1       2.578   0.033  -4.024  0.00  0.00    -0.019 A 
ATOM     14  C   UNL     1       2.603   1.416  -3.989  0.00  0.00    +0.006 A 
ATOM     15  C   UNL     1       3.158   2.126  -5.037  0.00  0.00    +0.004 A 
ATOM     16  C   UNL     1       3.688   1.456  -6.123  0.00  0.00    +0.046 A 
ATOM     17  C   UNL     1       3.664   0.069  -6.160  0.00  0.00    +0.129 A 
ATOM     18  C   UNL     1       3.112  -0.641  -5.104  0.00  0.00    +0.052 A 
BRANCH  17  19
ATOM     19  O   UNL     1       4.185  -0.592  -7.227  0.00  0.00    -0.456 OA
BRANCH  19  20
ATOM     20  C   UNL     1       4.223  -1.950  -7.180  0.00  0.00    +0.128 A 
ATOM     21  C   UNL     1       3.066  -2.685  -7.397  0.00  0.00    +0.046 A 
ATOM     22  C   UNL     1       3.107  -4.065  -7.348  0.00  0.00    +0.004 A 
ATOM     23  C   UNL     1       4.299  -4.713  -7.083  0.00  0.00    +0.000 A 
ATOM     24  C   UNL     1       5.453  -3.983  -6.866  0.00  0.00    +0.004 A 
ATOM     25  C   UNL     1       5.419  -2.603  -6.920  0.00  0.00    +0.046 A 
ENDBRANCH  19  20
ENDBRANCH  17  19
ENDBRANCH   4  13
BRANCH   1  27
ATOM     26  C   UNL     1      -0.793   2.327  -0.137  0.00  0.00    +0.025 C 
ATOM     27  C   UNL     1      -0.564   0.836   0.119  0.00  0.00    +0.111 C 
ENDBRANCH   1  27
BRANCH  10  28
ATOM     28  C   UNL     1      -2.802  -1.295  -4.673  0.00  0.00    +0.163 C 
BRANCH  28  29
ATOM     29  C   UNL     1      -2.780  -0.427  -5.904  0.00  0.00    +0.236 C 
ATOM     30  O   UNL     1      -1.813   0.265  -6.141  0.00  0.00    -0.274 OA
ATOM     31  N   UNL     1      -3.836  -0.419  -6.742  0.00  0.00    -0.296 N 
ATOM     32  C   UNL     1      -5.069  -1.151  -6.413  0.00  0.00    +0.136 C 
ATOM     33  C   UNL     1      -6.257  -0.197  -6.582  0.00  0.00    +0.179 C 
ATOM     34  O   UNL     1      -6.200   0.401  -7.880  0.00  0.00    -0.377 OA
ATOM     35  C   UNL     1      -5.040   1.206  -8.103  0.00  0.00    +0.179 C 
ATOM     36  C   UNL     1      -3.791   0.328  -8.009  0.00  0.00    +0.136 C 
ENDBRANCH  28  29
BRANCH  28  37
ATOM     37  C   UNL     1      -2.718  -2.767  -5.085  0.00  0.00    +0.035 C 
BRANCH  37  38
ATOM     38  C   UNL     1      -2.938  -3.653  -3.857  0.00  0.00    -0.015 C 
ATOM     39  C   UNL     1      -3.077  -5.111  -4.300  0.00  0.00    +0.007 C 
ATOM     40  C   UNL     1      -1.743  -3.520  -2.911  0.00  0.00    +0.007 C 
ENDBRANCH  37  38
ENDBRANCH  28  37
ENDBRANCH  10  28
TORSDOF 8
