REMARK  Name = ZINC08995315
REMARK  8 active torsions:
REMARK  status: ('A' for Active; 'I' for Inactive)
REMARK    1  A    between atoms: C_1  and  C_2
REMARK    2  A    between atoms: C_12  and  C_22
REMARK    3  A    between atoms: C_15  and  C_17
REMARK    4  A    between atoms: C_17  and  C_18
REMARK    5  A    between atoms: C_18  and  C_19
REMARK    6  A    between atoms: N_24  and  C_25
REMARK    7  A    between atoms: C_28  and  O_31
REMARK    8  A    between atoms: O_31  and  C_32
REMARK                            x       y       z     vdW  Elec       q    Type
REMARK                         _______ _______ _______ _____ _____    ______ ____
ROOT
ATOM      1  C   UNL     1       4.881  -6.293   4.844  0.00  0.00    +0.046 C 
ATOM      2  C   UNL     1       4.716  -4.805   4.673  0.00  0.00    -0.028 A 
ATOM      3  C   UNL     1       4.562  -4.271   3.410  0.00  0.00    +0.025 A 
ATOM      4  C   UNL     1       4.410  -2.906   3.242  0.00  0.00    +0.042 A 
ATOM      5  C   UNL     1       4.413  -2.072   4.348  0.00  0.00    +0.024 A 
ATOM      6  C   UNL     1       4.567  -2.601   5.609  0.00  0.00    -0.026 A 
ATOM      7  C   UNL     1       4.721  -3.973   5.789  0.00  0.00    +0.039 A 
ATOM      8  N   UNL     1       4.860  -4.269   7.147  0.00  0.00    -0.286 N 
ATOM      9  C   UNL     1       4.808  -3.164   7.916  0.00  0.00    +0.211 C 
ATOM     10  O   UNL     1       4.901  -3.118   9.125  0.00  0.00    -0.277 OA
ATOM     11  C   UNL     1       4.614  -1.999   6.985  0.00  0.00    +0.049 C 
ATOM     12  C   UNL     1       3.325  -1.232   7.309  0.00  0.00    +0.076 C 
ATOM     13  C   UNL     1       3.785  -0.025   8.156  0.00  0.00    -0.004 C 
ATOM     14  C   UNL     1       5.316  -0.183   8.282  0.00  0.00    -0.069 C 
ATOM     15 CL   UNL     1       4.216  -2.241   1.651  0.00  0.00    -0.084 Cl
ATOM     16  H   UNL     1       4.979  -5.167   7.496  0.00  0.00    +0.155 HD
ATOM     17  N   UNL     1       5.679  -1.018   7.134  0.00  0.00    +0.394 N 
ATOM     18  H   UNL     1       5.752  -0.443   6.286  0.00  0.00    -0.083 HD
ATOM     19  H   UNL     1       6.574  -1.490   7.306  0.00  0.00    -0.083 HD
ENDROOT
BRANCH  12  20
ATOM     20  C   UNL     1       2.663  -0.760   6.040  0.00  0.00    +0.220 C 
ATOM     21  O   UNL     1       3.058   0.244   5.486  0.00  0.00    -0.275 OA
ATOM     22  N   UNL     1       1.631  -1.455   5.520  0.00  0.00    -0.285 N 
ATOM     23  H   UNL     1       1.273  -2.220   5.996  0.00  0.00    +0.155 HD
BRANCH  22  24
ATOM     24  C   UNL     1       1.076  -1.071   4.293  0.00  0.00    +0.034 A 
ATOM     25  C   UNL     1       1.000   0.274   3.955  0.00  0.00    +0.027 A 
ATOM     26  C   UNL     1       0.452   0.652   2.745  0.00  0.00    +0.047 A 
ATOM     27  C   UNL     1      -0.023  -0.311   1.867  0.00  0.00    +0.120 A 
ATOM     28  C   UNL     1       0.047  -1.655   2.207  0.00  0.00    +0.047 A 
ATOM     29  C   UNL     1       0.600  -2.034   3.414  0.00  0.00    +0.027 A 
BRANCH  27  30
ATOM     30  O   UNL     1      -0.563   0.062   0.677  0.00  0.00    -0.495 OA
ATOM     31  C   UNL     1      -1.033  -0.983  -0.178  0.00  0.00    +0.277 C 
ENDBRANCH  27  30
ENDBRANCH  22  24
ENDBRANCH  12  20
BRANCH  14  32
ATOM     32  C   UNL     1       6.000   1.184   8.217  0.00  0.00    -0.007 C 
BRANCH  32  33
ATOM     33  C   UNL     1       7.500   1.017   8.467  0.00  0.00    +0.094 C 
BRANCH  33  34
ATOM     34  C   UNL     1       8.173   2.363   8.403  0.00  0.00    +0.210 C 
ATOM     35  O   UNL     1       7.518   3.359   8.178  0.00  0.00    -0.276 OA
ATOM     36  N   UNL     1       9.504   2.461   8.595  0.00  0.00    -0.329 N 
ATOM     37  H   UNL     1      10.028   1.665   8.774  0.00  0.00    +0.145 HD
ATOM     38  H   UNL     1       9.937   3.328   8.553  0.00  0.00    +0.145 HD
ENDBRANCH  33  34
ENDBRANCH  32  33
ENDBRANCH  14  32
TORSDOF 6
