REMARK  Name = ZINC04520709
REMARK  3 active torsions:
REMARK  status: ('A' for Active; 'I' for Inactive)
REMARK    1  A    between atoms: C_3  and  C_8
REMARK    2  A    between atoms: C_5  and  O_7
REMARK    3  A    between atoms: C_19  and  C_22
REMARK                            x       y       z     vdW  Elec       q    Type
REMARK                         _______ _______ _______ _____ _____    ______ ____
ROOT
ATOM      1  C   UNL     1      -2.211   3.227  -2.414  0.00  0.00    +0.063 C 
ATOM      2  C   UNL     1      -3.520   3.913  -2.018  0.00  0.00    +0.109 C 
ATOM      3  C   UNL     1      -3.241   4.923  -0.935  0.00  0.00    +0.218 C 
ATOM      4  O   UNL     1      -3.888   5.947  -0.883  0.00  0.00    -0.275 OA
ATOM      5  N   UNL     1      -2.278   4.691  -0.027  0.00  0.00    -0.289 N 
ATOM      6  C   UNL     1      -1.548   3.530  -0.047  0.00  0.00    +0.018 C 
ATOM      7  C   UNL     1      -1.482   2.782  -1.168  0.00  0.00    +0.020 C 
ATOM      8  C   UNL     1      -0.745   1.587  -1.208  0.00  0.00    +0.162 C 
ATOM      9  O   UNL     1      -0.698   0.947  -2.240  0.00  0.00    -0.292 OA
ATOM     10  C   UNL     1      -0.013   1.086   0.008  0.00  0.00    +0.088 C 
ATOM     11  C   UNL     1      -0.734   1.582   1.265  0.00  0.00    +0.039 C 
ATOM     12  C   UNL     1      -0.822   3.109   1.207  0.00  0.00    +0.060 C 
ATOM     13  H   UNL     1      -2.096   5.356   0.655  0.00  0.00    +0.155 HD
ENDROOT
BRANCH   1  16
ATOM     14  C   UNL     1      -0.153   6.270  -3.292  0.00  0.00    +0.004 A 
ATOM     15  C   UNL     1      -0.945   5.378  -2.590  0.00  0.00    +0.004 A 
ATOM     16  C   UNL     1      -1.349   4.196  -3.181  0.00  0.00    -0.036 A 
ATOM     17  C   UNL     1      -0.960   3.899  -4.473  0.00  0.00    +0.049 A 
ATOM     18  C   UNL     1      -0.171   4.794  -5.181  0.00  0.00    +0.117 A 
ATOM     19  C   UNL     1       0.234   5.980  -4.586  0.00  0.00    +0.045 A 
BRANCH  18  20
ATOM     20  O   UNL     1       0.210   4.507  -6.454  0.00  0.00    -0.507 OA
ATOM     21  H   UNL     1       1.044   4.022  -6.515  0.00  0.00    +0.292 HD
ENDBRANCH  18  20
ENDBRANCH   1  16
BRANCH  11  22
ATOM     22  C   UNL     1       0.037   1.164   2.490  0.00  0.00    -0.006 A 
ATOM     23  C   UNL     1      -0.360   0.383   3.524  0.00  0.00    +0.011 A 
ATOM     24  C   UNL     1       0.528   0.128   4.552  0.00  0.00    +0.008 A 
ATOM     25  C   UNL     1       1.770   0.668   4.496  0.00  0.00    +0.045 A 
ATOM     26  S   UNL     1       1.715   1.562   2.952  0.00  0.00    -0.101 S 
ENDBRANCH  11  22
TORSDOF 3
