REMARK  Name = ZINC40687872
REMARK  3 active torsions:
REMARK  status: ('A' for Active; 'I' for Inactive)
REMARK    1  A    between atoms: C_6  and  O_11
REMARK    2  A    between atoms: O_11  and  C_12
REMARK    3  A    between atoms: C_13  and  N_19
REMARK                            x       y       z     vdW  Elec       q    Type
REMARK                         _______ _______ _______ _____ _____    ______ ____
ROOT
ATOM      1  O   UNL     1       4.878  -2.634  -0.058  0.00  0.00    -0.436 OA
ENDROOT
BRANCH   1   7
ATOM      2  C   UNL     1      -0.024   1.344  -0.223  0.00  0.00    +0.001 A 
ATOM      3  C   UNL     1       1.147   2.056  -0.473  0.00  0.00    +0.001 A 
ATOM      4  C   UNL     1       2.356   1.431  -0.495  0.00  0.00    +0.008 A 
ATOM      5  C   UNL     1       2.427   0.046  -0.262  0.00  0.00    -0.014 A 
ATOM      6  C   UNL     1       3.657  -0.632  -0.276  0.00  0.00    +0.054 A 
ATOM      7  C   UNL     1       3.688  -1.978  -0.044  0.00  0.00    +0.131 A 
ATOM      8  C   UNL     1       2.510  -2.690   0.206  0.00  0.00    +0.047 A 
ATOM      9  C   UNL     1       1.304  -2.062   0.226  0.00  0.00    +0.012 A 
ATOM     10  C   UNL     1       1.235  -0.677  -0.007  0.00  0.00    -0.018 A 
ATOM     11  C   UNL     1       0.006   0.003   0.007  0.00  0.00    +0.008 A 
ENDBRANCH   1   7
BRANCH   1  12
ATOM     12  C   UNL     1       5.181  -3.378  -1.149  0.00  0.00    +0.248 A 
ATOM     13  C   UNL     1       6.331  -4.150  -1.168  0.00  0.00    +0.152 A 
ATOM     14  C   UNL     1       6.609  -4.908  -2.323  0.00  0.00    +0.276 A 
ATOM     15  N   UNL     1       5.745  -4.850  -3.358  0.00  0.00    -0.312 N 
ATOM     16  C   UNL     1       4.641  -4.078  -3.280  0.00  0.00    +0.203 A 
ATOM     17  N   UNL     1       4.368  -3.376  -2.215  0.00  0.00    -0.201 NA
ATOM     18  O   UNL     1       7.611  -5.603  -2.385  0.00  0.00    -0.266 OA
ATOM     19  H   UNL     1       5.918  -5.364  -4.162  0.00  0.00    +0.170 HD
BRANCH  13  20
ATOM     20  N   UNL     1       7.200  -4.176  -0.063  0.00  0.00    -0.350 N 
ATOM     21  H   UNL     1       6.997  -3.649   0.726  0.00  0.00    +0.143 HD
ATOM     22  H   UNL     1       8.002  -4.721  -0.089  0.00  0.00    +0.143 HD
ENDBRANCH  13  20
ENDBRANCH   1  12
TORSDOF 3
