REMARK  Name = ZINC40054521
REMARK  14 active torsions:
REMARK  status: ('A' for Active; 'I' for Inactive)
REMARK    1  A    between atoms: C_1  and  C_2
REMARK    2  A    between atoms: C_2  and  O_3
REMARK    3  A    between atoms: O_3  and  C_4
REMARK    4  A    between atoms: C_6  and  C_11
REMARK    5  A    between atoms: C_9  and  O_10
REMARK    6  A    between atoms: C_13  and  C_23
REMARK    7  A    between atoms: N_17  and  C_18
REMARK    8  A    between atoms: C_18  and  C_19
REMARK    9  A    between atoms: C_19  and  C_20
REMARK   10  A    between atoms: C_20  and  O_21
REMARK   11  A    between atoms: C_23  and  C_25
REMARK   12  A    between atoms: C_29  and  O_31
REMARK   13  A    between atoms: O_31  and  C_32
REMARK   14  A    between atoms: C_32  and  C_33
REMARK                            x       y       z     vdW  Elec       q    Type
REMARK                         _______ _______ _______ _____ _____    ______ ____
ROOT
ATOM      1  C   UNL     1       0.582  -4.916  -0.216  0.00  0.00    +0.145 C 
ATOM      2  C   UNL     1       0.725  -5.685   1.076  0.00  0.00    +0.076 C 
ATOM      3  C   UNL     1       0.678  -6.999   0.756  0.00  0.00    +0.249 C 
ATOM      4  C   UNL     1       0.508  -7.137  -0.706  0.00  0.00    +0.288 C 
ATOM      5  O   UNL     1       0.430  -8.192  -1.303  0.00  0.00    -0.266 OA
ATOM      6  N   UNL     1       0.452  -5.919  -1.279  0.00  0.00    -0.283 N 
ATOM      7  O   UNL     1       0.772  -8.024   1.634  0.00  0.00    -0.282 OA
ENDROOT
BRANCH   1  10
ATOM      8  C   UNL     1      -1.656  -1.880   0.004  0.00  0.00    +0.162 A 
ATOM      9  C   UNL     1      -0.524  -2.678  -0.040  0.00  0.00    +0.055 A 
ATOM     10  C   UNL     1      -0.650  -4.049  -0.169  0.00  0.00    -0.019 A 
ATOM     11  C   UNL     1      -1.903  -4.626  -0.255  0.00  0.00    +0.009 A 
ATOM     12  C   UNL     1      -3.037  -3.835  -0.212  0.00  0.00    +0.049 A 
ATOM     13  C   UNL     1      -2.917  -2.461  -0.077  0.00  0.00    +0.158 A 
BRANCH  13  14
ATOM     14  O   UNL     1      -4.031  -1.682  -0.029  0.00  0.00    -0.503 OA
ATOM     15  H   UNL     1      -4.335  -1.376  -0.894  0.00  0.00    +0.292 HD
ENDBRANCH  13  14
BRANCH   8  16
ATOM     16  O   UNL     1      -1.534  -0.531   0.131  0.00  0.00    -0.489 OA
BRANCH  16  18
ATOM     17  C   UNL     1      -0.279   1.535   0.129  0.00  0.00    +0.048 C 
ATOM     18  C   UNL     1      -0.210   0.007   0.097  0.00  0.00    +0.226 C 
ENDBRANCH  16  18
ENDBRANCH   8  16
ENDBRANCH   1  10
BRANCH   2  19
ATOM     19  C   UNL     1       0.885  -5.118   2.418  0.00  0.00    +0.195 C 
ATOM     20  O   UNL     1       0.006  -5.258   3.247  0.00  0.00    -0.287 OA
BRANCH  19  21
ATOM     21  C   UNL     1       2.116  -4.374   2.765  0.00  0.00    +0.026 A 
ATOM     22  C   UNL     1       3.087  -4.133   1.790  0.00  0.00    +0.012 A 
ATOM     23  C   UNL     1       4.234  -3.439   2.117  0.00  0.00    +0.004 A 
ATOM     24  C   UNL     1       4.425  -2.980   3.408  0.00  0.00    +0.046 A 
ATOM     25  C   UNL     1       3.465  -3.214   4.383  0.00  0.00    +0.122 A 
ATOM     26  C   UNL     1       2.308  -3.905   4.065  0.00  0.00    +0.057 A 
BRANCH  25  27
ATOM     27  O   UNL     1       3.659  -2.761   5.650  0.00  0.00    -0.488 OA
BRANCH  27  28
ATOM     28  C   UNL     1       4.872  -2.051   5.906  0.00  0.00    +0.256 C 
BRANCH  28  29
ATOM     29  C   UNL     1       4.911  -1.629   7.352  0.00  0.00    +0.006 C 
ATOM     30  C   UNL     1       6.006  -1.791   8.052  0.00  0.00    +0.007 C 
ENDBRANCH  28  29
ENDBRANCH  27  28
ENDBRANCH  25  27
ENDBRANCH  19  21
ENDBRANCH   2  19
BRANCH   6  31
ATOM     31  C   UNL     1       0.289  -5.644  -2.709  0.00  0.00    +0.111 C 
BRANCH  31  32
ATOM     32  C   UNL     1       1.666  -5.559  -3.372  0.00  0.00    +0.047 C 
BRANCH  32  33
ATOM     33  C   UNL     1       1.496  -5.272  -4.865  0.00  0.00    +0.157 C 
BRANCH  33  34
ATOM     34  O   UNL     1       2.782  -5.193  -5.484  0.00  0.00    -0.395 OA
ATOM     35  H   UNL     1       2.751  -5.013  -6.433  0.00  0.00    +0.209 HD
ENDBRANCH  33  34
ENDBRANCH  32  33
ENDBRANCH  31  32
ENDBRANCH   6  31
TORSDOF 13
