REMARK  Name = ZINC23125436
REMARK  3 active torsions:
REMARK  status: ('A' for Active; 'I' for Inactive)
REMARK    1  A    between atoms: C_4  and  C_7
REMARK    2  A    between atoms: C_8  and  C_13
REMARK    3  A    between atoms: C_15  and  C_18
REMARK                            x       y       z     vdW  Elec       q    Type
REMARK                         _______ _______ _______ _____ _____    ______ ____
ROOT
ATOM      1  C   UNL     1       5.955   7.094  -0.011  0.00  0.00    +0.105 A 
ATOM      2  C   UNL     1       4.513   6.832  -0.005  0.00  0.00    +0.084 A 
ATOM      3  C   UNL     1       3.893   8.063   0.007  0.00  0.00    +0.118 A 
ATOM      4  N   UNL     1       4.849   9.007   0.003  0.00  0.00    -0.283 N 
ATOM      5  H   UNL     1       4.572  10.071   0.011  0.00  0.00    +0.188 HD
ATOM      6  N   UNL     1       6.108   8.399  -0.013  0.00  0.00    -0.173 NA
ENDROOT
BRANCH   1  10
ATOM      7  C   UNL     1       9.053   4.183  -0.033  0.00  0.00    +0.000 A 
ATOM      8  C   UNL     1       9.221   5.373  -0.719  0.00  0.00    +0.001 A 
ATOM      9  C   UNL     1       8.218   6.321  -0.715  0.00  0.00    +0.010 A 
ATOM     10  C   UNL     1       7.035   6.079  -0.019  0.00  0.00    +0.003 A 
ATOM     11  C   UNL     1       6.875   4.880   0.674  0.00  0.00    +0.010 A 
ATOM     12  C   UNL     1       7.882   3.937   0.659  0.00  0.00    +0.001 A 
ENDBRANCH   1  10
BRANCH   2  13
ATOM     13  C   UNL     1       3.855   5.512  -0.006  0.00  0.00    +0.262 A 
ATOM     14  N   UNL     1       2.555   5.280   0.005  0.00  0.00    -0.187 NA
ATOM     15  C   UNL     1       2.428   3.937  -0.001  0.00  0.00    +0.202 A 
ATOM     16  N   UNL     1       3.634   3.430  -0.009  0.00  0.00    -0.056 NA
ATOM     17  O   UNL     1       4.463   4.315  -0.018  0.00  0.00    -0.332 OA
BRANCH  15  18
ATOM     18  C   UNL     1       1.154   3.174   0.008  0.00  0.00    +0.024 A 
ATOM     19  C   UNL     1       1.174   1.781   0.000  0.00  0.00    +0.012 A 
ATOM     20  C   UNL     1      -0.013   1.076   0.008  0.00  0.00    +0.002 A 
ATOM     21  C   UNL     1      -1.220   1.750   0.017  0.00  0.00    +0.020 A 
ATOM     22  C   UNL     1      -1.246   3.134   0.030  0.00  0.00    +0.042 A 
ATOM     23  C   UNL     1      -0.064   3.849   0.022  0.00  0.00    +0.031 A 
ATOM     24 CL   UNL     1      -2.766   3.972   0.048  0.00  0.00    -0.084 Cl
ENDBRANCH  15  18
ENDBRANCH   2  13
TORSDOF 3
