REMARK  Name = ZINC48846839
REMARK  4 active torsions:
REMARK  status: ('A' for Active; 'I' for Inactive)
REMARK    1  A    between atoms: C_7  and  C_11
REMARK    2  A    between atoms: C_7  and  N_14
REMARK    3  A    between atoms: N_14  and  C_15
REMARK    4  A    between atoms: C_21  and  N_23
REMARK                            x       y       z     vdW  Elec       q    Type
REMARK                         _______ _______ _______ _____ _____    ______ ____
ROOT
ATOM      1  C   UNL     1       4.940  -2.571   0.619  0.00  0.00    +0.001 A 
ATOM      2  C   UNL     1       5.230  -3.547  -0.316  0.00  0.00    +0.004 A 
ATOM      3  C   UNL     1       4.231  -4.037  -1.133  0.00  0.00    +0.046 A 
ATOM      4  C   UNL     1       2.932  -3.552  -1.019  0.00  0.00    +0.126 A 
ATOM      5  C   UNL     1       2.644  -2.578  -0.080  0.00  0.00    +0.025 A 
ATOM      6  C   UNL     1       3.651  -2.088   0.736  0.00  0.00    +0.009 A 
ATOM      7  C   UNL     1       1.248  -2.033   0.085  0.00  0.00    +0.153 C 
ATOM      8  C   UNL     1       0.417  -2.362  -1.158  0.00  0.00    +0.080 C 
ATOM      9  C   UNL     1       0.610  -3.848  -1.488  0.00  0.00    +0.232 C 
ATOM     10  O   UNL     1       1.978  -4.055  -1.844  0.00  0.00    -0.492 OA
ENDROOT
BRANCH   7  11
ATOM     11  C   UNL     1       1.311  -0.538   0.264  0.00  0.00    +0.380 C 
ATOM     12  O   UNL     1       1.679   0.172  -0.656  0.00  0.00    -0.244 OA
ATOM     13  O   UNL     1       0.993  -0.038   1.330  0.00  0.00    -0.244 OA
ENDBRANCH   7  11
BRANCH   7  14
ATOM     14  N   UNL     1       0.622  -2.641   1.267  0.00  0.00    -0.296 NA
ATOM     15  H   UNL     1       0.705  -3.646   1.243  0.00  0.00    +0.123 HD
BRANCH  14  16
ATOM     16  C   UNL     1      -0.783  -2.231   1.388  0.00  0.00    +0.040 C 
ATOM     17  C   UNL     1      -1.685  -3.325   0.814  0.00  0.00    +0.017 C 
ATOM     18  C   UNL     1      -3.149  -2.898   0.941  0.00  0.00    +0.001 C 
ATOM     19  C   UNL     1      -3.490  -2.677   2.416  0.00  0.00    -0.001 C 
ATOM     20  C   UNL     1      -2.588  -1.582   2.989  0.00  0.00    -0.015 C 
ATOM     21  C   UNL     1      -1.124  -2.009   2.863  0.00  0.00    -0.058 C 
BRANCH  21  22
ATOM     22  N   UNL     1      -0.258  -0.958   3.413  0.00  0.00    +0.381 N 
ATOM     23  H   UNL     1      -0.403  -0.101   2.902  0.00  0.00    -0.090 HD
ATOM     24  H   UNL     1      -0.483  -0.812   4.386  0.00  0.00    -0.090 HD
ATOM     25  H   UNL     1       0.707  -1.240   3.330  0.00  0.00    -0.090 HD
ENDBRANCH  21  22
ENDBRANCH  14  16
ENDBRANCH   7  14
TORSDOF 4
