REMARK  Name = ZINC08994424
REMARK  6 active torsions:
REMARK  status: ('A' for Active; 'I' for Inactive)
REMARK    1  A    between atoms: C_1  and  O_2
REMARK    2  A    between atoms: O_2  and  C_3
REMARK    3  A    between atoms: C_8  and  C_9
REMARK    4  A    between atoms: C_15  and  S_19
REMARK    5  A    between atoms: C_16  and  C_17
REMARK    6  A    between atoms: S_19  and  C_20
REMARK                            x       y       z     vdW  Elec       q    Type
REMARK                         _______ _______ _______ _____ _____    ______ ____
ROOT
ATOM      1  C   UNL     1       0.002  -0.004   0.002  0.00  0.00    +0.074 C 
ATOM      2  C   UNL     1      -0.019   1.526   0.010  0.00  0.00    +0.109 C 
ATOM      3  C   UNL     1       1.393   2.049  -0.000  0.00  0.00    +0.218 C 
ATOM      4  O   UNL     1       1.650   3.077  -0.590  0.00  0.00    -0.275 OA
ATOM      5  N   UNL     1       2.373   1.384   0.640  0.00  0.00    -0.279 N 
ATOM      6  C   UNL     1       2.104   0.211   1.313  0.00  0.00    +0.081 C 
ATOM      7  C   UNL     1       0.974  -0.498   1.042  0.00  0.00    +0.065 C 
ATOM      8  H   UNL     1       3.401   1.776   0.631  0.00  0.00    +0.155 HD
ENDROOT
BRANCH   1  14
ATOM      9  C   UNL     1      -0.418  -1.298  -2.104  0.00  0.00    +0.124 A 
ATOM     10  C   UNL     1      -0.021  -1.747  -3.356  0.00  0.00    +0.046 A 
ATOM     11  C   UNL     1       1.216  -1.391  -3.856  0.00  0.00    +0.004 A 
ATOM     12  C   UNL     1       2.059  -0.588  -3.109  0.00  0.00    +0.001 A 
ATOM     13  C   UNL     1       1.665  -0.136  -1.864  0.00  0.00    +0.008 A 
ATOM     14  C   UNL     1       0.430  -0.493  -1.358  0.00  0.00    +0.003 A 
BRANCH   9  16
ATOM     15  C   UNL     1      -2.456  -2.478  -2.434  0.00  0.00    +0.277 C 
ATOM     16  O   UNL     1      -1.635  -1.647  -1.610  0.00  0.00    -0.495 OA
ENDBRANCH   9  16
ENDBRANCH   1  14
BRANCH   7  17
ATOM     17  C   UNL     1       0.707  -1.715   1.748  0.00  0.00    +0.098 C 
ATOM     18  N   UNL     1       0.496  -2.681   2.308  0.00  0.00    -0.191 NA
ENDBRANCH   7  17
BRANCH   6  19
ATOM     19  S   UNL     1       3.233  -0.376   2.532  0.00  0.00    -0.113 S 
ATOM     20  C   UNL     1       4.487   0.927   2.453  0.00  0.00    +0.091 C 
ENDBRANCH   6  19
TORSDOF 4
