REMARK  Name = ZINC37934058
REMARK  5 active torsions:
REMARK  status: ('A' for Active; 'I' for Inactive)
REMARK    1  A    between atoms: C_2  and  N_21
REMARK    2  A    between atoms: C_4  and  S_17
REMARK    3  A    between atoms: C_6  and  N_7
REMARK    4  A    between atoms: N_7  and  C_8
REMARK    5  A    between atoms: S_17  and  N_20
REMARK                            x       y       z     vdW  Elec       q    Type
REMARK                         _______ _______ _______ _____ _____    ______ ____
ROOT
ATOM      1  C   UNL     1      -0.017   1.383   0.010  0.00  0.00    +0.045 A 
ATOM      2  C   UNL     1       1.177   2.091   0.002  0.00  0.00    +0.028 A 
ATOM      3  C   UNL     1       2.388   1.407  -0.013  0.00  0.00    +0.051 A 
ATOM      4  C   UNL     1       2.403   0.026  -0.021  0.00  0.00    +0.108 A 
ATOM      5  C   UNL     1       1.216  -0.681  -0.014  0.00  0.00    +0.051 A 
ATOM      6  C   UNL     1       0.002  -0.004   0.002  0.00  0.00    +0.031 A 
ENDROOT
BRANCH   4   7
ATOM      7  S   UNL     1       3.939  -0.836  -0.040  0.00  0.00    +0.056 S 
ATOM      8  O   UNL     1       3.679  -2.118  -0.595  0.00  0.00    -0.153 OA
ATOM      9  O   UNL     1       4.897   0.054  -0.595  0.00  0.00    -0.153 OA
BRANCH   7  10
ATOM     10  N   UNL     1       4.381  -1.084   1.536  0.00  0.00    -0.204 NA
ATOM     11  H   UNL     1       4.909  -1.862   1.776  0.00  0.00    +0.144 HD
ATOM     12  H   UNL     1       4.112  -0.452   2.221  0.00  0.00    +0.144 HD
ENDBRANCH   7  10
ENDBRANCH   4   7
BRANCH   2  13
ATOM     13  N   UNL     1       1.163   3.487   0.009  0.00  0.00    -0.358 N 
ATOM     14  H   UNL     1       0.318   3.963   0.019  0.00  0.00    +0.142 HD
ATOM     15  H   UNL     1       1.998   3.981   0.004  0.00  0.00    +0.142 HD
ENDBRANCH   2  13
BRANCH   6  16
ATOM     16  N   UNL     1      -1.197  -0.720   0.010  0.00  0.00    -0.342 N 
ATOM     17  H   UNL     1      -1.184  -1.690   0.005  0.00  0.00    +0.146 HD
BRANCH  16  18
ATOM     18  C   UNL     1      -2.476  -0.005   0.027  0.00  0.00    +0.057 C 
ATOM     19  C   UNL     1      -2.852   0.341   1.469  0.00  0.00    -0.056 C 
ATOM     20  N   UNL     1      -4.128  -0.286   1.820  0.00  0.00    +0.381 N 
ATOM     21  C   UNL     1      -5.201   0.210   0.956  0.00  0.00    -0.078 C 
ATOM     22  C   UNL     1      -4.904  -0.140  -0.504  0.00  0.00    -0.014 C 
ATOM     23  C   UNL     1      -3.571  -0.898  -0.572  0.00  0.00    +0.004 C 
ATOM     24  C   UNL     1      -3.692  -2.161   0.290  0.00  0.00    -0.014 C 
ATOM     25  C   UNL     1      -4.027  -1.745   1.730  0.00  0.00    -0.078 C 
ATOM     26  H   UNL     1      -4.354  -0.040   2.772  0.00  0.00    -0.082 HD
ENDBRANCH  16  18
ENDBRANCH   6  16
TORSDOF 5
