REMARK  Name = ZINC44966536
REMARK  12 active torsions:
REMARK  status: ('A' for Active; 'I' for Inactive)
REMARK    1  A    between atoms: C_1  and  C_2
REMARK    2  A    between atoms: C_2  and  C_3
REMARK    3  A    between atoms: C_6  and  C_9
REMARK    4  A    between atoms: C_9  and  C_11
REMARK    5  A    between atoms: C_9  and  N_25
REMARK    6  A    between atoms: C_11  and  N_12
REMARK    7  A    between atoms: N_15  and  C_16
REMARK    8  A    between atoms: C_16  and  C_18
REMARK    9  A    between atoms: C_16  and  C_19
REMARK   10  A    between atoms: N_23  and  C_24
REMARK   11  A    between atoms: N_25  and  C_26
REMARK   12  A    between atoms: N_25  and  C_27
REMARK                            x       y       z     vdW  Elec       q    Type
REMARK                         _______ _______ _______ _____ _____    ______ ____
ROOT
ATOM      1  C   UNL     1      -6.137  -0.972   0.172  0.00  0.00    +0.095 C 
ENDROOT
BRANCH   1   2
ATOM      2  N   UNL     1      -6.027  -0.323   1.480  0.00  0.00    -0.301 N 
ATOM      3  C   UNL     1      -6.769   0.768   1.756  0.00  0.00    +0.300 C 
ATOM      4  O   UNL     1      -7.529   1.214   0.918  0.00  0.00    -0.253 OA
ATOM      5  N   UNL     1      -6.668   1.366   2.959  0.00  0.00    -0.290 N 
ATOM      6  H   UNL     1      -5.421  -0.678   2.149  0.00  0.00    +0.150 HD
ATOM      7  H   UNL     1      -6.062   1.011   3.628  0.00  0.00    +0.151 HD
BRANCH   5   8
ATOM      8  C   UNL     1      -7.475   2.552   3.258  0.00  0.00    +0.139 C 
ATOM      9  C   UNL     1      -6.756   3.800   2.742  0.00  0.00    +0.036 C 
BRANCH   8  10
ATOM     10  C   UNL     1      -7.669   2.665   4.748  0.00  0.00    +0.153 A 
ATOM     11  N   UNL     1      -6.749   2.518   5.662  0.00  0.00    -0.133 NA
ATOM     12  N   UNL     1      -7.266   2.683   6.828  0.00  0.00    -0.138 NA
ATOM     13  C   UNL     1      -8.539   2.942   6.711  0.00  0.00    +0.224 A 
ATOM     14  N   UNL     1      -8.831   2.943   5.388  0.00  0.00    -0.319 N 
ATOM     15  C   UNL     1     -10.137   3.192   4.773  0.00  0.00    +0.151 C 
ENDBRANCH   8  10
ENDBRANCH   5   8
ENDBRANCH   1   2
BRANCH   1  16
ATOM     16  C   UNL     1      -5.269  -2.232   0.153  0.00  0.00    -0.021 C 
BRANCH  16  20
ATOM     17  C   UNL     1      -1.161  -1.137   0.571  0.00  0.00    -0.048 A 
ATOM     18  C   UNL     1      -1.868  -1.597   1.665  0.00  0.00    +0.004 A 
ATOM     19  C   UNL     1      -3.197  -1.952   1.530  0.00  0.00    +0.002 A 
ATOM     20  C   UNL     1      -3.820  -1.845   0.301  0.00  0.00    -0.059 A 
ATOM     21  C   UNL     1      -3.112  -1.383  -0.794  0.00  0.00    +0.002 A 
ATOM     22  C   UNL     1      -1.784  -1.025  -0.658  0.00  0.00    +0.004 A 
BRANCH  17  24
ATOM     23  C   UNL     1       0.387   0.730   1.090  0.00  0.00    +0.009 C 
ATOM     24  C   UNL     1       0.289  -0.751   0.718  0.00  0.00    +0.032 C 
ENDBRANCH  17  24
ENDBRANCH  16  20
BRANCH  16  25
ATOM     25  N   UNL     1      -5.459  -2.939  -1.120  0.00  0.00    +0.382 N 
ATOM     26  C   UNL     1      -4.591  -4.124  -1.156  0.00  0.00    -0.096 C 
ATOM     27  C   UNL     1      -6.862  -3.356  -1.243  0.00  0.00    -0.096 C 
ATOM     28  H   UNL     1      -5.223  -2.325  -1.885  0.00  0.00    -0.082 HD
ENDBRANCH  16  25
ENDBRANCH   1  16
TORSDOF 7
