REMARK  Name = ZINC38789270
REMARK  7 active torsions:
REMARK  status: ('A' for Active; 'I' for Inactive)
REMARK    1  A    between atoms: C_1  and  C_2
REMARK    2  A    between atoms: C_2  and  O_3
REMARK    3  A    between atoms: O_3  and  C_4
REMARK    4  A    between atoms: C_11  and  C_16
REMARK    5  A    between atoms: C_16  and  N_17
REMARK    6  A    between atoms: N_17  and  C_18
REMARK    7  A    between atoms: C_23  and  C_24
REMARK                            x       y       z     vdW  Elec       q    Type
REMARK                         _______ _______ _______ _____ _____    ______ ____
ROOT
ATOM      1  C   UNL     1       0.802  -1.825   1.306  0.00  0.00    +0.121 A 
ATOM      2  C   UNL     1       0.249  -2.667   0.334  0.00  0.00    +0.047 A 
ATOM      3  C   UNL     1       0.320  -4.021   0.414  0.00  0.00    +0.027 A 
ATOM      4  C   UNL     1       0.965  -4.641   1.500  0.00  0.00    +0.041 A 
ATOM      5  N   UNL     1       1.026  -5.971   1.566  0.00  0.00    -0.284 N 
ATOM      6  C   UNL     1       1.615  -6.619   2.557  0.00  0.00    +0.226 C 
ATOM      7  O   UNL     1       1.640  -7.835   2.562  0.00  0.00    -0.275 OA
ATOM      8  C   UNL     1       2.259  -5.842   3.683  0.00  0.00    +0.115 C 
ATOM      9  C   UNL     1       2.192  -4.329   3.614  0.00  0.00    -0.003 C 
ATOM     10  C   UNL     1       1.556  -3.780   2.540  0.00  0.00    -0.004 A 
ATOM     11  C   UNL     1       1.451  -2.328   2.392  0.00  0.00    +0.055 A 
ATOM     12  H   UNL     1       0.619  -6.488   0.854  0.00  0.00    +0.155 HD
ENDROOT
BRANCH   1  13
ATOM     13  O   UNL     1       0.693  -0.477   1.160  0.00  0.00    -0.492 OA
BRANCH  13  15
ATOM     14  C   UNL     1      -0.019   1.526   0.010  0.00  0.00    +0.048 C 
ATOM     15  C   UNL     1       0.002  -0.004   0.002  0.00  0.00    +0.225 C 
ENDBRANCH  13  15
ENDBRANCH   1  13
BRANCH   8  16
ATOM     16  C   UNL     1       3.734  -6.243   3.748  0.00  0.00    +0.118 C 
BRANCH  16  17
ATOM     17  N   UNL     1       3.840  -7.657   4.118  0.00  0.00    -0.342 N 
ATOM     18  H   UNL     1       3.038  -8.178   4.277  0.00  0.00    +0.146 HD
BRANCH  17  19
ATOM     19  C   UNL     1       5.095  -8.253   4.240  0.00  0.00    +0.035 A 
ATOM     20  C   UNL     1       6.245  -7.509   4.017  0.00  0.00    +0.023 A 
ATOM     21  C   UNL     1       7.486  -8.102   4.139  0.00  0.00    +0.002 A 
ATOM     22  C   UNL     1       7.592  -9.439   4.483  0.00  0.00    +0.001 A 
ATOM     23  C   UNL     1       6.457 -10.191   4.707  0.00  0.00    +0.010 A 
ATOM     24  C   UNL     1       5.199  -9.604   4.593  0.00  0.00    +0.003 A 
BRANCH  24  25
ATOM     25  C   UNL     1       3.977 -10.406   4.839  0.00  0.00    -0.016 A 
ATOM     26  C   UNL     1       2.985  -9.926   5.692  0.00  0.00    +0.008 A 
ATOM     27  C   UNL     1       1.849 -10.677   5.917  0.00  0.00    +0.001 A 
ATOM     28  C   UNL     1       1.695 -11.905   5.299  0.00  0.00    +0.000 A 
ATOM     29  C   UNL     1       2.676 -12.387   4.451  0.00  0.00    +0.001 A 
ATOM     30  C   UNL     1       3.813 -11.641   4.214  0.00  0.00    +0.008 A 
ENDBRANCH  24  25
ENDBRANCH  17  19
ENDBRANCH  16  17
ENDBRANCH   8  16
TORSDOF 6
