REMARK  Name = ZINC45551364
REMARK  7 active torsions:
REMARK  status: ('A' for Active; 'I' for Inactive)
REMARK    1  A    between atoms: C_1  and  C_2
REMARK    2  A    between atoms: C_2  and  C_3
REMARK    3  A    between atoms: C_2  and  C_13
REMARK    4  A    between atoms: C_2  and  N_16
REMARK    5  A    between atoms: C_3  and  C_4
REMARK    6  A    between atoms: C_4  and  S_5
REMARK    7  A    between atoms: S_5  and  C_6
REMARK                            x       y       z     vdW  Elec       q    Type
REMARK                         _______ _______ _______ _____ _____    ______ ____
ROOT
ATOM      1  C   UNL     1      -0.019   1.526   0.010  0.00  0.00    -0.001 C 
ATOM      2  C   UNL     1       0.002  -0.004   0.002  0.00  0.00    +0.005 C 
ENDROOT
BRANCH   2   3
ATOM      3  C   UNL     1      -1.412  -0.526   0.013  0.00  0.00    +0.199 C 
ATOM      4  O   UNL     1      -1.939  -0.827   1.062  0.00  0.00    -0.278 OA
ATOM      5  N   UNL     1      -2.090  -0.657  -1.144  0.00  0.00    -0.330 N 
ATOM      6  H   UNL     1      -1.669  -0.416  -1.984  0.00  0.00    +0.145 HD
ATOM      7  H   UNL     1      -3.000  -0.993  -1.137  0.00  0.00    +0.145 HD
ENDBRANCH   2   3
BRANCH   2   8
ATOM      8  N   UNL     1       0.690  -0.478  -1.207  0.00  0.00    +0.387 N 
ATOM      9  H   UNL     1       1.636  -0.129  -1.214  0.00  0.00    -0.089 HD
ATOM     10  H   UNL     1       0.703  -1.487  -1.212  0.00  0.00    -0.089 HD
ATOM     11  H   UNL     1       0.202  -0.144  -2.024  0.00  0.00    -0.089 HD
ENDBRANCH   2   8
BRANCH   2  12
ATOM     12  C   UNL     1       0.742  -0.511   1.242  0.00  0.00    +0.007 C 
BRANCH  12  13
ATOM     13  C   UNL     1       2.178   0.019   1.231  0.00  0.00    +0.073 C 
BRANCH  13  14
ATOM     14  S   UNL     1       3.055  -0.582   2.700  0.00  0.00    -0.125 S 
BRANCH  14  15
ATOM     15  C   UNL     1       4.670   0.104   2.543  0.00  0.00    +0.008 A 
ATOM     16  C   UNL     1       4.982   0.908   1.453  0.00  0.00    +0.016 A 
ATOM     17  C   UNL     1       6.248   1.445   1.333  0.00  0.00    +0.016 A 
ATOM     18  C   UNL     1       7.206   1.184   2.297  0.00  0.00    +0.018 A 
ATOM     19  C   UNL     1       6.899   0.384   3.383  0.00  0.00    +0.016 A 
ATOM     20  C   UNL     1       5.633  -0.152   3.512  0.00  0.00    +0.016 A 
ATOM     21 BR   UNL     1       8.940   1.921   2.128  0.00  0.00    -0.050 Br
ENDBRANCH  14  15
ENDBRANCH  13  14
ENDBRANCH  12  13
ENDBRANCH   2  12
TORSDOF 6
