REMARK  Name = ZINC37486403
REMARK  5 active torsions:
REMARK  status: ('A' for Active; 'I' for Inactive)
REMARK    1  A    between atoms: C_1  and  C_2
REMARK    2  A    between atoms: C_2  and  N_3
REMARK    3  A    between atoms: C_4  and  N_21
REMARK    4  A    between atoms: C_5  and  N_12
REMARK    5  A    between atoms: N_12  and  C_13
REMARK                            x       y       z     vdW  Elec       q    Type
REMARK                         _______ _______ _______ _____ _____    ______ ____
ROOT
ATOM      1  N   UNL     1       1.221   0.220  -1.645  0.00  0.00    -0.281 N 
ATOM      2  C   UNL     1       0.517   0.031  -2.812  0.00  0.00    +0.127 A 
ATOM      3  C   UNL     1       0.617  -1.164  -3.471  0.00  0.00    +0.131 A 
ATOM      4  C   UNL     1       1.439  -2.172  -2.934  0.00  0.00    +0.277 A 
ATOM      5  O   UNL     1       1.545  -3.245  -3.503  0.00  0.00    -0.266 OA
ATOM      6  N   UNL     1       2.110  -1.943  -1.788  0.00  0.00    -0.273 N 
ATOM      7  H   UNL     1       2.678  -2.637  -1.417  0.00  0.00    +0.173 HD
ATOM      8  C   UNL     1       2.004  -0.760  -1.157  0.00  0.00    +0.331 A 
ATOM      9  O   UNL     1       2.622  -0.574  -0.126  0.00  0.00    -0.246 OA
ENDROOT
BRANCH   2  10
ATOM     10  N   UNL     1      -0.280   1.035  -3.313  0.00  0.00    -0.343 N 
ATOM     11  H   UNL     1      -0.347   1.881  -2.842  0.00  0.00    +0.144 HD
ATOM     12  H   UNL     1      -0.774   0.898  -4.136  0.00  0.00    +0.144 HD
ENDBRANCH   2  10
BRANCH   1  14
ATOM     13  C   UNL     1       2.201   2.451  -1.445  0.00  0.00    +0.027 C 
ATOM     14  C   UNL     1       1.121   1.496  -0.932  0.00  0.00    +0.125 C 
ENDBRANCH   1  14
BRANCH   3  15
ATOM     15  N   UNL     1      -0.096  -1.384  -4.672  0.00  0.00    -0.334 N 
ATOM     16  H   UNL     1      -1.061  -1.292  -4.687  0.00  0.00    +0.147 HD
BRANCH  15  17
ATOM     17  C   UNL     1       0.624  -1.750  -5.895  0.00  0.00    +0.071 C 
ATOM     18  C   UNL     1       1.206  -0.490  -6.540  0.00  0.00    +0.022 C 
ATOM     19  C   UNL     1       2.269  -0.888  -7.566  0.00  0.00    +0.002 C 
ATOM     20  C   UNL     1       3.163  -1.980  -6.978  0.00  0.00    +0.000 C 
ATOM     21  C   UNL     1       2.944  -3.287  -7.743  0.00  0.00    +0.000 C 
ATOM     22  C   UNL     1       1.618  -3.914  -7.309  0.00  0.00    +0.000 C 
ATOM     23  C   UNL     1       0.458  -3.154  -7.954  0.00  0.00    +0.002 C 
ATOM     24  C   UNL     1      -0.341  -2.425  -6.872  0.00  0.00    +0.022 C 
ENDBRANCH  15  17
ENDBRANCH   3  15
TORSDOF 4
