REMARK  Name = ZINC29932996
REMARK  5 active torsions:
REMARK  status: ('A' for Active; 'I' for Inactive)
REMARK    1  A    between atoms: C_1  and  C_2
REMARK    2  A    between atoms: C_4  and  O_26
REMARK    3  A    between atoms: N_9  and  C_10
REMARK    4  A    between atoms: C_10  and  C_11
REMARK    5  A    between atoms: N_13  and  C_14
REMARK                            x       y       z     vdW  Elec       q    Type
REMARK                         _______ _______ _______ _____ _____    ______ ____
ROOT
ATOM      1  C   UNL     1      -1.190   1.360   0.105  0.00  0.00    +0.045 C 
ATOM      2  C   UNL     1      -0.865  -0.111   0.074  0.00  0.00    -0.033 A 
ATOM      3  C   UNL     1      -0.809  -0.799  -1.127  0.00  0.00    +0.091 A 
ATOM      4  C   UNL     1      -0.503  -2.147  -1.138  0.00  0.00    +0.285 A 
ATOM      5  O   UNL     1      -0.267  -2.817  -0.003  0.00  0.00    -0.425 OA
ATOM      6  C   UNL     1      -0.314  -2.198   1.196  0.00  0.00    +0.141 A 
ATOM      7  C   UNL     1      -0.069  -2.899   2.355  0.00  0.00    +0.072 A 
ATOM      8  C   UNL     1      -0.122  -2.235   3.595  0.00  0.00    +0.039 A 
ATOM      9  N   UNL     1       0.114  -2.909   4.720  0.00  0.00    -0.376 N 
ATOM     10  C   UNL     1      -0.425  -0.854   3.651  0.00  0.00    +0.026 A 
ATOM     11  C   UNL     1      -0.667  -0.161   2.512  0.00  0.00    +0.014 A 
ATOM     12  C   UNL     1      -0.617  -0.815   1.264  0.00  0.00    +0.021 A 
ATOM     13  H   UNL     1       0.234  -4.003   4.691  0.00  0.00    +0.160 HD
ENDROOT
BRANCH   4  14
ATOM     14  O   UNL     1      -0.447  -2.801  -2.315  0.00  0.00    -0.480 OA
ATOM     15  H   UNL     1      -0.205  -3.874  -2.337  0.00  0.00    +0.295 HD
ENDBRANCH   4  14
BRANCH   9  16
ATOM     16  C   UNL     1       0.215  -2.195   5.995  0.00  0.00    +0.209 C 
BRANCH  16  17
ATOM     17  C   UNL     1      -0.933  -2.594   6.886  0.00  0.00    +0.236 C 
ATOM     18  O   UNL     1      -1.754  -3.396   6.495  0.00  0.00    -0.274 OA
ATOM     19  N   UNL     1      -1.046  -2.059   8.118  0.00  0.00    -0.282 N 
ATOM     20  H   UNL     1      -0.354  -1.268   8.440  0.00  0.00    +0.155 HD
BRANCH  19  21
ATOM     21  C   UNL     1      -2.044  -2.509   8.985  0.00  0.00    +0.062 A 
ATOM     22  C   UNL     1      -2.569  -3.756   8.832  0.00  0.00    +0.025 A 
ATOM     23  C   UNL     1      -3.560  -4.237   9.685  0.00  0.00    +0.004 A 
ATOM     24  C   UNL     1      -4.055  -3.483  10.696  0.00  0.00    +0.031 A 
ATOM     25  C   UNL     1      -3.562  -2.170  10.914  0.00  0.00    +0.102 A 
ATOM     26  C   UNL     1      -2.518  -1.663  10.029  0.00  0.00    +0.121 A 
ATOM     27  N   UNL     1      -2.151  -0.424  10.347  0.00  0.00    -0.189 NA
ATOM     28  S   UNL     1      -3.022  -0.012  11.582  0.00  0.00    +0.117 S 
ATOM     29  N   UNL     1      -3.909  -1.278  11.839  0.00  0.00    -0.191 NA
ENDBRANCH  19  21
ENDBRANCH  16  17
ENDBRANCH   9  16
TORSDOF 4
