REMARK  Name = ZINC04962150
REMARK  9 active torsions:
REMARK  status: ('A' for Active; 'I' for Inactive)
REMARK    1  A    between atoms: C_1  and  C_2
REMARK    2  A    between atoms: C_5  and  S_8
REMARK    3  A    between atoms: S_8  and  O_11
REMARK    4  A    between atoms: O_11  and  C_12
REMARK    5  A    between atoms: C_14  and  O_28
REMARK    6  A    between atoms: C_16  and  N_43
REMARK    7  A    between atoms: C_18  and  C_25
REMARK    8  A    between atoms: C_21  and  O_23
REMARK    9  A    between atoms: O_23  and  C_24
REMARK                            x       y       z     vdW  Elec       q    Type
REMARK                         _______ _______ _______ _____ _____    ______ ____
ROOT
ATOM      1  C   UNL     1      -2.134  -4.815  -0.949  0.00  0.00    +0.232 C 
ATOM      2  C   UNL     1      -3.233  -5.881  -0.942  0.00  0.00    +0.139 C 
ATOM      3  C   UNL     1      -4.064  -5.750  -2.222  0.00  0.00    -0.014 C 
ATOM      4  C   UNL     1      -4.630  -4.331  -2.312  0.00  0.00    +0.106 C 
ATOM      5  O   UNL     1      -3.557  -3.388  -2.283  0.00  0.00    -0.347 OA
ATOM      6  C   UNL     1      -2.775  -3.432  -1.088  0.00  0.00    +0.284 C 
ATOM      7  C   UNL     1      -5.411  -4.175  -3.618  0.00  0.00    +0.036 C 
ENDROOT
BRANCH   3  10
ATOM      8  H   UNL     1      -3.736  -5.928  -4.247  0.00  0.00    -0.089 HD
ATOM      9  H   UNL     1      -2.408  -5.403  -3.394  0.00  0.00    -0.089 HD
ATOM     10  N   UNL     1      -3.205  -6.037  -3.384  0.00  0.00    +0.383 N 
ATOM     11  H   UNL     1      -2.863  -7.003  -3.321  0.00  0.00    -0.089 HD
ENDBRANCH   3  10
BRANCH   6  12
ATOM     12  O   UNL     1      -1.751  -2.436  -1.152  0.00  0.00    -0.352 OA
ATOM     13  C   UNL     1      -2.238  -1.096  -1.066  0.00  0.00    +0.197 C 
ENDBRANCH   6  12
BRANCH   2  14
ATOM     14  O   UNL     1      -2.639  -7.180  -0.887  0.00  0.00    -0.391 OA
ATOM     15  H   UNL     1      -3.279  -7.905  -0.880  0.00  0.00    +0.210 HD
ENDBRANCH   2  14
BRANCH   1  16
ATOM     16  O   UNL     1      -1.398  -4.880   0.274  0.00  0.00    -0.223 OA
BRANCH  16  17
ATOM     17  S   UNL     1      -0.015  -5.499   0.133  0.00  0.00    +0.112 S 
ATOM     18  O   UNL     1      -0.142  -6.570  -0.792  0.00  0.00    -0.142 OA
ATOM     19  O   UNL     1       0.484  -5.684   1.451  0.00  0.00    -0.142 OA
BRANCH  17  24
ATOM     20  C   UNL     1       3.527  -1.374  -2.485  0.00  0.00    +0.044 C 
ATOM     21  C   UNL     1       2.642  -2.404  -1.831  0.00  0.00    -0.050 A 
ATOM     22  C   UNL     1       2.046  -3.389  -2.596  0.00  0.00    +0.005 A 
ATOM     23  C   UNL     1       1.239  -4.337  -1.996  0.00  0.00    +0.030 A 
ATOM     24  C   UNL     1       1.019  -4.294  -0.631  0.00  0.00    +0.117 A 
ATOM     25  C   UNL     1       1.611  -3.306   0.133  0.00  0.00    +0.030 A 
ATOM     26  C   UNL     1       2.422  -2.361  -0.467  0.00  0.00    +0.005 A 
ENDBRANCH  17  24
ENDBRANCH  16  17
ENDBRANCH   1  16
TORSDOF 6
