REMARK  Name = ZINC63886714
REMARK  7 active torsions:
REMARK  status: ('A' for Active; 'I' for Inactive)
REMARK    1  A    between atoms: C_1  and  C_2
REMARK    2  A    between atoms: C_2  and  C_21
REMARK    3  A    between atoms: N_5  and  C_9
REMARK    4  A    between atoms: C_9  and  C_10
REMARK    5  A    between atoms: C_14  and  O_16
REMARK    6  A    between atoms: O_16  and  C_17
REMARK    7  A    between atoms: C_17  and  C_18
REMARK                            x       y       z     vdW  Elec       q    Type
REMARK                         _______ _______ _______ _____ _____    ______ ____
ROOT
ATOM      1  C   UNL     1      -0.019   1.526   0.010  0.00  0.00    +0.047 C 
ATOM      2  C   UNL     1       0.002  -0.004   0.002  0.00  0.00    +0.135 C 
ATOM      3  C   UNL     1      -1.403  -0.557   0.139  0.00  0.00    +0.251 C 
ATOM      4  O   UNL     1      -2.332  -0.392  -0.621  0.00  0.00    -0.272 OA
ATOM      5  N   UNL     1      -1.403  -1.272   1.282  0.00  0.00    -0.220 N 
ATOM      6  C   UNL     1      -0.206  -1.247   1.879  0.00  0.00    +0.310 C 
ATOM      7  O   UNL     1       0.040  -1.819   2.924  0.00  0.00    -0.252 OA
ATOM      8  N   UNL     1       0.695  -0.520   1.195  0.00  0.00    -0.281 N 
ATOM      9  H   UNL     1       1.621  -0.365   1.440  0.00  0.00    +0.152 HD
ENDROOT
BRANCH   2  10
ATOM     10  C   UNL     1       0.657  -0.517  -1.255  0.00  0.00    -0.015 A 
ATOM     11  C   UNL     1      -0.108  -0.772  -2.378  0.00  0.00    +0.007 A 
ATOM     12  C   UNL     1       0.492  -1.242  -3.530  0.00  0.00    +0.020 A 
ATOM     13  C   UNL     1       1.859  -1.458  -3.560  0.00  0.00    +0.041 A 
ATOM     14  C   UNL     1       2.623  -1.203  -2.436  0.00  0.00    +0.020 A 
ATOM     15  C   UNL     1       2.023  -0.727  -1.286  0.00  0.00    +0.007 A 
ATOM     16 CL   UNL     1       2.613  -2.049  -5.008  0.00  0.00    -0.084 Cl
ENDBRANCH   2  10
BRANCH   5  17
ATOM     17  C   UNL     1      -2.569  -1.986   1.805  0.00  0.00    +0.153 C 
BRANCH  17  18
ATOM     18  C   UNL     1      -2.585  -3.391   1.260  0.00  0.00    -0.026 A 
ATOM     19  C   UNL     1      -3.234  -3.663   0.070  0.00  0.00    +0.005 A 
ATOM     20  C   UNL     1      -3.250  -4.951  -0.433  0.00  0.00    +0.004 A 
ATOM     21  C   UNL     1      -2.617  -5.969   0.252  0.00  0.00    +0.045 A 
ATOM     22  C   UNL     1      -1.964  -5.699   1.446  0.00  0.00    +0.122 A 
ATOM     23  C   UNL     1      -1.945  -4.405   1.946  0.00  0.00    +0.050 A 
BRANCH  22  24
ATOM     24  O   UNL     1      -1.340  -6.699   2.122  0.00  0.00    -0.483 OA
BRANCH  24  25
ATOM     25  C   UNL     1      -1.396  -8.006   1.546  0.00  0.00    +0.324 C 
BRANCH  25  26
ATOM     26  C   UNL     1      -0.655  -8.977   2.428  0.00  0.00    +0.248 C 
ATOM     27  O   UNL     1      -0.131  -8.588   3.451  0.00  0.00    -0.272 OA
ATOM     28  N   UNL     1      -0.576 -10.277   2.082  0.00  0.00    -0.327 N 
ATOM     29  H   UNL     1      -0.995 -10.587   1.264  0.00  0.00    +0.145 HD
ATOM     30  H   UNL     1      -0.099 -10.902   2.650  0.00  0.00    +0.145 HD
ENDBRANCH  25  26
ENDBRANCH  24  25
ENDBRANCH  22  24
ENDBRANCH  17  18
ENDBRANCH   5  17
TORSDOF 6
