REMARK  Name = ZINC32560873
REMARK  10 active torsions:
REMARK  status: ('A' for Active; 'I' for Inactive)
REMARK    1  A    between atoms: C_1  and  C_2
REMARK    2  A    between atoms: C_5  and  N_9
REMARK    3  A    between atoms: C_6  and  C_8
REMARK    4  A    between atoms: C_22  and  S_23
REMARK    5  A    between atoms: S_23  and  C_24
REMARK    6  A    between atoms: C_24  and  C_26
REMARK    7  A    between atoms: C_24  and  C_27
REMARK    8  A    between atoms: N_29  and  C_30
REMARK    9  A    between atoms: C_30  and  C_31
REMARK   10  A    between atoms: C_30  and  C_32
REMARK                            x       y       z     vdW  Elec       q    Type
REMARK                         _______ _______ _______ _____ _____    ______ ____
ROOT
ATOM      1  N   UNL     1       2.116  -7.832   3.152  0.00  0.00    -0.245 N 
ATOM      2  C   UNL     1       2.837  -7.788   4.291  0.00  0.00    +0.268 A 
ATOM      3  O   UNL     1       3.126  -8.814   4.878  0.00  0.00    -0.267 OA
ATOM      4  C   UNL     1       3.271  -6.480   4.812  0.00  0.00    +0.064 A 
ATOM      5  C   UNL     1       4.017  -6.380   5.985  0.00  0.00    +0.015 A 
ATOM      6  C   UNL     1       4.405  -5.138   6.443  0.00  0.00    +0.001 A 
ATOM      7  C   UNL     1       4.056  -3.994   5.743  0.00  0.00    +0.002 A 
ATOM      8  C   UNL     1       3.316  -4.079   4.580  0.00  0.00    +0.027 A 
ATOM      9  C   UNL     1       2.917  -5.319   4.105  0.00  0.00    +0.064 A 
ATOM     10  N   UNL     1       2.173  -5.439   2.938  0.00  0.00    -0.255 N 
ATOM     11  C   UNL     1       1.782  -6.668   2.475  0.00  0.00    +0.245 A 
ATOM     12  N   UNL     1       1.104  -6.461   1.372  0.00  0.00    -0.109 NA
ATOM     13  N   UNL     1       1.040  -5.203   1.121  0.00  0.00    -0.120 NA
ATOM     14  C   UNL     1       1.683  -4.526   2.043  0.00  0.00    +0.198 A 
ENDROOT
BRANCH   1  19
ATOM     15  C   UNL     1       0.423 -12.843   1.099  0.00  0.00    +0.044 C 
ATOM     16  C   UNL     1       0.872 -11.512   1.644  0.00  0.00    -0.050 A 
ATOM     17  C   UNL     1       2.090 -10.983   1.257  0.00  0.00    +0.005 A 
ATOM     18  C   UNL     1       2.503  -9.761   1.750  0.00  0.00    +0.027 A 
ATOM     19  C   UNL     1       1.698  -9.068   2.646  0.00  0.00    +0.056 A 
ATOM     20  C   UNL     1       0.476  -9.602   3.033  0.00  0.00    -0.026 A 
ATOM     21  C   UNL     1       0.067 -10.822   2.531  0.00  0.00    +0.008 A 
ATOM     22  C   UNL     1      -0.403  -8.850   3.999  0.00  0.00    +0.046 C 
ENDBRANCH   1  19
BRANCH  14  23
ATOM     23  S   UNL     1       1.871  -2.776   2.120  0.00  0.00    -0.073 S 
BRANCH  23  24
ATOM     24  C   UNL     1       0.994  -2.175   0.650  0.00  0.00    +0.137 C 
ATOM     25  C   UNL     1       1.710  -2.669  -0.608  0.00  0.00    +0.029 C 
BRANCH  24  26
ATOM     26  C   UNL     1       0.974  -0.668   0.659  0.00  0.00    +0.226 C 
ATOM     27  O   UNL     1       1.831  -0.054   1.256  0.00  0.00    -0.275 OA
ATOM     28  N   UNL     1       0.002  -0.004   0.002  0.00  0.00    -0.312 N 
ATOM     29  H   UNL     1      -0.776  -0.562  -0.540  0.00  0.00    +0.149 HD
BRANCH  28  30
ATOM     30  C   UNL     1      -0.018   1.461   0.010  0.00  0.00    +0.067 C 
ATOM     31  C   UNL     1      -0.758   1.968  -1.230  0.00  0.00    +0.027 C 
ATOM     32  C   UNL     1      -0.734   1.954   1.269  0.00  0.00    +0.027 C 
ENDBRANCH  28  30
ENDBRANCH  24  26
ENDBRANCH  23  24
ENDBRANCH  14  23
TORSDOF 5
