REMARK  Name = ZINC35478715
REMARK  5 active torsions:
REMARK  status: ('A' for Active; 'I' for Inactive)
REMARK    1  A    between atoms: C_1  and  C_2
REMARK    2  A    between atoms: C_5  and  C_8
REMARK    3  A    between atoms: C_11  and  N_16
REMARK    4  A    between atoms: C_13  and  C_15
REMARK    5  A    between atoms: N_16  and  C_17
REMARK                            x       y       z     vdW  Elec       q    Type
REMARK                         _______ _______ _______ _____ _____    ______ ____
ROOT
ATOM      1  C   UNL     1       0.059  -4.255  -0.021  0.00  0.00    +0.139 A 
ATOM      2  C   UNL     1       0.750  -5.124   0.944  0.00  0.00    +0.143 A 
ATOM      3  C   UNL     1       0.492  -6.441   0.544  0.00  0.00    +0.225 A 
ATOM      4  C   UNL     1       1.041  -7.483   1.304  0.00  0.00    +0.169 A 
ATOM      5  N   UNL     1       1.779  -7.175   2.364  0.00  0.00    -0.214 NA
ATOM      6  C   UNL     1       1.997  -5.918   2.705  0.00  0.00    +0.129 A 
ATOM      7  N   UNL     1       1.502  -4.909   2.023  0.00  0.00    -0.227 NA
ATOM      8  C   UNL     1       2.842  -5.630   3.919  0.00  0.00    +0.088 C 
ATOM      9  O   UNL     1      -0.280  -6.385  -0.557  0.00  0.00    -0.349 OA
ATOM     10  N   UNL     1      -0.538  -5.034  -0.884  0.00  0.00    -0.075 NA
ENDROOT
BRANCH   1  15
ATOM     11  C   UNL     1      -0.018   1.503   0.010  0.00  0.00    +0.044 C 
ATOM     12  C   UNL     1       0.002  -0.004   0.002  0.00  0.00    -0.050 A 
ATOM     13  C   UNL     1       0.006  -0.686  -1.201  0.00  0.00    +0.004 A 
ATOM     14  C   UNL     1       0.024  -2.066  -1.215  0.00  0.00    +0.010 A 
ATOM     15  C   UNL     1       0.040  -2.772  -0.013  0.00  0.00    +0.006 A 
ATOM     16  C   UNL     1       0.036  -2.079   1.196  0.00  0.00    +0.010 A 
ATOM     17  C   UNL     1       0.023  -0.699   1.198  0.00  0.00    +0.004 A 
ENDBRANCH   1  15
BRANCH   4  18
ATOM     18  N   UNL     1       0.819  -8.805   0.956  0.00  0.00    -0.319 N 
ATOM     19  H   UNL     1       0.279  -9.018   0.179  0.00  0.00    +0.148 HD
BRANCH  18  20
ATOM     20  C   UNL     1       1.401  -9.882   1.761  0.00  0.00    +0.102 C 
ATOM     21  C   UNL     1       1.571 -11.126   0.891  0.00  0.00    +0.027 C 
ATOM     22  C   UNL     1       1.973 -12.297   1.795  0.00  0.00    +0.007 C 
ATOM     23  C   UNL     1       0.770 -12.672   2.659  0.00  0.00    +0.035 C 
ATOM     24  C   UNL     1       0.210 -11.454   3.345  0.00  0.00    -0.042 A 
ATOM     25  C   UNL     1       0.496 -10.173   2.929  0.00  0.00    -0.024 A 
ATOM     26  C   UNL     1      -0.059  -9.092   3.602  0.00  0.00    +0.006 A 
ATOM     27  C   UNL     1      -0.892  -9.293   4.683  0.00  0.00    +0.000 A 
ATOM     28  C   UNL     1      -1.177 -10.579   5.102  0.00  0.00    +0.000 A 
ATOM     29  C   UNL     1      -0.627 -11.653   4.435  0.00  0.00    +0.004 A 
ENDBRANCH  18  20
ENDBRANCH   4  18
TORSDOF 3
