REMARK  Name = ZINC20911871
REMARK  13 active torsions:
REMARK  status: ('A' for Active; 'I' for Inactive)
REMARK    1  A    between atoms: C_1  and  C_2
REMARK    2  A    between atoms: C_3  and  C_11
REMARK    3  A    between atoms: C_4  and  C_10
REMARK    4  A    between atoms: N_5  and  C_7
REMARK    5  A    between atoms: C_7  and  C_8
REMARK    6  A    between atoms: C_7  and  C_9
REMARK    7  A    between atoms: N_12  and  N_13
REMARK    8  A    between atoms: C_17  and  S_20
REMARK    9  A    between atoms: N_18  and  N_19
REMARK   10  A    between atoms: S_20  and  C_21
REMARK   11  A    between atoms: C_21  and  C_22
REMARK   12  A    between atoms: C_22  and  C_23
REMARK   13  A    between atoms: N_25  and  C_26
REMARK                            x       y       z     vdW  Elec       q    Type
REMARK                         _______ _______ _______ _____ _____    ______ ____
ROOT
ATOM      1  N   UNL     1      -1.147   2.165   0.070  0.00  0.00    -0.204 N 
ATOM      2  C   UNL     1      -0.014   1.365   0.052  0.00  0.00    +0.254 A 
ATOM      3  N   UNL     1       1.227   1.786   0.034  0.00  0.00    -0.109 NA
ATOM      4  N   UNL     1       2.065   0.664   0.014  0.00  0.00    -0.119 NA
ATOM      5  C   UNL     1       1.308  -0.407   0.022  0.00  0.00    +0.210 A 
ATOM      6  N   UNL     1       0.004  -0.002   0.046  0.00  0.00    -0.211 N 
ATOM      7  H   UNL     1      -2.146   1.704   0.080  0.00  0.00    +0.177 HD
ENDROOT
BRANCH   6   8
ATOM      8  N   UNL     1      -1.090  -0.820   0.061  0.00  0.00    -0.294 N 
ATOM      9  H   UNL     1      -0.961  -1.912   0.053  0.00  0.00    +0.163 HD
ATOM     10  H   UNL     1      -2.101  -0.386   0.080  0.00  0.00    +0.163 HD
ENDBRANCH   6   8
BRANCH   1  12
ATOM     11  C   UNL     1      -2.079   4.309   0.091  0.00  0.00    +0.141 C 
ATOM     12  N   UNL     1      -1.019   3.560   0.075  0.00  0.00    -0.187 NA
BRANCH  11  15
ATOM     13  C   UNL     1       0.652   5.921   0.066  0.00  0.00    +0.068 C 
ATOM     14  C   UNL     1      -0.736   6.508   0.085  0.00  0.00    +0.069 A 
ATOM     15  C   UNL     1      -1.944   5.779   0.096  0.00  0.00    +0.038 A 
ATOM     16  C   UNL     1      -2.974   6.694   0.107  0.00  0.00    +0.045 A 
ATOM     17  N   UNL     1      -2.421   7.924   0.111  0.00  0.00    -0.265 N 
ATOM     18  N   UNL     1      -1.029   7.781   0.093  0.00  0.00    -0.175 NA
ATOM     19  C   UNL     1      -4.448   6.378   0.117  0.00  0.00    +0.066 C 
BRANCH  17  20
ATOM     20  C   UNL     1      -3.153   9.193   0.125  0.00  0.00    +0.101 C 
ATOM     21  C   UNL     1      -2.767   9.990   1.373  0.00  0.00    +0.032 C 
ATOM     22  C   UNL     1      -2.799  10.000  -1.125  0.00  0.00    +0.032 C 
ENDBRANCH  17  20
ENDBRANCH  11  15
ENDBRANCH   1  12
BRANCH   5  23
ATOM     23  S   UNL     1       1.875  -2.075   0.005  0.00  0.00    -0.084 S 
BRANCH  23  24
ATOM     24  C   UNL     1       3.683  -1.925  -0.025  0.00  0.00    +0.086 C 
BRANCH  24  25
ATOM     25  C   UNL     1       4.310  -3.320  -0.042  0.00  0.00    +0.107 C 
BRANCH  25  26
ATOM     26  C   UNL     1       5.812  -3.195  -0.066  0.00  0.00    +0.218 C 
ATOM     27  O   UNL     1       6.329  -2.098  -0.070  0.00  0.00    -0.275 OA
ATOM     28  N   UNL     1       6.580  -4.302  -0.084  0.00  0.00    -0.285 N 
ATOM     29  H   UNL     1       6.115  -5.296  -0.005  0.00  0.00    +0.155 HD
BRANCH  28  30
ATOM     30  C   UNL     1       7.967  -4.188  -0.202  0.00  0.00    +0.041 A 
ATOM     31  C   UNL     1       8.630  -3.130   0.383  0.00  0.00    +0.024 A 
ATOM     32  C   UNL     1      10.011  -3.007   0.271  0.00  0.00    +0.002 A 
ATOM     33  C   UNL     1      10.745  -3.925  -0.416  0.00  0.00    +0.008 A 
ATOM     34  C   UNL     1      10.108  -5.019  -1.026  0.00  0.00    -0.016 A 
ATOM     35  C   UNL     1       8.703  -5.157  -0.915  0.00  0.00    +0.003 A 
ATOM     36  C   UNL     1       8.067  -6.248  -1.529  0.00  0.00    +0.010 A 
ATOM     37  C   UNL     1       8.808  -7.162  -2.215  0.00  0.00    +0.001 A 
ATOM     38  C   UNL     1      10.191  -7.029  -2.321  0.00  0.00    +0.001 A 
ATOM     39  C   UNL     1      10.841  -5.982  -1.742  0.00  0.00    +0.008 A 
ENDBRANCH  28  30
ENDBRANCH  25  26
ENDBRANCH  24  25
ENDBRANCH  23  24
ENDBRANCH   5  23
TORSDOF 9
