REMARK  Name = ZINC39195895
REMARK  5 active torsions:
REMARK  status: ('A' for Active; 'I' for Inactive)
REMARK    1  A    between atoms: C_1  and  C_2
REMARK    2  A    between atoms: C_2  and  C_3
REMARK    3  A    between atoms: C_3  and  C_4
REMARK    4  A    between atoms: C_16  and  C_18
REMARK    5  A    between atoms: C_21  and  C_23
REMARK                            x       y       z     vdW  Elec       q    Type
REMARK                         _______ _______ _______ _____ _____    ______ ____
ROOT
ATOM      1  C   UNL     1       0.739  -2.027  -1.265  0.00  0.00    +0.064 C 
ATOM      2  C   UNL     1      -0.637  -2.561  -1.644  0.00  0.00    +0.134 C 
ATOM      3  N   UNL     1      -0.718  -2.282  -3.105  0.00  0.00    -0.294 N 
ATOM      4  C   UNL     1       0.664  -2.198  -3.642  0.00  0.00    +0.123 C 
ATOM      5  C   UNL     1       1.575  -2.539  -2.477  0.00  0.00    +0.117 C 
ATOM      6  C   UNL     1       2.908  -1.881  -2.364  0.00  0.00    +0.227 C 
ATOM      7  O   UNL     1       3.478  -1.394  -3.317  0.00  0.00    -0.275 OA
ATOM      8  N   UNL     1       3.437  -1.869  -1.106  0.00  0.00    -0.240 N 
ATOM      9  C   UNL     1       2.757  -2.369  -0.056  0.00  0.00    +0.306 C 
ATOM     10  O   UNL     1       3.369  -2.695   0.942  0.00  0.00    -0.252 OA
ATOM     11  N   UNL     1       1.406  -2.515  -0.079  0.00  0.00    -0.291 N 
ATOM     12  C   UNL     1      -1.852  -2.132  -3.818  0.00  0.00    +0.253 C 
ATOM     13  O   UNL     1      -2.933  -2.224  -3.268  0.00  0.00    -0.269 OA
ATOM     14  H   UNL     1       4.320  -1.493  -0.965  0.00  0.00    +0.159 HD
ATOM     15  H   UNL     1       0.922  -2.928   0.653  0.00  0.00    +0.151 HD
ENDROOT
BRANCH  12  16
ATOM     16  C   UNL     1      -1.782  -1.859  -5.257  0.00  0.00    +0.074 A 
ATOM     17  C   UNL     1      -2.816  -1.669  -6.161  0.00  0.00    +0.021 A 
ATOM     18  C   UNL     1      -2.436  -1.428  -7.460  0.00  0.00    +0.011 A 
ATOM     19  C   UNL     1      -1.115  -1.393  -7.765  0.00  0.00    -0.013 A 
ATOM     20  S   UNL     1      -0.347  -1.678  -6.298  0.00  0.00    -0.089 S 
ATOM     21  C   UNL     1      -0.481  -1.148  -9.110  0.00  0.00    +0.051 C 
ENDBRANCH  12  16
BRANCH   1  22
ATOM     22  C   UNL     1       0.718  -0.497  -1.257  0.00  0.00    +0.028 C 
BRANCH  22  24
ATOM     23  C   UNL     1      -0.019   1.526   0.010  0.00  0.00    +0.004 C 
ATOM     24  C   UNL     1       0.002  -0.004   0.002  0.00  0.00    -0.001 C 
ENDBRANCH  22  24
ENDBRANCH   1  22
TORSDOF 3
