REMARK  Name = ZINC13424723
REMARK  8 active torsions:
REMARK  status: ('A' for Active; 'I' for Inactive)
REMARK    1  A    between atoms: C_4  and  C_7
REMARK    2  A    between atoms: C_13  and  O_18
REMARK    3  A    between atoms: O_18  and  C_19
REMARK    4  A    between atoms: C_21  and  O_34
REMARK    5  A    between atoms: C_23  and  O_33
REMARK    6  A    between atoms: C_25  and  O_32
REMARK    7  A    between atoms: C_27  and  C_30
REMARK    8  A    between atoms: C_30  and  O_31
REMARK                            x       y       z     vdW  Elec       q    Type
REMARK                         _______ _______ _______ _____ _____    ______ ____
ROOT
ATOM      1  C   UNL     1      -3.583   1.702   0.044  0.00  0.00    +0.139 A 
ATOM      2  C   UNL     1      -3.698   3.058   0.052  0.00  0.00    +0.098 A 
ATOM      3  C   UNL     1      -2.531   3.857   0.045  0.00  0.00    +0.193 A 
ATOM      4  O   UNL     1      -2.596   5.075   0.051  0.00  0.00    -0.287 OA
ATOM      5  C   UNL     1      -1.230   3.158   0.030  0.00  0.00    +0.067 A 
ATOM      6  C   UNL     1      -0.029   3.864   0.022  0.00  0.00    +0.061 A 
ATOM      7  C   UNL     1       1.168   3.173   0.007  0.00  0.00    +0.125 A 
ATOM      8  C   UNL     1       1.171   1.781   0.000  0.00  0.00    +0.049 A 
ATOM      9  C   UNL     1      -0.013   1.076   0.008  0.00  0.00    +0.050 A 
ATOM     10  C   UNL     1      -1.226   1.754   0.017  0.00  0.00    +0.139 A 
ATOM     11  O   UNL     1      -2.395   1.079   0.030  0.00  0.00    -0.455 OA
ENDROOT
BRANCH   1  15
ATOM     12  C   UNL     1      -7.119  -0.648   0.066  0.00  0.00    +0.000 A 
ATOM     13  C   UNL     1      -5.881  -1.266   0.051  0.00  0.00    +0.001 A 
ATOM     14  C   UNL     1      -4.728  -0.509   0.045  0.00  0.00    +0.011 A 
ATOM     15  C   UNL     1      -4.812   0.885   0.052  0.00  0.00    +0.017 A 
ATOM     16  C   UNL     1      -6.065   1.503   0.072  0.00  0.00    +0.011 A 
ATOM     17  C   UNL     1      -7.210   0.733   0.073  0.00  0.00    +0.001 A 
ENDBRANCH   1  15
BRANCH   7  18
ATOM     18  O   UNL     1       2.344   3.854  -0.001  0.00  0.00    -0.461 OA
BRANCH  18  19
ATOM     19  C   UNL     1       3.544   3.077  -0.017  0.00  0.00    +0.339 C 
ATOM     20  C   UNL     1       4.753   4.007  -0.150  0.00  0.00    +0.214 C 
ATOM     21  C   UNL     1       6.036   3.172  -0.105  0.00  0.00    +0.180 C 
ATOM     22  C   UNL     1       6.063   2.366   1.197  0.00  0.00    +0.177 C 
ATOM     23  C   UNL     1       4.803   1.500   1.278  0.00  0.00    +0.179 C 
ATOM     24  O   UNL     1       3.646   2.335   1.200  0.00  0.00    -0.331 OA
BRANCH  22  25
ATOM     25  O   UNL     1       7.221   1.529   1.217  0.00  0.00    -0.386 OA
ATOM     26  H   UNL     1       8.057   2.012   1.163  0.00  0.00    +0.210 HD
ENDBRANCH  22  25
BRANCH  21  27
ATOM     27  O   UNL     1       6.065   2.279  -1.221  0.00  0.00    -0.386 OA
ATOM     28  H   UNL     1       6.043   2.723  -2.080  0.00  0.00    +0.210 HD
ENDBRANCH  21  27
BRANCH  20  29
ATOM     29  O   UNL     1       4.754   4.945   0.928  0.00  0.00    -0.383 OA
ATOM     30  H   UNL     1       3.966   5.505   0.963  0.00  0.00    +0.210 HD
ENDBRANCH  20  29
BRANCH  23  31
ATOM     31  C   UNL     1       4.793   0.736   2.604  0.00  0.00    +0.190 C 
BRANCH  31  32
ATOM     32  O   UNL     1       3.680  -0.159   2.630  0.00  0.00    -0.392 OA
ATOM     33  H   UNL     1       3.611  -0.677   3.443  0.00  0.00    +0.210 HD
ENDBRANCH  31  32
ENDBRANCH  23  31
ENDBRANCH  18  19
ENDBRANCH   7  18
TORSDOF 8
