REMARK  Name = ZINC40981791
REMARK  10 active torsions:
REMARK  status: ('A' for Active; 'I' for Inactive)
REMARK    1  A    between atoms: C_1  and  C_2
REMARK    2  A    between atoms: C_2  and  C_3
REMARK    3  A    between atoms: C_3  and  C_4
REMARK    4  A    between atoms: C_4  and  O_5
REMARK    5  A    between atoms: O_5  and  C_6
REMARK    6  A    between atoms: C_9  and  C_12
REMARK    7  A    between atoms: C_25  and  S_27
REMARK    8  A    between atoms: S_27  and  C_28
REMARK    9  A    between atoms: C_28  and  C_29
REMARK   10  A    between atoms: C_29  and  C_30
REMARK                            x       y       z     vdW  Elec       q    Type
REMARK                         _______ _______ _______ _____ _____    ______ ____
ROOT
ATOM      1  C   UNL     1       1.846  -8.063  -3.114  0.00  0.00    +0.175 C 
ATOM      2  C   UNL     1       3.308  -8.448  -3.170  0.00  0.00    +0.041 C 
ATOM      3  C   UNL     1       3.912  -8.811  -4.322  0.00  0.00    +0.020 C 
ATOM      4  C   UNL     1       5.373  -9.192  -4.346  0.00  0.00    +0.052 C 
ATOM      5  C   UNL     1       6.125  -8.421  -3.259  0.00  0.00    +0.014 C 
ATOM      6  C   UNL     1       5.488  -8.752  -1.905  0.00  0.00    +0.080 C 
ATOM      7  C   UNL     1       4.024  -8.414  -1.960  0.00  0.00    +0.163 C 
ATOM      8  O   UNL     1       3.447  -8.104  -0.936  0.00  0.00    -0.292 OA
ATOM      9  N   UNL     1       3.229  -8.855  -5.514  0.00  0.00    -0.287 N 
ATOM     10  C   UNL     1       1.845  -8.820  -5.473  0.00  0.00    +0.219 A 
ATOM     11  N   UNL     1       1.182  -8.454  -4.351  0.00  0.00    -0.220 N 
ATOM     12  N   UNL     1      -0.177  -8.537  -4.651  0.00  0.00    -0.141 NA
ATOM     13  C   UNL     1      -0.266  -8.930  -5.904  0.00  0.00    +0.210 A 
ATOM     14  N   UNL     1       0.964  -9.099  -6.395  0.00  0.00    -0.187 NA
ATOM     15  H   UNL     1       3.703  -8.909  -6.359  0.00  0.00    +0.155 HD
ENDROOT
BRANCH   1  19
ATOM     16  C   UNL     1       1.514  -3.833  -2.603  0.00  0.00    +0.121 A 
ATOM     17  C   UNL     1       0.980  -4.692  -1.654  0.00  0.00    +0.046 A 
ATOM     18  C   UNL     1       1.088  -6.059  -1.821  0.00  0.00    +0.009 A 
ATOM     19  C   UNL     1       1.729  -6.571  -2.934  0.00  0.00    -0.018 A 
ATOM     20  C   UNL     1       2.262  -5.718  -3.882  0.00  0.00    +0.009 A 
ATOM     21  C   UNL     1       2.151  -4.350  -3.722  0.00  0.00    +0.046 A 
BRANCH  16  22
ATOM     22  O   UNL     1       1.408  -2.488  -2.441  0.00  0.00    -0.492 OA
BRANCH  22  23
ATOM     23  C   UNL     1       0.739  -2.027  -1.265  0.00  0.00    +0.229 C 
BRANCH  23  24
ATOM     24  C   UNL     1       0.718  -0.497  -1.257  0.00  0.00    +0.041 C 
BRANCH  24  26
ATOM     25  C   UNL     1      -0.019   1.526   0.010  0.00  0.00    +0.004 C 
ATOM     26  C   UNL     1       0.002  -0.004   0.002  0.00  0.00    -0.000 C 
ENDBRANCH  24  26
ENDBRANCH  23  24
ENDBRANCH  22  23
ENDBRANCH  16  22
ENDBRANCH   1  19
BRANCH  13  27
ATOM     27  S   UNL     1      -1.766  -9.193  -6.790  0.00  0.00    -0.084 S 
BRANCH  27  28
ATOM     28  C   UNL     1      -1.216  -9.717  -8.437  0.00  0.00    +0.077 C 
BRANCH  28  29
ATOM     29  C   UNL     1      -2.436  -9.982  -9.322  0.00  0.00    +0.008 C 
ATOM     30  C   UNL     1      -1.972 -10.424 -10.711  0.00  0.00    +0.004 C 
ENDBRANCH  28  29
ENDBRANCH  27  28
ENDBRANCH  13  27
TORSDOF 8
