REMARK  Name = ZINC08132296
REMARK  4 active torsions:
REMARK  status: ('A' for Active; 'I' for Inactive)
REMARK    1  A    between atoms: C_1  and  N_2
REMARK    2  A    between atoms: C_3  and  N_19
REMARK    3  A    between atoms: C_4  and  C_14
REMARK    4  A    between atoms: N_7  and  C_8
REMARK                            x       y       z     vdW  Elec       q    Type
REMARK                         _______ _______ _______ _____ _____    ______ ____
ROOT
ATOM      1  C   UNL     1      -3.134   5.122  -0.679  0.00  0.00    +0.173 C 
ATOM      2  N   UNL     1      -2.623   3.804  -0.292  0.00  0.00    -0.266 N 
ATOM      3  C   UNL     1      -1.307   3.470  -0.196  0.00  0.00    +0.125 A 
ATOM      4  C   UNL     1      -1.230   2.129   0.199  0.00  0.00    +0.101 A 
ATOM      5  C   UNL     1      -2.611   1.658   0.335  0.00  0.00    +0.283 A 
ATOM      6  O   UNL     1      -2.965   0.539   0.659  0.00  0.00    -0.265 OA
ATOM      7  N   UNL     1      -3.413   2.699   0.036  0.00  0.00    -0.215 N 
ENDROOT
BRANCH   7   8
ATOM      8  C   UNL     1      -4.812   2.675   0.046  0.00  0.00    +0.067 A 
ATOM      9  C   UNL     1      -5.524   3.180  -1.033  0.00  0.00    +0.028 A 
ATOM     10  C   UNL     1      -6.905   3.149  -1.023  0.00  0.00    +0.002 A 
ATOM     11  C   UNL     1      -7.578   2.626   0.066  0.00  0.00    +0.000 A 
ATOM     12  C   UNL     1      -6.872   2.127   1.145  0.00  0.00    +0.002 A 
ATOM     13  C   UNL     1      -5.491   2.150   1.138  0.00  0.00    +0.028 A 
ENDBRANCH   7   8
BRANCH   4  14
ATOM     14  C   UNL     1      -0.013   1.351   0.426  0.00  0.00    +0.052 C 
ATOM     15  N   UNL     1       0.007   0.110   0.792  0.00  0.00    -0.287 NA
ATOM     16  C   UNL     1       1.374  -0.405   0.931  0.00  0.00    +0.142 C 
ATOM     17  C   UNL     1       2.276   0.849   0.992  0.00  0.00    +0.029 C 
ATOM     18  C   UNL     1       1.392   1.887   0.258  0.00  0.00    +0.057 C 
ENDBRANCH   4  14
BRANCH   3  19
ATOM     19  N   UNL     1      -0.249   4.295  -0.441  0.00  0.00    -0.343 N 
ATOM     20  H   UNL     1       0.657   3.964  -0.345  0.00  0.00    +0.144 HD
ATOM     21  H   UNL     1      -0.404   5.214  -0.712  0.00  0.00    +0.144 HD
ENDBRANCH   3  19
TORSDOF 3
