REMARK  Name = ZINC29712273
REMARK  7 active torsions:
REMARK  status: ('A' for Active; 'I' for Inactive)
REMARK    1  A    between atoms: C_1  and  C_2
REMARK    2  A    between atoms: C_5  and  C_7
REMARK    3  A    between atoms: C_9  and  C_12
REMARK    4  A    between atoms: C_12  and  N_13
REMARK    5  A    between atoms: N_16  and  C_19
REMARK    6  A    between atoms: C_19  and  C_20
REMARK    7  A    between atoms: C_28  and  N_30
REMARK                            x       y       z     vdW  Elec       q    Type
REMARK                         _______ _______ _______ _____ _____    ______ ____
ROOT
ATOM      1  N   UNL     1      -4.644  -3.030  -3.544  0.00  0.00    +0.385 N 
ATOM      2  C   UNL     1      -4.292  -4.290  -2.873  0.00  0.00    -0.063 C 
ATOM      3  C   UNL     1      -3.924  -4.003  -1.415  0.00  0.00    +0.066 C 
ATOM      4  N   UNL     1      -2.800  -3.056  -1.374  0.00  0.00    -0.299 NA
ATOM      5  C   UNL     1      -3.152  -1.796  -2.045  0.00  0.00    +0.066 C 
ATOM      6  C   UNL     1      -3.521  -2.084  -3.502  0.00  0.00    -0.063 C 
ATOM      7  H   UNL     1      -5.488  -2.580  -3.001  0.00  0.00    -0.081 HD
ENDROOT
BRANCH   1   8
ATOM      8  C   UNL     1      -5.077  -3.273  -4.926  0.00  0.00    -0.022 C 
BRANCH   8  11
ATOM      9  C   UNL     1      -6.423  -0.093  -6.200  0.00  0.00    +0.143 A 
ATOM     10  N   UNL     1      -6.298  -1.257  -5.571  0.00  0.00    -0.243 NA
ATOM     11  C   UNL     1      -5.193  -1.959  -5.655  0.00  0.00    +0.033 A 
ATOM     12  C   UNL     1      -4.155  -1.503  -6.404  0.00  0.00    +0.068 A 
ATOM     13  S   UNL     1      -4.834   0.037  -7.008  0.00  0.00    -0.072 S 
BRANCH   9  18
ATOM     14  C   UNL     1     -10.937   1.899  -5.309  0.00  0.00    +0.086 C 
ATOM     15  C   UNL     1      -9.539   1.713  -5.841  0.00  0.00    +0.103 A 
ATOM     16  C   UNL     1      -8.887   2.571  -6.652  0.00  0.00    +0.045 A 
ATOM     17  C   UNL     1      -7.618   2.016  -6.905  0.00  0.00    +0.052 A 
ATOM     18  C   UNL     1      -7.564   0.835  -6.228  0.00  0.00    +0.160 A 
ATOM     19  O   UNL     1      -8.740   0.663  -5.592  0.00  0.00    -0.458 OA
ENDBRANCH   9  18
ENDBRANCH   8  11
ENDBRANCH   1   8
BRANCH   4  20
ATOM     20  C   UNL     1      -2.367  -2.813   0.008  0.00  0.00    +0.160 C 
BRANCH  20  21
ATOM     21  C   UNL     1      -1.073  -2.041   0.001  0.00  0.00    +0.146 A 
ATOM     22  N   UNL     1      -1.126  -0.730   0.008  0.00  0.00    -0.231 NA
ATOM     23  C   UNL     1       0.002  -0.004   0.002  0.00  0.00    +0.076 A 
ATOM     24  C   UNL     1      -0.017   1.397   0.010  0.00  0.00    +0.028 A 
ATOM     25  C   UNL     1       1.159   2.086   0.002  0.00  0.00    +0.002 A 
ATOM     26  C   UNL     1       2.381   1.420  -0.013  0.00  0.00    +0.001 A 
ATOM     27  C   UNL     1       2.436   0.057  -0.021  0.00  0.00    +0.013 A 
ATOM     28  C   UNL     1       1.246  -0.680  -0.013  0.00  0.00    +0.040 A 
ATOM     29  C   UNL     1       1.238  -2.096  -0.022  0.00  0.00    +0.127 A 
ATOM     30  N   UNL     1       0.065  -2.716  -0.014  0.00  0.00    -0.216 NA
BRANCH  29  31
ATOM     31  N   UNL     1       2.417  -2.811  -0.037  0.00  0.00    -0.343 N 
ATOM     32  H   UNL     1       2.393  -3.911  -0.043  0.00  0.00    +0.144 HD
ATOM     33  H   UNL     1       3.381  -2.282  -0.042  0.00  0.00    +0.144 HD
ENDBRANCH  29  31
ENDBRANCH  20  21
ENDBRANCH   4  20
TORSDOF 6
