REMARK  Name = ZINC63386827
REMARK  6 active torsions:
REMARK  status: ('A' for Active; 'I' for Inactive)
REMARK    1  A    between atoms: C_7  and  C_10
REMARK    2  A    between atoms: C_10  and  C_11
REMARK    3  A    between atoms: C_11  and  N_12
REMARK    4  A    between atoms: C_13  and  C_15
REMARK    5  A    between atoms: C_15  and  C_16
REMARK    6  A    between atoms: C_16  and  C_17
REMARK                            x       y       z     vdW  Elec       q    Type
REMARK                         _______ _______ _______ _____ _____    ______ ____
ROOT
ATOM      1  C   UNL     1      -1.752  -6.557  -2.622  0.00  0.00    +0.098 C 
ENDROOT
BRANCH   1   3
ATOM      2  N   UNL     1      -0.458  -4.798  -1.460  0.00  0.00    -0.315 N 
ATOM      3  C   UNL     1      -0.811  -5.380  -2.623  0.00  0.00    +0.213 C 
ATOM      4  O   UNL     1      -0.371  -4.957  -3.671  0.00  0.00    -0.276 OA
ATOM      5  H   UNL     1      -0.810  -5.136  -0.622  0.00  0.00    +0.149 HD
BRANCH   2   6
ATOM      6  C   UNL     1       0.457  -3.653  -1.462  0.00  0.00    +0.108 C 
BRANCH   6   7
ATOM      7  C   UNL     1       0.691  -3.186  -0.024  0.00  0.00    +0.052 C 
BRANCH   7  14
ATOM      8  C   UNL     1      -0.016   1.348   0.009  0.00  0.00    +0.001 A 
ATOM      9  C   UNL     1       1.166   2.101   0.002  0.00  0.00    +0.002 A 
ATOM     10  C   UNL     1       2.391   1.535  -0.013  0.00  0.00    +0.026 A 
ATOM     11  C   UNL     1       2.529   0.120  -0.022  0.00  0.00    +0.043 A 
ATOM     12  N   UNL     1       3.587  -0.654  -0.037  0.00  0.00    -0.380 N 
ATOM     13  C   UNL     1       3.143  -2.053  -0.041  0.00  0.00    +0.144 C 
ATOM     14  C   UNL     1       1.631  -2.008  -0.025  0.00  0.00    -0.040 C 
ATOM     15  C   UNL     1       1.295  -0.698  -0.014  0.00  0.00    -0.001 A 
ATOM     16  C   UNL     1       0.002  -0.004   0.002  0.00  0.00    +0.010 A 
ATOM     17  H   UNL     1       4.509  -0.353  -0.045  0.00  0.00    +0.160 HD
ENDBRANCH   7  14
ENDBRANCH   6   7
ENDBRANCH   2   6
ENDBRANCH   1   3
BRANCH   1  18
ATOM     18  C   UNL     1      -1.986  -7.025  -4.059  0.00  0.00    +0.041 C 
BRANCH  18  19
ATOM     19  C   UNL     1      -2.941  -8.220  -4.058  0.00  0.00    +0.160 C 
ATOM     20  C   UNL     1      -3.082  -8.755  -5.457  0.00  0.00    +0.238 C 
ATOM     21  O   UNL     1      -2.829  -9.922  -5.669  0.00  0.00    -0.273 OA
ATOM     22  N   UNL     1      -3.475  -7.986  -6.468  0.00  0.00    -0.283 N 
ATOM     23  C   UNL     1      -3.750  -6.632  -6.390  0.00  0.00    +0.046 A 
ATOM     24  C   UNL     1      -3.308  -5.827  -7.443  0.00  0.00    +0.024 A 
ATOM     25  C   UNL     1      -3.547  -4.471  -7.440  0.00  0.00    +0.002 A 
ATOM     26  C   UNL     1      -4.233  -3.888  -6.387  0.00  0.00    +0.001 A 
ATOM     27  C   UNL     1      -4.675  -4.662  -5.340  0.00  0.00    +0.015 A 
ATOM     28  C   UNL     1      -4.436  -6.047  -5.327  0.00  0.00    +0.058 A 
ATOM     29  C   UNL     1      -4.928  -6.809  -4.173  0.00  0.00    +0.246 C 
ATOM     30  O   UNL     1      -6.021  -6.521  -3.727  0.00  0.00    -0.270 OA
ATOM     31  N   UNL     1      -4.256  -7.796  -3.577  0.00  0.00    -0.300 N 
ATOM     32  H   UNL     1      -3.577  -8.410  -7.334  0.00  0.00    +0.155 HD
ATOM     33  H   UNL     1      -4.647  -8.244  -2.810  0.00  0.00    +0.150 HD
ENDBRANCH  18  19
ENDBRANCH   1  18
TORSDOF 6
