REMARK  Name = ZINC40373132
REMARK  7 active torsions:
REMARK  status: ('A' for Active; 'I' for Inactive)
REMARK    1  A    between atoms: C_1  and  C_2
REMARK    2  A    between atoms: C_2  and  C_3
REMARK    3  A    between atoms: C_3  and  C_4
REMARK    4  A    between atoms: C_3  and  C_5
REMARK    5  A    between atoms: C_3  and  N_9
REMARK    6  A    between atoms: N_6  and  O_7
REMARK    7  A    between atoms: C_10  and  C_12
REMARK                            x       y       z     vdW  Elec       q    Type
REMARK                         _______ _______ _______ _____ _____    ______ ____
ROOT
ATOM      1  N   UNL     1       0.081   0.085  -2.441  0.00  0.00    -0.299 N 
ATOM      2  C   UNL     1      -1.221  -0.155  -2.692  0.00  0.00    +0.248 C 
ATOM      3  O   UNL     1      -1.867  -0.854  -1.936  0.00  0.00    -0.270 OA
ATOM      4  H   UNL     1       0.597   0.642  -3.044  0.00  0.00    +0.150 HD
ENDROOT
BRANCH   2   5
ATOM      5  C   UNL     1      -1.863   0.431  -3.885  0.00  0.00    +0.072 A 
ATOM      6  C   UNL     1      -1.122   1.231  -4.759  0.00  0.00    +0.017 A 
ATOM      7  C   UNL     1      -1.726   1.776  -5.871  0.00  0.00    +0.021 A 
ATOM      8  C   UNL     1      -3.067   1.533  -6.125  0.00  0.00    +0.044 A 
ATOM      9  C   UNL     1      -3.809   0.743  -5.265  0.00  0.00    +0.059 A 
ATOM     10  C   UNL     1      -3.214   0.185  -4.149  0.00  0.00    +0.137 A 
ATOM     11  F   UNL     1      -3.937  -0.591  -3.312  0.00  0.00    -0.205 F 
ATOM     12 CL   UNL     1      -3.819   2.224  -7.529  0.00  0.00    -0.083 Cl
ENDBRANCH   2   5
BRANCH   1  13
ATOM     13  C   UNL     1       0.718  -0.497  -1.257  0.00  0.00    +0.090 C 
ATOM     14  C   UNL     1       0.630  -2.023  -1.329  0.00  0.00    +0.040 C 
BRANCH  13  15
ATOM     15  C   UNL     1       2.165  -0.079  -1.208  0.00  0.00    +0.155 C 
ATOM     16  N   UNL     1       2.633   0.507  -0.156  0.00  0.00    -0.075 NA
ATOM     17  N   UNL     1       2.989  -0.323  -2.285  0.00  0.00    -0.342 N 
ATOM     18  H   UNL     1       2.638  -0.763  -3.074  0.00  0.00    +0.144 HD
ATOM     19  H   UNL     1       3.920  -0.053  -2.253  0.00  0.00    +0.144 HD
BRANCH  16  20
ATOM     20  O   UNL     1       3.993   0.900  -0.110  0.00  0.00    -0.408 OA
ATOM     21  H   UNL     1       4.250   1.331   0.716  0.00  0.00    +0.328 HD
ENDBRANCH  16  20
ENDBRANCH  13  15
BRANCH  13  23
ATOM     22  C   UNL     1      -0.019   1.526   0.010  0.00  0.00    +0.006 C 
ATOM     23  C   UNL     1       0.002  -0.004   0.002  0.00  0.00    +0.030 C 
ENDBRANCH  13  23
ENDBRANCH   1  13
TORSDOF 5
