REMARK  Name = ZINC39487817
REMARK  14 active torsions:
REMARK  status: ('A' for Active; 'I' for Inactive)
REMARK    1  A    between atoms: C_1  and  C_2
REMARK    2  A    between atoms: C_2  and  O_3
REMARK    3  A    between atoms: O_3  and  N_4
REMARK    4  A    between atoms: C_7  and  C_10
REMARK    5  A    between atoms: C_7  and  C_32
REMARK    6  A    between atoms: C_10  and  N_11
REMARK    7  A    between atoms: N_14  and  S_22
REMARK    8  A    between atoms: C_16  and  C_17
REMARK    9  A    between atoms: C_16  and  C_18
REMARK   10  A    between atoms: C_18  and  C_19
REMARK   11  A    between atoms: C_19  and  C_20
REMARK   12  A    between atoms: C_19  and  C_21
REMARK   13  A    between atoms: S_22  and  O_25
REMARK   14  A    between atoms: O_25  and  C_26
REMARK                            x       y       z     vdW  Elec       q    Type
REMARK                         _______ _______ _______ _____ _____    ______ ____
ROOT
ATOM      1  N   UNL     1       1.828  -2.807   3.324  0.00  0.00    -0.277 N 
ATOM      2  C   UNL     1       0.713  -2.236   3.800  0.00  0.00    +0.327 C 
ATOM      3  O   UNL     1      -0.226  -2.875   4.233  0.00  0.00    -0.251 OA
ATOM      4  N   UNL     1       0.727  -0.897   3.755  0.00  0.00    -0.125 N 
ATOM      5  C   UNL     1       2.003  -0.446   3.179  0.00  0.00    +0.164 C 
ATOM      6  C   UNL     1       2.760  -1.756   2.889  0.00  0.00    +0.054 C 
ATOM      7  C   UNL     1       3.053  -1.885   1.393  0.00  0.00    +0.033 C 
ENDROOT
BRANCH   4   8
ATOM      8  S   UNL     1      -0.498   0.093   4.268  0.00  0.00    +0.213 S 
ATOM      9  O   UNL     1      -0.335   1.328   3.583  0.00  0.00    -0.115 OA
ATOM     10  O   UNL     1      -1.695  -0.669   4.190  0.00  0.00    -0.115 OA
BRANCH   8  11
ATOM     11  O   UNL     1      -0.258   0.378   5.743  0.00  0.00    -0.331 OA
BRANCH  11  12
ATOM     12  C   UNL     1       0.784   1.218   5.982  0.00  0.00    +0.158 A 
ATOM     13  C   UNL     1       2.066   0.709   6.127  0.00  0.00    +0.048 A 
ATOM     14  C   UNL     1       3.124   1.565   6.369  0.00  0.00    +0.004 A 
ATOM     15  C   UNL     1       2.904   2.926   6.468  0.00  0.00    +0.000 A 
ATOM     16  C   UNL     1       1.627   3.436   6.324  0.00  0.00    +0.004 A 
ATOM     17  C   UNL     1       0.567   2.585   6.075  0.00  0.00    +0.048 A 
ENDBRANCH  11  12
ENDBRANCH   8  11
ENDBRANCH   4   8
BRANCH   1  18
ATOM     18  C   UNL     1       2.080  -4.248   3.254  0.00  0.00    +0.117 C 
BRANCH  18  22
ATOM     19  N   UNL     1       3.451  -6.213   0.674  0.00  0.00    -0.188 NA
ATOM     20  C   UNL     1       3.381  -4.747   0.651  0.00  0.00    +0.115 C 
ATOM     21  C   UNL     1       1.921  -4.303   0.760  0.00  0.00    +0.026 C 
ATOM     22  C   UNL     1       1.324  -4.841   2.063  0.00  0.00    -0.008 C 
ATOM     23  C   UNL     1       1.453  -6.366   2.083  0.00  0.00    +0.026 C 
ATOM     24  C   UNL     1       2.928  -6.750   1.937  0.00  0.00    +0.115 C 
BRANCH  22  25
ATOM     25  C   UNL     1      -0.153  -4.452   2.148  0.00  0.00    -0.003 C 
ATOM     26  C   UNL     1      -0.795  -5.146   3.351  0.00  0.00    +0.004 C 
ATOM     27  C   UNL     1      -2.272  -4.758   3.436  0.00  0.00    +0.000 C 
ATOM     28  C   UNL     1      -2.988  -5.190   2.155  0.00  0.00    +0.000 C 
ATOM     29  C   UNL     1      -2.346  -4.496   0.953  0.00  0.00    +0.000 C 
ATOM     30  C   UNL     1      -0.869  -4.885   0.868  0.00  0.00    +0.004 C 
ENDBRANCH  22  25
BRANCH  19  31
ATOM     31  O   UNL     1       4.818  -6.676   0.434  0.00  0.00    -0.297 OA
BRANCH  31  33
ATOM     32  C   UNL     1       6.423  -7.879  -0.914  0.00  0.00    +0.036 C 
ATOM     33  C   UNL     1       4.998  -7.330  -0.824  0.00  0.00    +0.182 C 
ENDBRANCH  31  33
ENDBRANCH  19  31
ENDBRANCH  18  22
ENDBRANCH   1  18
BRANCH   6  34
ATOM     34  C   UNL     1       4.057  -1.821   3.699  0.00  0.00    +0.030 C 
BRANCH  34  35
ATOM     35  C   UNL     1       5.056  -0.804   3.143  0.00  0.00    -0.015 C 
ATOM     36  C   UNL     1       4.541   0.613   3.404  0.00  0.00    +0.007 C 
ATOM     37  C   UNL     1       6.410  -0.990   3.832  0.00  0.00    +0.007 C 
ENDBRANCH  34  35
ENDBRANCH   6  34
TORSDOF 10
