REMARK  Name = ZINC22061461
REMARK  7 active torsions:
REMARK  status: ('A' for Active; 'I' for Inactive)
REMARK    1  A    between atoms: C_1  and  C_2
REMARK    2  A    between atoms: C_2  and  N_3
REMARK    3  A    between atoms: C_4  and  C_6
REMARK    4  A    between atoms: C_12  and  N_15
REMARK    5  A    between atoms: C_23  and  N_24
REMARK    6  A    between atoms: C_27  and  C_29
REMARK    7  A    between atoms: C_27  and  C_30
REMARK                            x       y       z     vdW  Elec       q    Type
REMARK                         _______ _______ _______ _____ _____    ______ ____
ROOT
ATOM      1  C   UNL     1       5.551   6.056  -0.262  0.00  0.00    +0.238 C 
ATOM      2  C   UNL     1       5.618   4.837  -1.130  0.00  0.00    +0.192 C 
ATOM      3  C   UNL     1       4.080   4.619  -1.429  0.00  0.00    +0.203 C 
ATOM      4  C   UNL     1       3.577   4.768  -0.007  0.00  0.00    +0.254 C 
ATOM      5  O   UNL     1       4.308   5.929   0.486  0.00  0.00    -0.339 OA
ATOM      6  O   UNL     1       4.196   3.390  -2.111  0.00  0.00    -0.339 OA
ATOM      7  C   UNL     1       5.315   3.648  -3.014  0.00  0.00    +0.166 C 
ATOM      8  O   UNL     1       6.148   4.679  -2.406  0.00  0.00    -0.340 OA
ATOM      9  C   UNL     1       4.789   4.137  -4.365  0.00  0.00    +0.074 C 
ATOM     10  C   UNL     1       6.133   2.370  -3.208  0.00  0.00    +0.074 C 
ENDROOT
BRANCH   4  11
ATOM     11  N   UNL     1       2.134   5.019   0.008  0.00  0.00    -0.285 N 
ATOM     12  C   UNL     1       1.528   6.240   0.020  0.00  0.00    +0.203 A 
ATOM     13  N   UNL     1       0.235   6.095   0.031  0.00  0.00    -0.231 NA
ATOM     14  C   UNL     1      -0.070   4.775   0.028  0.00  0.00    +0.147 A 
ATOM     15  C   UNL     1       1.144   4.069   0.013  0.00  0.00    +0.168 A 
ATOM     16  N   UNL     1       1.119   2.740   0.006  0.00  0.00    -0.203 NA
ATOM     17  C   UNL     1      -0.026   2.091   0.013  0.00  0.00    +0.195 A 
ATOM     18  N   UNL     1      -1.193   2.711   0.023  0.00  0.00    -0.206 NA
ATOM     19  C   UNL     1      -1.266   4.038   0.035  0.00  0.00    +0.148 A 
ATOM     20  I   UNL     1       0.002  -0.004   0.002  0.00  0.00    +0.001 I 
BRANCH  19  21
ATOM     21  N   UNL     1      -2.493   4.678   0.050  0.00  0.00    -0.341 N 
ATOM     22  H   UNL     1      -3.422   4.089   0.055  0.00  0.00    +0.144 HD
ATOM     23  H   UNL     1      -2.539   5.777   0.056  0.00  0.00    +0.144 HD
ENDBRANCH  19  21
ENDBRANCH   4  11
BRANCH   1  25
ATOM     24  N   UNL     1       6.598   7.618  -1.869  0.00  0.00    -0.313 N 
ATOM     25  C   UNL     1       5.530   7.301  -1.111  0.00  0.00    +0.245 C 
ATOM     26  O   UNL     1       4.551   8.017  -1.113  0.00  0.00    -0.273 OA
ATOM     27  H   UNL     1       7.485   6.968  -1.868  0.00  0.00    +0.149 HD
BRANCH  24  29
ATOM     28  C   UNL     1       7.903   8.953  -3.449  0.00  0.00    +0.024 C 
ATOM     29  C   UNL     1       6.578   8.828  -2.695  0.00  0.00    +0.101 C 
ENDBRANCH  24  29
ENDBRANCH   1  25
TORSDOF 4
