REMARK  Name = ZINC32089447
REMARK  3 active torsions:
REMARK  status: ('A' for Active; 'I' for Inactive)
REMARK    1  A    between atoms: C_4  and  N_7
REMARK    2  A    between atoms: N_24  and  C_27
REMARK    3  A    between atoms: C_27  and  C_28
REMARK                            x       y       z     vdW  Elec       q    Type
REMARK                         _______ _______ _______ _____ _____    ______ ____
ROOT
ATOM      1  N   UNL     1       3.623  -0.652  -0.037  0.00  0.00    -0.218 N 
ATOM      2  C   UNL     1       3.889  -1.824   0.574  0.00  0.00    +0.133 A 
ATOM      3  C   UNL     1       5.200  -2.136   0.320  0.00  0.00    +0.032 A 
ATOM      4  C   UNL     1       5.732  -1.130  -0.474  0.00  0.00    +0.141 A 
ATOM      5  N   UNL     1       4.793  -0.241  -0.698  0.00  0.00    -0.173 NA
ATOM      6  C   UNL     1       5.845  -3.377   0.870  0.00  0.00    +0.113 C 
ATOM      7  C   UNL     1       4.779  -4.453   1.069  0.00  0.00    +0.122 C 
ATOM      8  C   UNL     1       3.532  -3.875   1.680  0.00  0.00    +0.220 C 
ATOM      9  O   UNL     1       2.916  -4.533   2.492  0.00  0.00    -0.275 OA
ATOM     10  N   UNL     1       3.077  -2.647   1.353  0.00  0.00    -0.270 N 
ATOM     11  C   UNL     1       6.568  -3.091   2.147  0.00  0.00    +0.012 A 
ATOM     12  C   UNL     1       7.913  -3.406   1.914  0.00  0.00    +0.043 A 
ATOM     13  C   UNL     1       8.858  -3.245   2.928  0.00  0.00    +0.024 A 
ATOM     14  C   UNL     1       8.405  -2.767   4.148  0.00  0.00    +0.003 A 
ATOM     15  C   UNL     1       7.078  -2.461   4.366  0.00  0.00    +0.020 A 
ATOM     16  C   UNL     1       6.124  -2.617   3.364  0.00  0.00    +0.047 A 
ATOM     17 CL   UNL     1       4.453  -2.232   3.633  0.00  0.00    -0.083 Cl
ATOM     18  N   UNL     1       8.083  -3.857   0.617  0.00  0.00    -0.261 N 
ATOM     19  C   UNL     1       6.921  -3.873  -0.070  0.00  0.00    +0.236 C 
ATOM     20  O   UNL     1       6.769  -4.220  -1.222  0.00  0.00    -0.274 OA
ATOM     21  H   UNL     1       2.206  -2.344   1.654  0.00  0.00    +0.156 HD
ENDROOT
BRANCH   1  25
ATOM     22  C   UNL     1      -0.017   1.379   0.010  0.00  0.00    +0.000 A 
ATOM     23  C   UNL     1       1.170   2.089   0.002  0.00  0.00    +0.002 A 
ATOM     24  C   UNL     1       2.377   1.419  -0.013  0.00  0.00    +0.028 A 
ATOM     25  C   UNL     1       2.399   0.031  -0.021  0.00  0.00    +0.067 A 
ATOM     26  C   UNL     1       1.207  -0.680  -0.013  0.00  0.00    +0.028 A 
ATOM     27  C   UNL     1       0.002  -0.004   0.002  0.00  0.00    +0.002 A 
ENDBRANCH   1  25
BRANCH  18  28
ATOM     28  C   UNL     1       9.372  -4.269   0.055  0.00  0.00    +0.209 C 
BRANCH  28  29
ATOM     29  C   UNL     1       9.576  -5.742   0.295  0.00  0.00    +0.228 C 
ATOM     30  O   UNL     1       8.729  -6.386   0.878  0.00  0.00    -0.274 OA
ATOM     31  N   UNL     1      10.701  -6.346  -0.138  0.00  0.00    -0.328 N 
ATOM     32  H   UNL     1      11.379  -5.832  -0.604  0.00  0.00    +0.145 HD
ATOM     33  H   UNL     1      10.833  -7.294   0.017  0.00  0.00    +0.145 HD
ENDBRANCH  28  29
ENDBRANCH  18  28
TORSDOF 3
