REMARK  Name = ZINC20078598
REMARK  4 active torsions:
REMARK  status: ('A' for Active; 'I' for Inactive)
REMARK    1  A    between atoms: C_1  and  C_2
REMARK    2  A    between atoms: C_7  and  N_12
REMARK    3  A    between atoms: C_9  and  C_11
REMARK    4  A    between atoms: C_13  and  N_21
REMARK                            x       y       z     vdW  Elec       q    Type
REMARK                         _______ _______ _______ _____ _____    ______ ____
ROOT
ATOM      1  N   UNL     1      -1.236   3.004   0.133  0.00  0.00    -0.279 N 
ATOM      2  C   UNL     1      -1.206   1.651  -0.104  0.00  0.00    +0.105 A 
ATOM      3  C   UNL     1      -2.382   0.961  -0.204  0.00  0.00    +0.111 A 
ATOM      4  C   UNL     1      -3.594   1.657  -0.067  0.00  0.00    +0.256 A 
ATOM      5  O   UNL     1      -4.655   1.062  -0.152  0.00  0.00    -0.268 OA
ATOM      6  N   UNL     1      -3.578   2.985   0.159  0.00  0.00    -0.275 N 
ATOM      7  H   UNL     1      -4.523   3.536   0.267  0.00  0.00    +0.173 HD
ATOM      8  C   UNL     1      -2.411   3.648   0.255  0.00  0.00    +0.331 A 
ATOM      9  O   UNL     1      -2.418   4.846   0.461  0.00  0.00    -0.246 OA
ENDROOT
BRANCH   1  15
ATOM     10  C   UNL     1       1.450   6.669  -1.816  0.00  0.00    +0.008 C 
ATOM     11  C   UNL     1       1.390   5.600  -0.723  0.00  0.00    -0.009 C 
ATOM     12  C   UNL     1       1.460   6.269   0.650  0.00  0.00    +0.004 C 
ATOM     13  C   UNL     1       1.401   5.200   1.743  0.00  0.00    +0.002 C 
ATOM     14  C   UNL     1       0.090   4.420   1.623  0.00  0.00    +0.025 C 
ATOM     15  C   UNL     1       0.020   3.751   0.249  0.00  0.00    +0.096 C 
ATOM     16  C   UNL     1       0.079   4.820  -0.844  0.00  0.00    +0.012 C 
ATOM     17  C   UNL     1       0.009   4.150  -2.218  0.00  0.00    +0.010 C 
ENDBRANCH   1  15
BRANCH   2  18
ATOM     18  N   UNL     1      -0.008   0.997  -0.233  0.00  0.00    -0.344 N 
ATOM     19  H   UNL     1       0.010  -0.086  -0.423  0.00  0.00    +0.144 HD
ATOM     20  H   UNL     1       0.936   1.556  -0.147  0.00  0.00    +0.144 HD
ENDBRANCH   2  18
TORSDOF 2
