REMARK  Name = ZINC18997989
REMARK  9 active torsions:
REMARK  status: ('A' for Active; 'I' for Inactive)
REMARK    1  A    between atoms: C_1  and  C_2
REMARK    2  A    between atoms: C_8  and  N_10
REMARK    3  A    between atoms: C_14  and  C_16
REMARK    4  A    between atoms: C_16  and  O_17
REMARK    5  A    between atoms: O_17  and  C_18
REMARK    6  A    between atoms: C_18  and  C_20
REMARK    7  A    between atoms: C_24  and  S_26
REMARK    8  A    between atoms: S_26  and  N_29
REMARK    9  A    between atoms: N_29  and  C_30
REMARK                            x       y       z     vdW  Elec       q    Type
REMARK                         _______ _______ _______ _____ _____    ______ ____
ROOT
ATOM      1  O   UNL     1       0.002  -0.004   0.002  0.00  0.00    -0.452 OA
ENDROOT
BRANCH   1   2
ATOM      2  C   UNL     1      -0.016   1.343   0.009  0.00  0.00    +0.340 C 
ATOM      3  O   UNL     1       1.027   1.964   0.003  0.00  0.00    -0.245 OA
BRANCH   2   4
ATOM      4  C   UNL     1      -1.305   2.064   0.019  0.00  0.00    +0.061 A 
ATOM      5  C   UNL     1      -2.507   1.353   0.015  0.00  0.00    +0.015 A 
ATOM      6  C   UNL     1      -3.707   2.032   0.031  0.00  0.00    +0.003 A 
ATOM      7  C   UNL     1      -3.722   3.416   0.038  0.00  0.00    +0.028 A 
ATOM      8  C   UNL     1      -2.536   4.127   0.037  0.00  0.00    +0.106 A 
ATOM      9  C   UNL     1      -1.328   3.460   0.027  0.00  0.00    +0.043 A 
BRANCH   8  10
ATOM     10  S   UNL     1      -2.567   5.889   0.046  0.00  0.00    +0.059 S 
ATOM     11  O   UNL     1      -3.816   6.270   0.605  0.00  0.00    -0.153 OA
ATOM     12  O   UNL     1      -1.326   6.314   0.593  0.00  0.00    -0.153 OA
BRANCH  10  13
ATOM     13  N   UNL     1      -2.583   6.386  -1.534  0.00  0.00    -0.187 NA
ATOM     14  H   UNL     1      -1.832   6.884  -1.893  0.00  0.00    +0.148 HD
BRANCH  13  15
ATOM     15  C   UNL     1      -3.732   6.075  -2.388  0.00  0.00    +0.077 C 
ATOM     16  C   UNL     1      -3.459   5.812  -3.870  0.00  0.00    +0.022 C 
ATOM     17  C   UNL     1      -4.135   7.114  -3.436  0.00  0.00    +0.022 C 
ENDBRANCH  13  15
ENDBRANCH  10  13
ENDBRANCH   8  10
ENDBRANCH   2   4
ENDBRANCH   1   2
BRANCH   1  18
ATOM     18  C   UNL     1       1.305  -0.646  -0.014  0.00  0.00    +0.328 C 
BRANCH  18  23
ATOM     19  N   UNL     1       3.129  -5.093  -0.055  0.00  0.00    -0.296 N 
ATOM     20  C   UNL     1       2.049  -4.287  -0.041  0.00  0.00    +0.306 C 
ATOM     21  O   UNL     1       0.932  -4.767  -0.032  0.00  0.00    -0.252 OA
ATOM     22  N   UNL     1       2.207  -2.949  -0.035  0.00  0.00    -0.237 N 
ATOM     23  C   UNL     1       1.127  -2.142  -0.020  0.00  0.00    +0.258 C 
ATOM     24  O   UNL     1       0.014  -2.621  -0.012  0.00  0.00    -0.272 OA
ATOM     25  H   UNL     1       4.020  -4.710  -0.062  0.00  0.00    +0.151 HD
ATOM     26  H   UNL     1       3.098  -2.566  -0.041  0.00  0.00    +0.159 HD
BRANCH  19  33
ATOM     27  C   UNL     1       4.360  -6.705  -2.122  0.00  0.00    +0.009 C 
ATOM     28  C   UNL     1       4.189  -7.205  -0.686  0.00  0.00    +0.006 C 
ATOM     29  C   UNL     1       5.430  -6.842   0.131  0.00  0.00    +0.005 C 
ATOM     30  C   UNL     1       5.259  -7.341   1.567  0.00  0.00    +0.000 C 
ATOM     31  C   UNL     1       4.027  -6.684   2.192  0.00  0.00    +0.002 C 
ATOM     32  C   UNL     1       2.785  -7.048   1.375  0.00  0.00    +0.022 C 
ATOM     33  C   UNL     1       2.956  -6.548  -0.061  0.00  0.00    +0.077 C 
ENDBRANCH  19  33
ENDBRANCH  18  23
ENDBRANCH   1  18
TORSDOF 8
