REMARK  Name = ZINC51117057
REMARK  7 active torsions:
REMARK  status: ('A' for Active; 'I' for Inactive)
REMARK    1  A    between atoms: C_2  and  C_10
REMARK    2  A    between atoms: C_6  and  N_7
REMARK    3  A    between atoms: N_7  and  N_8
REMARK    4  A    between atoms: N_12  and  C_13
REMARK    5  A    between atoms: N_12  and  C_16
REMARK    6  A    between atoms: C_13  and  C_14
REMARK    7  A    between atoms: C_14  and  O_15
REMARK                            x       y       z     vdW  Elec       q    Type
REMARK                         _______ _______ _______ _____ _____    ______ ____
ROOT
ATOM      1  C   UNL     1      -1.188   3.582  -0.556  0.00  0.00    +0.057 A 
ATOM      2  C   UNL     1      -0.050   4.225  -0.069  0.00  0.00    +0.043 A 
ATOM      3  C   UNL     1      -0.167   5.556   0.345  0.00  0.00    +0.053 A 
ATOM      4  C   UNL     1      -1.396   6.183   0.259  0.00  0.00    +0.132 A 
ATOM      5  N   UNL     1      -2.452   5.544  -0.208  0.00  0.00    -0.220 NA
ATOM      6  C   UNL     1      -2.387   4.285  -0.611  0.00  0.00    +0.134 A 
ATOM      7 CL   UNL     1      -1.552   7.834   0.771  0.00  0.00    -0.062 Cl
ENDROOT
BRANCH   2   8
ATOM      8  C   UNL     1       1.249   3.516   0.008  0.00  0.00    +0.247 C 
ATOM      9  O   UNL     1       1.276   2.312   0.170  0.00  0.00    -0.270 OA
ATOM     10  N   UNL     1       2.401   4.207  -0.101  0.00  0.00    -0.292 N 
BRANCH  10  11
ATOM     11  C   UNL     1       3.680   3.495  -0.161  0.00  0.00    +0.076 C 
ATOM     12  C   UNL     1       3.657   2.463  -1.307  0.00  0.00    +0.022 C 
ATOM     13  C   UNL     1       4.448   1.255  -0.748  0.00  0.00    +0.002 C 
ATOM     14  C   UNL     1       4.008   1.217   0.737  0.00  0.00    +0.002 C 
ATOM     15  C   UNL     1       3.903   2.702   1.139  0.00  0.00    +0.022 C 
ENDBRANCH  10  11
BRANCH  10  16
ATOM     16  C   UNL     1       2.375   5.671  -0.159  0.00  0.00    +0.136 C 
BRANCH  16  17
ATOM     17  C   UNL     1       2.665   6.242   1.231  0.00  0.00    +0.174 C 
BRANCH  17  18
ATOM     18  O   UNL     1       3.998   5.903   1.617  0.00  0.00    -0.393 OA
ATOM     19  H   UNL     1       4.251   6.233   2.490  0.00  0.00    +0.209 HD
ENDBRANCH  17  18
ENDBRANCH  16  17
ENDBRANCH  10  16
ENDBRANCH   2   8
BRANCH   6  20
ATOM     20  N   UNL     1      -3.530   3.658  -1.094  0.00  0.00    -0.267 N 
ATOM     21  H   UNL     1      -3.488   2.735  -1.391  0.00  0.00    +0.167 HD
BRANCH  20  22
ATOM     22  N   UNL     1      -4.712   4.341  -1.151  0.00  0.00    -0.255 NA
ATOM     23  H   UNL     1      -4.614   5.188  -1.690  0.00  0.00    +0.140 HD
ATOM     24  H   UNL     1      -5.448   3.759  -1.522  0.00  0.00    +0.140 HD
ENDBRANCH  20  22
ENDBRANCH   6  20
TORSDOF 7
