REMARK  Name = ZINC09135791
REMARK  9 active torsions:
REMARK  status: ('A' for Active; 'I' for Inactive)
REMARK    1  A    between atoms: C_1  and  C_2
REMARK    2  A    between atoms: C_4  and  N_32
REMARK    3  A    between atoms: C_7  and  N_8
REMARK    4  A    between atoms: C_9  and  C_11
REMARK    5  A    between atoms: N_13  and  C_14
REMARK    6  A    between atoms: C_14  and  C_15
REMARK    7  A    between atoms: C_15  and  C_17
REMARK    8  A    between atoms: C_15  and  N_65
REMARK    9  A    between atoms: N_26  and  C_27
REMARK                            x       y       z     vdW  Elec       q    Type
REMARK                         _______ _______ _______ _____ _____    ______ ____
ROOT
ATOM      1  C   UNL     1       4.360  -3.110   4.091  0.00  0.00    +0.094 C 
ENDROOT
BRANCH   1   4
ATOM      2  C   UNL     1       6.070  -4.359   5.297  0.00  0.00    +0.299 C 
ATOM      3  O   UNL     1       6.666  -4.497   4.249  0.00  0.00    -0.265 OA
ATOM      4  N   UNL     1       4.906  -3.681   5.325  0.00  0.00    -0.309 N 
ATOM      5  H   UNL     1       4.429  -3.571   6.163  0.00  0.00    +0.149 HD
BRANCH   2   7
ATOM      6  N   UNL     1       7.790  -5.620   6.526  0.00  0.00    -0.278 N 
ATOM      7  C   UNL     1       6.626  -4.942   6.555  0.00  0.00    +0.303 C 
ATOM      8  O   UNL     1       6.030  -4.804   7.603  0.00  0.00    -0.265 OA
ATOM      9  H   UNL     1       8.300  -5.674   5.703  0.00  0.00    +0.155 HD
BRANCH   6  16
ATOM     10  C   UNL     1       9.458  -7.906   6.230  0.00  0.00    +0.046 C 
ATOM     11  C   UNL     1       9.079  -7.365   7.585  0.00  0.00    -0.027 A 
ATOM     12  C   UNL     1       9.549  -7.978   8.730  0.00  0.00    +0.038 A 
ATOM     13  C   UNL     1       9.198  -7.485   9.973  0.00  0.00    +0.127 A 
ATOM     14  C   UNL     1       8.380  -6.374  10.075  0.00  0.00    +0.034 A 
ATOM     15  C   UNL     1       7.912  -5.753   8.934  0.00  0.00    +0.026 A 
ATOM     16  C   UNL     1       8.263  -6.246   7.683  0.00  0.00    +0.037 A 
BRANCH  13  17
ATOM     17  N   UNL     1       9.697  -8.149  11.198  0.00  0.00    +0.056 N 
ATOM     18  O   UNL     1       9.389  -7.716  12.294  0.00  0.00    -0.126 OA
ATOM     19  O   UNL     1      10.417  -9.127  11.111  0.00  0.00    -0.126 OA
ENDBRANCH  13  17
ENDBRANCH   6  16
ENDBRANCH   2   7
ENDBRANCH   1   4
BRANCH   1  20
ATOM     20  C   UNL     1       3.023  -2.429   4.392  0.00  0.00    -0.020 C 
BRANCH  20  21
ATOM     21  C   UNL     1       2.595  -1.615   3.198  0.00  0.00    -0.059 A 
ATOM     22  C   UNL     1       2.120  -2.247   2.063  0.00  0.00    +0.004 A 
ATOM     23  C   UNL     1       1.731  -1.501   0.972  0.00  0.00    +0.023 A 
ATOM     24  C   UNL     1       1.812  -0.108   1.003  0.00  0.00    +0.033 A 
ATOM     25  C   UNL     1       2.284   0.519   2.143  0.00  0.00    -0.026 A 
ATOM     26  C   UNL     1       2.676  -0.238   3.236  0.00  0.00    +0.007 A 
ATOM     27  C   UNL     1       2.386   2.021   2.245  0.00  0.00    +0.038 C 
ATOM     28  C   UNL     1       2.283   2.640   0.849  0.00  0.00    +0.024 C 
ATOM     29  C   UNL     1       1.090   1.993   0.133  0.00  0.00    +0.105 C 
ATOM     30  N   UNL     1       1.409   0.590  -0.135  0.00  0.00    -0.333 N 
ATOM     31  C   UNL     1       0.287  -0.088  -0.797  0.00  0.00    +0.129 C 
ENDBRANCH  20  21
BRANCH  20  36
ATOM     32  C   UNL     1       2.174  -3.998   6.049  0.00  0.00    -0.078 C 
ATOM     33  C   UNL     1       0.786  -4.613   6.357  0.00  0.00    -0.020 C 
ATOM     34  C   UNL     1      -0.190  -3.610   5.699  0.00  0.00    -0.020 C 
ATOM     35  C   UNL     1       0.647  -2.872   4.638  0.00  0.00    -0.078 C 
ATOM     36  N   UNL     1       1.986  -3.461   4.692  0.00  0.00    +0.385 N 
ATOM     37  H   UNL     1       2.058  -4.221   4.006  0.00  0.00    -0.081 HD
ENDBRANCH  20  36
ENDBRANCH   1  20
TORSDOF 7
