REMARK  Name = ZINC02886804
REMARK  3 active torsions:
REMARK  status: ('A' for Active; 'I' for Inactive)
REMARK    1  A    between atoms: C_1  and  C_2
REMARK    2  A    between atoms: C_5  and  C_7
REMARK    3  A    between atoms: N_14  and  N_17
REMARK                            x       y       z     vdW  Elec       q    Type
REMARK                         _______ _______ _______ _____ _____    ______ ____
ROOT
ATOM      1  C   UNL     1       0.146   5.268   0.028  0.00  0.00    +0.039 A 
ATOM      2  C   UNL     1       1.412   5.756   0.018  0.00  0.00    +0.059 A 
ATOM      3  S   UNL     1       2.420   4.286   0.001  0.00  0.00    -0.076 S 
ATOM      4  C   UNL     1       1.134   3.064   0.007  0.00  0.00    +0.116 A 
ATOM      5  C   UNL     1      -0.048   3.822   0.022  0.00  0.00    +0.084 A 
ATOM      6  C   UNL     1      -1.266   3.071   0.030  0.00  0.00    +0.279 A 
ATOM      7  O   UNL     1      -2.343   3.641   0.043  0.00  0.00    -0.265 OA
ATOM      8  N   UNL     1      -1.204   1.727   0.017  0.00  0.00    -0.221 N 
ATOM      9  C   UNL     1      -0.013   1.076   0.008  0.00  0.00    +0.222 A 
ATOM     10  N   UNL     1       1.116   1.733   0.001  0.00  0.00    -0.228 NA
ENDROOT
BRANCH   1  15
ATOM     11  C   UNL     1      -4.243   7.390  -1.169  0.00  0.00    +0.086 C 
ATOM     12  C   UNL     1      -2.933   7.116  -0.475  0.00  0.00    +0.103 A 
ATOM     13  C   UNL     1      -2.428   7.821   0.555  0.00  0.00    +0.045 A 
ATOM     14  C   UNL     1      -1.197   7.225   0.898  0.00  0.00    +0.050 A 
ATOM     15  C   UNL     1      -1.014   6.183   0.043  0.00  0.00    +0.136 A 
ATOM     16  O   UNL     1      -2.076   6.127  -0.782  0.00  0.00    -0.460 OA
ENDBRANCH   1  15
BRANCH   8  17
ATOM     17  N   UNL     1      -2.362   1.003   0.019  0.00  0.00    -0.294 N 
ATOM     18  H   UNL     1      -2.170   0.013   0.013  0.00  0.00    +0.163 HD
ATOM     19  H   UNL     1      -2.944   1.254   0.804  0.00  0.00    +0.163 HD
ENDBRANCH   8  17
TORSDOF 2
