REMARK  Name = ZINC62789547
REMARK  8 active torsions:
REMARK  status: ('A' for Active; 'I' for Inactive)
REMARK    1  A    between atoms: C_1  and  C_2
REMARK    2  A    between atoms: C_2  and  C_4
REMARK    3  A    between atoms: C_2  and  O_18
REMARK    4  A    between atoms: C_4  and  N_5
REMARK    5  A    between atoms: N_5  and  C_6
REMARK    6  A    between atoms: N_5  and  C_7
REMARK    7  A    between atoms: C_12  and  C_13
REMARK    8  A    between atoms: N_14  and  O_15
REMARK                            x       y       z     vdW  Elec       q    Type
REMARK                         _______ _______ _______ _____ _____    ______ ____
ROOT
ATOM      1  C   UNL     1      -1.380  -2.780  -1.023  0.00  0.00    +0.042 A 
ATOM      2  C   UNL     1      -0.163  -3.161  -1.572  0.00  0.00    +0.043 A 
ATOM      3  C   UNL     1      -0.132  -3.941  -2.712  0.00  0.00    +0.043 A 
ATOM      4  C   UNL     1      -1.312  -4.348  -3.315  0.00  0.00    +0.021 A 
ATOM      5  C   UNL     1      -2.529  -3.978  -2.782  0.00  0.00    +0.014 A 
ATOM      6  C   UNL     1      -2.575  -3.196  -1.628  0.00  0.00    +0.039 A 
ATOM      7 CL   UNL     1       1.393  -4.414  -3.393  0.00  0.00    -0.083 Cl
ENDROOT
BRANCH   6   8
ATOM      8  C   UNL     1      -3.876  -2.802  -1.049  0.00  0.00    +0.164 C 
ATOM      9  N   UNL     1      -3.915  -2.067   0.025  0.00  0.00    -0.071 NA
ATOM     10  N   UNL     1      -5.054  -3.214  -1.649  0.00  0.00    -0.340 N 
ATOM     11  H   UNL     1      -5.025  -3.761  -2.449  0.00  0.00    +0.144 HD
ATOM     12  H   UNL     1      -5.909  -2.955  -1.269  0.00  0.00    +0.144 HD
BRANCH   9  13
ATOM     13  O   UNL     1      -5.162  -1.690   0.580  0.00  0.00    -0.408 OA
ATOM     14  H   UNL     1      -5.090  -1.145   1.376  0.00  0.00    +0.328 HD
ENDBRANCH   9  13
ENDBRANCH   6   8
BRANCH   1  15
ATOM     15  N   UNL     1      -1.414  -1.994   0.125  0.00  0.00    -0.330 N 
ATOM     16  C   UNL     1      -1.431  -2.627   1.446  0.00  0.00    +0.129 C 
BRANCH  15  17
ATOM     17  C   UNL     1      -1.433  -0.534   0.013  0.00  0.00    +0.135 C 
BRANCH  17  19
ATOM     18  C   UNL     1      -0.019   1.526   0.010  0.00  0.00    +0.039 C 
ATOM     19  C   UNL     1       0.002  -0.004   0.002  0.00  0.00    +0.129 C 
BRANCH  19  20
ATOM     20  O   UNL     1       0.671  -0.465  -1.174  0.00  0.00    -0.391 OA
ATOM     21  H   UNL     1       1.588  -0.167  -1.247  0.00  0.00    +0.210 HD
ENDBRANCH  19  20
ENDBRANCH  17  19
ENDBRANCH  15  17
ENDBRANCH   1  15
TORSDOF 6
