REMARK  Name = ZINC39675893
REMARK  9 active torsions:
REMARK  status: ('A' for Active; 'I' for Inactive)
REMARK    1  A    between atoms: C_1  and  N_2
REMARK    2  A    between atoms: N_2  and  C_3
REMARK    3  A    between atoms: N_2  and  C_4
REMARK    4  A    between atoms: C_4  and  C_6
REMARK    5  A    between atoms: C_4  and  C_34
REMARK    6  A    between atoms: C_6  and  N_7
REMARK    7  A    between atoms: C_8  and  C_10
REMARK    8  A    between atoms: C_21  and  C_23
REMARK    9  A    between atoms: C_26  and  C_28
REMARK                            x       y       z     vdW  Elec       q    Type
REMARK                         _______ _______ _______ _____ _____    ______ ____
ROOT
ATOM      1  C   UNL     1      -0.844  -3.752   2.384  0.00  0.00    +0.100 C 
ATOM      2  C   UNL     1      -1.818  -3.205   3.452  0.00  0.00    +0.121 C 
ATOM      3  N   UNL     1      -2.709  -4.347   3.765  0.00  0.00    -0.294 N 
ATOM      4  C   UNL     1      -1.811  -5.527   3.766  0.00  0.00    +0.115 C 
ATOM      5  C   UNL     1      -0.840  -5.275   2.596  0.00  0.00    -0.004 C 
ATOM      6  C   UNL     1      -1.334  -5.984   1.339  0.00  0.00    -0.010 C 
ATOM      7  C   UNL     1      -1.268  -7.499   1.554  0.00  0.00    -0.082 C 
ATOM      8  N   UNL     1       0.115  -7.892   1.850  0.00  0.00    +0.379 N 
ATOM      9  C   UNL     1       0.552  -7.279   3.109  0.00  0.00    -0.082 C 
ATOM     10  C   UNL     1       0.562  -5.755   2.961  0.00  0.00    -0.010 C 
ATOM     11  C   UNL     1      -4.037  -4.319   3.996  0.00  0.00    +0.282 C 
ATOM     12  O   UNL     1      -4.633  -5.351   4.242  0.00  0.00    -0.267 OA
ATOM     13  H   UNL     1       0.168  -8.897   1.930  0.00  0.00    -0.086 HD
ATOM     14  H   UNL     1       0.718  -7.586   1.101  0.00  0.00    -0.086 HD
ENDROOT
BRANCH  11  15
ATOM     15  C   UNL     1      -4.762  -3.047   3.951  0.00  0.00    +0.190 A 
ATOM     16  C   UNL     1      -6.111  -2.876   4.172  0.00  0.00    +0.055 A 
ATOM     17  C   UNL     1      -6.373  -1.510   4.030  0.00  0.00    +0.050 A 
ATOM     18  C   UNL     1      -5.188  -0.902   3.730  0.00  0.00    +0.136 A 
ATOM     19  O   UNL     1      -4.223  -1.837   3.691  0.00  0.00    -0.450 OA
BRANCH  18  20
ATOM     20  C   UNL     1      -4.997   0.543   3.495  0.00  0.00    +0.017 A 
ATOM     21  C   UNL     1      -6.083   1.417   3.576  0.00  0.00    +0.011 A 
ATOM     22  C   UNL     1      -5.897   2.766   3.355  0.00  0.00    +0.001 A 
ATOM     23  C   UNL     1      -4.637   3.254   3.054  0.00  0.00    +0.000 A 
ATOM     24  C   UNL     1      -3.557   2.393   2.971  0.00  0.00    +0.001 A 
ATOM     25  C   UNL     1      -3.727   1.043   3.195  0.00  0.00    +0.011 A 
ENDBRANCH  18  20
ENDBRANCH  11  15
BRANCH   1  27
ATOM     26  N   UNL     1      -0.459  -3.236  -0.004  0.00  0.00    -0.316 N 
ATOM     27  C   UNL     1      -1.339  -3.415   1.001  0.00  0.00    +0.218 C 
ATOM     28  O   UNL     1      -2.529  -3.306   0.793  0.00  0.00    -0.275 OA
ATOM     29  H   UNL     1       0.492  -3.324   0.162  0.00  0.00    +0.149 HD
BRANCH  26  30
ATOM     30  C   UNL     1      -0.941  -2.909  -1.349  0.00  0.00    +0.093 C 
BRANCH  30  31
ATOM     31  C   UNL     1       0.253  -2.740  -2.291  0.00  0.00    -0.021 C 
BRANCH  31  32
ATOM     32  C   UNL     1       0.955  -4.063  -2.455  0.00  0.00    -0.059 A 
ATOM     33  C   UNL     1       1.826  -4.510  -1.478  0.00  0.00    +0.002 A 
ATOM     34  C   UNL     1       2.469  -5.724  -1.629  0.00  0.00    +0.000 A 
ATOM     35  C   UNL     1       2.242  -6.492  -2.756  0.00  0.00    +0.000 A 
ATOM     36  C   UNL     1       1.370  -6.046  -3.732  0.00  0.00    +0.000 A 
ATOM     37  C   UNL     1       0.723  -4.834  -3.579  0.00  0.00    +0.002 A 
ENDBRANCH  31  32
BRANCH  31  39
ATOM     38  C   UNL     1       2.325  -1.582  -2.638  0.00  0.00    -0.096 C 
ATOM     39  N   UNL     1       1.187  -1.757  -1.726  0.00  0.00    +0.382 N 
ATOM     40  C   UNL     1       0.498  -0.471  -1.550  0.00  0.00    -0.096 C 
ATOM     41  H   UNL     1       1.521  -2.085  -0.832  0.00  0.00    -0.082 HD
ENDBRANCH  31  39
ENDBRANCH  30  31
ENDBRANCH  26  30
ENDBRANCH   1  27
TORSDOF 7
