REMARK  Name = ZINC12318350
REMARK  7 active torsions:
REMARK  status: ('A' for Active; 'I' for Inactive)
REMARK    1  A    between atoms: C_1  and  C_2
REMARK    2  A    between atoms: C_4  and  C_30
REMARK    3  A    between atoms: C_5  and  N_9
REMARK    4  A    between atoms: C_6  and  C_8
REMARK    5  A    between atoms: C_10  and  C_12
REMARK    6  A    between atoms: C_17  and  N_62
REMARK    7  A    between atoms: C_26  and  O_29
REMARK                            x       y       z     vdW  Elec       q    Type
REMARK                         _______ _______ _______ _____ _____    ______ ____
ROOT
ATOM      1  C   UNL     1       4.422   6.203  -0.241  0.00  0.00    +0.020 C 
ATOM      2  C   UNL     1       3.057   6.922  -0.197  0.00  0.00    -0.008 C 
ATOM      3  C   UNL     1       2.269   6.362  -1.400  0.00  0.00    -0.020 C 
ATOM      4  C   UNL     1       3.225   5.352  -2.070  0.00  0.00    -0.077 C 
ATOM      5  N   UNL     1       4.141   4.978  -0.986  0.00  0.00    +0.391 N 
ATOM      6  H   UNL     1       3.693   4.288  -0.370  0.00  0.00    -0.080 HD
ENDROOT
BRANCH   5   7
ATOM      7  C   UNL     1       5.401   4.393  -1.544  0.00  0.00    -0.061 C 
ATOM      8  C   UNL     1       6.339   3.998  -0.402  0.00  0.00    -0.008 C 
ATOM      9  C   UNL     1       7.633   3.423  -0.981  0.00  0.00    -0.009 C 
ATOM     10  C   UNL     1       8.312   4.477  -1.858  0.00  0.00    +0.007 C 
ATOM     11  C   UNL     1       7.374   4.872  -3.000  0.00  0.00    -0.009 C 
ATOM     12  C   UNL     1       6.080   5.447  -2.421  0.00  0.00    -0.008 C 
ATOM     13  C   UNL     1       7.050   3.637  -3.844  0.00  0.00    +0.038 C 
ATOM     14  C   UNL     1       6.371   2.583  -2.967  0.00  0.00    +0.065 C 
ATOM     15  C   UNL     1       7.310   2.189  -1.825  0.00  0.00    +0.038 C 
ATOM     16  C   UNL     1       5.077   3.159  -2.388  0.00  0.00    +0.023 C 
BRANCH  14  17
ATOM     17  O   UNL     1       6.069   1.430  -3.755  0.00  0.00    -0.389 OA
ATOM     18  H   UNL     1       6.844   1.013  -4.154  0.00  0.00    +0.210 HD
ENDBRANCH  14  17
ENDBRANCH   5   7
BRANCH   1  20
ATOM     19  N   UNL     1       5.196   6.901   2.002  0.00  0.00    -0.286 N 
ATOM     20  C   UNL     1       4.899   5.896   1.155  0.00  0.00    +0.204 C 
ATOM     21  O   UNL     1       5.016   4.744   1.516  0.00  0.00    -0.277 OA
ATOM     22  H   UNL     1       5.033   7.820   1.740  0.00  0.00    +0.155 HD
BRANCH  19  27
ATOM     23  C   UNL     1       7.398   5.755   7.103  0.00  0.00    +0.044 C 
ATOM     24  C   UNL     1       6.813   6.059   5.748  0.00  0.00    -0.050 A 
ATOM     25  C   UNL     1       7.573   6.721   4.801  0.00  0.00    +0.008 A 
ATOM     26  C   UNL     1       7.040   7.001   3.558  0.00  0.00    -0.029 A 
ATOM     27  C   UNL     1       5.739   6.618   3.260  0.00  0.00    +0.039 A 
ATOM     28  C   UNL     1       4.976   5.958   4.215  0.00  0.00    -0.029 A 
ATOM     29  C   UNL     1       5.517   5.676   5.454  0.00  0.00    +0.008 A 
ATOM     30  C   UNL     1       3.562   5.546   3.897  0.00  0.00    +0.045 C 
ATOM     31  C   UNL     1       7.870   7.722   2.527  0.00  0.00    +0.045 C 
ENDBRANCH  19  27
ENDBRANCH   1  20
TORSDOF 4
