REMARK  Name = ZINC40471591
REMARK  4 active torsions:
REMARK  status: ('A' for Active; 'I' for Inactive)
REMARK    1  A    between atoms: C_3  and  C_18
REMARK    2  A    between atoms: C_4  and  N_8
REMARK    3  A    between atoms: C_9  and  C_11
REMARK    4  A    between atoms: C_11  and  N_17
REMARK                            x       y       z     vdW  Elec       q    Type
REMARK                         _______ _______ _______ _____ _____    ______ ____
ROOT
ATOM      1  N   UNL     1       3.865  -0.161  -0.064  0.00  0.00    -0.286 N 
ATOM      2  C   UNL     1       4.130  -1.460   0.180  0.00  0.00    +0.206 C 
ATOM      3  O   UNL     1       3.223  -2.261   0.252  0.00  0.00    -0.277 OA
ATOM      4  H   UNL     1       4.594   0.467  -0.191  0.00  0.00    +0.155 HD
ENDROOT
BRANCH   1   8
ATOM      5  C   UNL     1      -0.086   1.158  -0.274  0.00  0.00    +0.021 A 
ATOM      6  C   UNL     1       0.897   1.869  -0.924  0.00  0.00    +0.018 A 
ATOM      7  C   UNL     1       2.227   1.437  -0.862  0.00  0.00    +0.084 A 
ATOM      8  C   UNL     1       2.547   0.279  -0.134  0.00  0.00    +0.049 A 
ATOM      9  C   UNL     1       1.542  -0.424   0.515  0.00  0.00    +0.044 A 
ATOM     10  C   UNL     1       0.233   0.015   0.445  0.00  0.00    +0.043 A 
ATOM     11 CL   UNL     1      -1.018  -0.870   1.259  0.00  0.00    -0.083 Cl
BRANCH   7  12
ATOM     12  C   UNL     1       3.282   2.191  -1.555  0.00  0.00    +0.388 C 
ATOM     13  O   UNL     1       3.018   3.255  -2.098  0.00  0.00    -0.241 OA
ATOM     14  O   UNL     1       4.425   1.755  -1.588  0.00  0.00    -0.241 OA
ENDBRANCH   7  12
ENDBRANCH   1   8
BRANCH   2  15
ATOM     15  C   UNL     1       5.555  -1.917   0.364  0.00  0.00    +0.007 C 
ATOM     16  C   UNL     1       6.216  -2.089  -1.005  0.00  0.00    -0.004 C 
ATOM     17  C   UNL     1       5.446  -3.133  -1.815  0.00  0.00    -0.001 C 
ATOM     18  C   UNL     1       5.461  -4.469  -1.070  0.00  0.00    -0.000 C 
ATOM     19  C   UNL     1       4.800  -4.297   0.299  0.00  0.00    -0.001 C 
ATOM     20  C   UNL     1       5.569  -3.253   1.109  0.00  0.00    -0.004 C 
BRANCH  15  21
ATOM     21  N   UNL     1       6.294  -0.914   1.143  0.00  0.00    +0.388 N 
ATOM     22  H   UNL     1       5.857  -0.800   2.045  0.00  0.00    -0.089 HD
ATOM     23  H   UNL     1       7.247  -1.220   1.266  0.00  0.00    -0.089 HD
ATOM     24  H   UNL     1       6.284  -0.032   0.651  0.00  0.00    -0.089 HD
ENDBRANCH  15  21
ENDBRANCH   2  15
TORSDOF 4
