REMARK  Name = ZINC37820472
REMARK  10 active torsions:
REMARK  status: ('A' for Active; 'I' for Inactive)
REMARK    1  A    between atoms: C_1  and  C_2
REMARK    2  A    between atoms: C_2  and  C_3
REMARK    3  A    between atoms: C_3  and  C_4
REMARK    4  A    between atoms: C_4  and  C_5
REMARK    5  A    between atoms: C_4  and  C_6
REMARK    6  A    between atoms: C_4  and  N_21
REMARK    7  A    between atoms: C_12  and  C_15
REMARK    8  A    between atoms: C_15  and  N_16
REMARK    9  A    between atoms: N_16  and  S_17
REMARK   10  A    between atoms: S_17  and  N_20
REMARK                            x       y       z     vdW  Elec       q    Type
REMARK                         _______ _______ _______ _____ _____    ______ ____
ROOT
ATOM      1  C   UNL     1      -2.916  -2.793   0.170  0.00  0.00    +0.204 C 
ATOM      2  O   UNL     1      -1.770  -2.547   0.481  0.00  0.00    -0.277 OA
ATOM      3  N   UNL     1      -3.231  -3.999  -0.344  0.00  0.00    -0.302 N 
ATOM      4  C   UNL     1      -2.224  -5.065  -0.422  0.00  0.00    +0.108 C 
ATOM      5  C   UNL     1      -2.158  -5.577  -1.864  0.00  0.00    +0.019 C 
ATOM      6  C   UNL     1      -3.557  -6.000  -2.316  0.00  0.00    +0.008 C 
ATOM      7  C   UNL     1      -4.496  -4.791  -2.274  0.00  0.00    +0.022 C 
ATOM      8  C   UNL     1      -4.590  -4.273  -0.831  0.00  0.00    +0.112 C 
ENDROOT
BRANCH   1   9
ATOM      9  C   UNL     1      -3.989  -1.751   0.360  0.00  0.00    +0.004 C 
ATOM     10  C   UNL     1      -5.138  -2.345   1.177  0.00  0.00    -0.001 C 
BRANCH   9  11
ATOM     11  N   UNL     1      -3.428  -0.595   1.072  0.00  0.00    +0.387 N 
ATOM     12  H   UNL     1      -4.165   0.064   1.276  0.00  0.00    -0.089 HD
ATOM     13  H   UNL     1      -3.005  -0.904   1.934  0.00  0.00    -0.089 HD
ATOM     14  H   UNL     1      -2.730  -0.151   0.495  0.00  0.00    -0.089 HD
ENDBRANCH   9  11
BRANCH   9  15
ATOM     15  C   UNL     1      -4.512  -1.304  -1.007  0.00  0.00    -0.004 C 
BRANCH  15  17
ATOM     16  C   UNL     1      -6.206   0.110  -2.179  0.00  0.00    +0.004 C 
ATOM     17  C   UNL     1      -5.682  -0.338  -0.813  0.00  0.00    -0.004 C 
ENDBRANCH  15  17
ENDBRANCH   9  15
ENDBRANCH   1   9
BRANCH   7  18
ATOM     18  C   UNL     1      -5.886  -5.207  -2.758  0.00  0.00    +0.112 C 
BRANCH  18  19
ATOM     19  N   UNL     1      -5.816  -5.595  -4.169  0.00  0.00    -0.180 NA
ATOM     20  H   UNL     1      -5.039  -5.360  -4.699  0.00  0.00    +0.149 HD
BRANCH  19  21
ATOM     21  S   UNL     1      -7.066  -6.435  -4.859  0.00  0.00    +0.092 S 
ATOM     22  O   UNL     1      -6.716  -6.635  -6.222  0.00  0.00    -0.142 OA
ATOM     23  O   UNL     1      -7.364  -7.513  -3.983  0.00  0.00    -0.142 OA
BRANCH  21  24
ATOM     24  N   UNL     1      -8.389  -5.439  -4.851  0.00  0.00    -0.193 NA
ATOM     25  H   UNL     1      -8.321  -4.545  -4.481  0.00  0.00    +0.145 HD
ATOM     26  H   UNL     1      -9.232  -5.750  -5.217  0.00  0.00    +0.145 HD
ENDBRANCH  21  24
ENDBRANCH  19  21
ENDBRANCH  18  19
ENDBRANCH   7  18
TORSDOF 8
