REMARK  Name = ZINC35397426
REMARK  4 active torsions:
REMARK  status: ('A' for Active; 'I' for Inactive)
REMARK    1  A    between atoms: C_5  and  S_6
REMARK    2  A    between atoms: S_6  and  N_9
REMARK    3  A    between atoms: N_9  and  C_10
REMARK    4  A    between atoms: C_12  and  C_23
REMARK                            x       y       z     vdW  Elec       q    Type
REMARK                         _______ _______ _______ _____ _____    ______ ____
ROOT
ATOM      1  C   UNL     1      -2.779  -2.298  -2.029  0.00  0.00    +0.091 A 
ATOM      2  C   UNL     1      -3.207  -2.680  -3.293  0.00  0.00    +0.046 A 
ATOM      3  C   UNL     1      -4.285  -3.571  -3.388  0.00  0.00    +0.103 A 
ATOM      4  C   UNL     1      -4.885  -4.038  -2.204  0.00  0.00    +0.113 A 
ATOM      5  N   UNL     1      -4.437  -3.642  -1.024  0.00  0.00    -0.347 N 
ATOM      6  C   UNL     1      -3.421  -2.809  -0.908  0.00  0.00    +0.110 A 
ATOM      7  N   UNL     1      -5.951  -4.917  -2.275  0.00  0.00    -0.316 N 
ATOM      8  C   UNL     1      -7.283  -4.380  -2.436  0.00  0.00    +0.106 C 
ATOM      9  C   UNL     1      -7.904  -4.105  -1.045  0.00  0.00    +0.019 C 
ATOM     10  C   UNL     1      -8.230  -5.372  -0.371  0.00  0.00    +0.002 C 
ATOM     11  C   UNL     1      -7.022  -6.256  -0.078  0.00  0.00    +0.002 C 
ATOM     12  C   UNL     1      -6.706  -7.092  -1.294  0.00  0.00    +0.019 C 
ATOM     13  C   UNL     1      -5.680  -6.366  -2.189  0.00  0.00    +0.106 C 
ATOM     14  H   UNL     1      -4.866  -3.977  -0.221  0.00  0.00    +0.167 HD
ENDROOT
BRANCH   3  15
ATOM     15  C   UNL     1      -4.781  -4.008  -4.701  0.00  0.00    +0.390 C 
ATOM     16  O   UNL     1      -4.322  -3.517  -5.723  0.00  0.00    -0.240 OA
ATOM     17  O   UNL     1      -5.653  -4.864  -4.772  0.00  0.00    -0.240 OA
ENDBRANCH   3  15
BRANCH   1  18
ATOM     18  N   UNL     1      -1.705  -1.410  -1.885  0.00  0.00    -0.096 NA
BRANCH  18  19
ATOM     19  S   UNL     1      -1.196  -0.965  -0.374  0.00  0.00    +0.098 S 
ATOM     20  O   UNL     1      -0.668  -2.134   0.238  0.00  0.00    -0.148 OA
ATOM     21  O   UNL     1      -2.253  -0.213   0.206  0.00  0.00    -0.148 OA
BRANCH  19  26
ATOM     22  C   UNL     1       0.140   1.497  -0.702  0.00  0.00    +0.038 A 
ATOM     23  C   UNL     1       1.337   2.170  -0.862  0.00  0.00    +0.025 A 
ATOM     24  C   UNL     1       2.491   1.459  -0.897  0.00  0.00    +0.057 A 
ATOM     25  S   UNL     1       1.900  -0.214  -0.702  0.00  0.00    -0.061 S 
ATOM     26  C   UNL     1       0.155   0.147  -0.586  0.00  0.00    +0.149 A 
ATOM     27 BR   UNL     1       4.266   2.079  -1.102  0.00  0.00    -0.043 Br
ENDBRANCH  19  26
ENDBRANCH  18  19
ENDBRANCH   1  18
TORSDOF 4
