REMARK  Name = ZINC14473749
REMARK  4 active torsions:
REMARK  status: ('A' for Active; 'I' for Inactive)
REMARK    1  A    between atoms: C_1  and  C_2
REMARK    2  A    between atoms: C_2  and  C_4
REMARK    3  A    between atoms: C_17  and  C_20
REMARK    4  A    between atoms: C_25  and  O_26
REMARK                            x       y       z     vdW  Elec       q    Type
REMARK                         _______ _______ _______ _____ _____    ______ ____
ROOT
ATOM      1  C   UNL     1      -0.643   0.831   0.134  0.00  0.00    +0.017 A 
ATOM      2  C   UNL     1       0.412  -0.091   0.149  0.00  0.00    +0.013 A 
ATOM      3  C   UNL     1       1.700   0.360   0.109  0.00  0.00    +0.024 A 
ATOM      4  C   UNL     1       1.963   1.728   0.057  0.00  0.00    +0.031 A 
ATOM      5  C   UNL     1       0.926   2.650   0.044  0.00  0.00    -0.019 A 
ATOM      6  C   UNL     1      -0.371   2.201   0.082  0.00  0.00    +0.017 A 
ATOM      7  C   UNL     1       1.155   4.146  -0.015  0.00  0.00    +0.049 C 
ATOM      8  C   UNL     1       0.520   4.737   1.245  0.00  0.00    -0.023 C 
ATOM      9  C   UNL     1       1.419   4.899   2.183  0.00  0.00    -0.030 C 
ATOM     10  C   UNL     1       2.782   4.438   1.698  0.00  0.00    +0.033 C 
ATOM     11  C   UNL     1       2.642   4.505   0.159  0.00  0.00    +0.029 C 
ATOM     12  C   UNL     1       3.555   3.500  -0.517  0.00  0.00    +0.108 C 
ATOM     13  N   UNL     1       3.287   2.159   0.013  0.00  0.00    -0.336 N 
ATOM     14  H   UNL     1       4.008   1.590   0.324  0.00  0.00    +0.147 HD
ENDROOT
BRANCH  12  15
ATOM     15  C   UNL     1       3.302   3.512  -2.002  0.00  0.00    +0.014 A 
ATOM     16  C   UNL     1       2.549   2.510  -2.584  0.00  0.00    +0.009 A 
ATOM     17  C   UNL     1       2.313   2.524  -3.946  0.00  0.00    +0.001 A 
ATOM     18  C   UNL     1       2.839   3.533  -4.731  0.00  0.00    +0.004 A 
ATOM     19  C   UNL     1       3.597   4.534  -4.156  0.00  0.00    +0.046 A 
ATOM     20  C   UNL     1       3.831   4.526  -2.788  0.00  0.00    +0.122 A 
BRANCH  20  21
ATOM     21  O   UNL     1       4.577   5.509  -2.219  0.00  0.00    -0.506 OA
ATOM     22  H   UNL     1       5.523   5.313  -2.183  0.00  0.00    +0.292 HD
ENDBRANCH  20  21
ENDBRANCH  12  15
BRANCH   1  24
ATOM     23  C   UNL     1      -2.328  -1.118   0.105  0.00  0.00    +0.091 C 
ATOM     24  C   UNL     1      -2.032   0.358   0.174  0.00  0.00    +0.160 C 
ATOM     25  O   UNL     1      -2.942   1.156   0.263  0.00  0.00    -0.292 OA
ENDBRANCH   1  24
TORSDOF 3
