REMARK  Name = ZINC55197030
REMARK  8 active torsions:
REMARK  status: ('A' for Active; 'I' for Inactive)
REMARK    1  A    between atoms: C_1  and  C_2
REMARK    2  A    between atoms: C_7  and  O_8
REMARK    3  A    between atoms: O_8  and  C_9
REMARK    4  A    between atoms: C_10  and  C_15
REMARK    5  A    between atoms: C_15  and  N_16
REMARK    6  A    between atoms: N_16  and  C_17
REMARK    7  A    between atoms: C_17  and  C_18
REMARK    8  A    between atoms: N_21  and  C_23
REMARK                            x       y       z     vdW  Elec       q    Type
REMARK                         _______ _______ _______ _____ _____    ______ ____
ROOT
ATOM      1  C   UNL     1      -0.059  -0.758   3.525  0.00  0.00    +0.225 A 
ATOM      2  C   UNL     1      -0.170  -0.104   4.746  0.00  0.00    +0.028 A 
ATOM      3  C   UNL     1      -0.255  -0.855   5.906  0.00  0.00    +0.011 A 
ATOM      4  C   UNL     1      -0.225  -2.239   5.802  0.00  0.00    +0.020 A 
ATOM      5  C   UNL     1      -0.112  -2.821   4.556  0.00  0.00    +0.114 A 
ATOM      6  N   UNL     1      -0.039  -2.079   3.467  0.00  0.00    -0.221 NA
ENDROOT
BRANCH   1   7
ATOM      7  O   UNL     1       0.025  -0.033   2.381  0.00  0.00    -0.437 OA
BRANCH   7  14
ATOM      8  C   UNL     1       2.523  -0.949   1.431  0.00  0.00    +0.047 C 
ATOM      9  C   UNL     1       1.235  -1.179   0.683  0.00  0.00    -0.008 A 
ATOM     10  C   UNL     1       1.245  -1.867  -0.515  0.00  0.00    +0.007 A 
ATOM     11  C   UNL     1       0.064  -2.079  -1.202  0.00  0.00    +0.000 A 
ATOM     12  C   UNL     1      -1.130  -1.602  -0.692  0.00  0.00    +0.004 A 
ATOM     13  C   UNL     1      -1.145  -0.914   0.505  0.00  0.00    +0.046 A 
ATOM     14  C   UNL     1       0.038  -0.706   1.200  0.00  0.00    +0.133 A 
ENDBRANCH   7  14
ENDBRANCH   1   7
BRANCH   2  15
ATOM     15  C   UNL     1      -0.198   1.401   4.807  0.00  0.00    +0.122 C 
BRANCH  15  16
ATOM     16  N   UNL     1      -1.546   1.880   4.474  0.00  0.00    -0.308 NA
ATOM     17  H   UNL     1      -1.840   1.535   3.573  0.00  0.00    +0.123 HD
BRANCH  16  18
ATOM     18  C   UNL     1      -1.612   3.346   4.524  0.00  0.00    +0.119 C 
BRANCH  18  19
ATOM     19  C   UNL     1      -3.007   3.799   4.178  0.00  0.00    +0.004 A 
ATOM     20  C   UNL     1      -3.483   4.090   2.895  0.00  0.00    +0.139 A 
ATOM     21  N   UNL     1      -4.737   4.449   2.996  0.00  0.00    -0.180 NA
ATOM     22  N   UNL     1      -5.099   4.397   4.349  0.00  0.00    -0.274 N 
ATOM     23  C   UNL     1      -4.022   3.990   5.052  0.00  0.00    +0.112 A 
ATOM     24  C   UNL     1      -6.417   4.721   4.901  0.00  0.00    +0.172 C 
ENDBRANCH  18  19
ENDBRANCH  16  18
ENDBRANCH  15  16
ENDBRANCH   2  15
TORSDOF 6
