REMARK  Name = ZINC61432096
REMARK  7 active torsions:
REMARK  status: ('A' for Active; 'I' for Inactive)
REMARK    1  A    between atoms: C_1  and  C_2
REMARK    2  A    between atoms: C_2  and  C_3
REMARK    3  A    between atoms: C_3  and  N_4
REMARK    4  A    between atoms: N_7  and  N_8
REMARK    5  A    between atoms: C_9  and  C_11
REMARK    6  A    between atoms: C_11  and  C_12
REMARK    7  A    between atoms: C_15  and  C_17
REMARK                            x       y       z     vdW  Elec       q    Type
REMARK                         _______ _______ _______ _____ _____    ______ ____
ROOT
ATOM      1  C   UNL     1       0.003  -6.803  -0.035  0.00  0.00    +0.153 C 
ENDROOT
BRANCH   1   2
ATOM      2  C   UNL     1      -0.252  -8.288  -0.040  0.00  0.00    +0.058 A 
ATOM      3  C   UNL     1       0.292  -9.069  -1.010  0.00  0.00    +0.071 A 
ATOM      4  S   UNL     1      -0.327 -10.676  -0.527  0.00  0.00    -0.075 S 
ATOM      5  C   UNL     1      -1.241 -10.134   0.910  0.00  0.00    +0.110 A 
ATOM      6  N   UNL     1      -0.997  -8.831   0.895  0.00  0.00    -0.243 NA
BRANCH   5   7
ATOM      7  C   UNL     1      -2.049 -10.926   1.862  0.00  0.00    +0.026 A 
ATOM      8  C   UNL     1      -2.694 -10.296   2.928  0.00  0.00    +0.013 A 
ATOM      9  C   UNL     1      -3.445 -11.040   3.813  0.00  0.00    +0.021 A 
ATOM     10  C   UNL     1      -3.561 -12.410   3.647  0.00  0.00    +0.042 A 
ATOM     11  C   UNL     1      -2.924 -13.041   2.593  0.00  0.00    +0.040 A 
ATOM     12  C   UNL     1      -2.173 -12.307   1.696  0.00  0.00    +0.052 A 
ATOM     13 CL   UNL     1      -1.381 -13.099   0.370  0.00  0.00    -0.083 Cl
ATOM     14 CL   UNL     1      -4.508 -13.339   4.766  0.00  0.00    -0.083 Cl
ENDBRANCH   5   7
ENDBRANCH   1   2
BRANCH   1  16
ATOM     15  N   UNL     1      -1.330  -4.720  -0.011  0.00  0.00    -0.233 N 
ATOM     16  C   UNL     1      -1.312  -6.067  -0.018  0.00  0.00    +0.235 C 
ATOM     17  O   UNL     1      -2.354  -6.688  -0.011  0.00  0.00    -0.274 OA
ATOM     18  H   UNL     1      -0.497  -4.223  -0.016  0.00  0.00    +0.173 HD
BRANCH  15  22
ATOM     19  N   UNL     1      -1.413  -1.998   0.005  0.00  0.00    -0.298 N 
ATOM     20  C   UNL     1      -2.571  -2.688   0.012  0.00  0.00    +0.316 C 
ATOM     21  O   UNL     1      -3.632  -2.095   0.025  0.00  0.00    -0.251 OA
ATOM     22  N   UNL     1      -2.553  -4.036   0.005  0.00  0.00    -0.218 N 
ATOM     23  H   UNL     1      -0.567  -2.472  -0.006  0.00  0.00    +0.150 HD
ATOM     24  H   UNL     1      -3.386  -4.532   0.010  0.00  0.00    +0.174 HD
BRANCH  19  25
ATOM     25  C   UNL     1      -1.433  -0.534   0.013  0.00  0.00    +0.105 C 
BRANCH  25  27
ATOM     26  C   UNL     1      -0.019   1.526   0.010  0.00  0.00    +0.005 C 
ATOM     27  C   UNL     1       0.002  -0.004   0.002  0.00  0.00    +0.015 C 
ENDBRANCH  25  27
ENDBRANCH  19  25
ENDBRANCH  15  22
ENDBRANCH   1  16
TORSDOF 6
