REMARK  Name = ZINC05515439
REMARK  4 active torsions:
REMARK  status: ('A' for Active; 'I' for Inactive)
REMARK    1  A    between atoms: C_4  and  C_7
REMARK    2  A    between atoms: C_7  and  C_9
REMARK    3  A    between atoms: C_9  and  C_21
REMARK    4  A    between atoms: C_10  and  C_11
REMARK                            x       y       z     vdW  Elec       q    Type
REMARK                         _______ _______ _______ _____ _____    ______ ____
ROOT
ATOM      1  C   UNL     1       2.935   4.024   0.214  0.00  0.00    +0.100 C 
ATOM      2  C   UNL     1       1.565   4.183   0.075  0.00  0.00    +0.032 C 
ENDROOT
BRANCH   2   3
ATOM      3  C   UNL     1       0.705   3.079   0.257  0.00  0.00    +0.001 A 
ATOM      4  C   UNL     1       1.008   1.881   0.879  0.00  0.00    +0.091 A 
ATOM      5  N   UNL     1      -0.070   1.076   0.856  0.00  0.00    -0.360 N 
ATOM      6  H   UNL     1      -0.098   0.182   1.232  0.00  0.00    +0.165 HD
ATOM      7  C   UNL     1      -1.129   1.693   0.220  0.00  0.00    +0.047 A 
ATOM      8  C   UNL     1      -0.702   2.969  -0.179  0.00  0.00    +0.007 A 
ATOM      9  C   UNL     1      -1.576   3.821  -0.848  0.00  0.00    +0.010 A 
ATOM     10  C   UNL     1      -2.864   3.408  -1.112  0.00  0.00    +0.001 A 
ATOM     11  C   UNL     1      -3.289   2.149  -0.715  0.00  0.00    +0.002 A 
ATOM     12  C   UNL     1      -2.434   1.295  -0.052  0.00  0.00    +0.026 A 
ENDBRANCH   2   3
BRANCH   1  13
ATOM     13  C   UNL     1       3.814   5.197   0.206  0.00  0.00    +0.203 C 
ATOM     14  O   UNL     1       3.335   6.316   0.212  0.00  0.00    -0.286 OA
BRANCH  13  18
ATOM     15  C   UNL     1       8.032   4.692   0.165  0.00  0.00    +0.000 A 
ATOM     16  C   UNL     1       7.219   3.745  -0.432  0.00  0.00    +0.001 A 
ATOM     17  C   UNL     1       5.848   3.903  -0.422  0.00  0.00    +0.012 A 
ATOM     18  C   UNL     1       5.282   5.021   0.192  0.00  0.00    +0.023 A 
ATOM     19  C   UNL     1       6.109   5.976   0.787  0.00  0.00    +0.012 A 
ATOM     20  C   UNL     1       7.477   5.803   0.775  0.00  0.00    +0.001 A 
ENDBRANCH  13  18
ENDBRANCH   1  13
BRANCH   1  21
ATOM     21  C   UNL     1       3.492   2.713   0.366  0.00  0.00    +0.103 C 
ATOM     22  N   UNL     1       3.934   1.674   0.487  0.00  0.00    -0.191 NA
ENDBRANCH   1  21
TORSDOF 4
