REMARK  Name = ZINC11255745
REMARK  5 active torsions:
REMARK  status: ('A' for Active; 'I' for Inactive)
REMARK    1  A    between atoms: C_1  and  C_2
REMARK    2  A    between atoms: C_2  and  C_25
REMARK    3  A    between atoms: N_5  and  C_9
REMARK    4  A    between atoms: C_9  and  C_10
REMARK    5  A    between atoms: N_12  and  N_13
REMARK                            x       y       z     vdW  Elec       q    Type
REMARK                         _______ _______ _______ _____ _____    ______ ____
ROOT
ATOM      1  C   UNL     1       1.784   7.154   3.055  0.00  0.00    +0.215 C 
ENDROOT
BRANCH   1   6
ATOM      2  C   UNL     1      -0.699   6.605   7.005  0.00  0.00    +0.047 C 
ATOM      3  C   UNL     1      -0.076   7.756   6.214  0.00  0.00    +0.135 C 
ATOM      4  C   UNL     1       1.148   7.281   5.455  0.00  0.00    +0.251 C 
ATOM      5  O   UNL     1       2.166   6.820   5.924  0.00  0.00    -0.272 OA
ATOM      6  N   UNL     1       0.868   7.478   4.152  0.00  0.00    -0.215 N 
ATOM      7  C   UNL     1      -0.348   8.010   3.983  0.00  0.00    +0.310 C 
ATOM      8  O   UNL     1      -0.822   8.281   2.898  0.00  0.00    -0.252 OA
ATOM      9  N   UNL     1      -0.989   8.208   5.150  0.00  0.00    -0.281 N 
ATOM     10  H   UNL     1      -1.877   8.579   5.267  0.00  0.00    +0.152 HD
BRANCH   3  11
ATOM     11  C   UNL     1       0.279   8.900   7.129  0.00  0.00    -0.015 A 
ATOM     12  C   UNL     1       1.546   8.982   7.674  0.00  0.00    +0.007 A 
ATOM     13  C   UNL     1       1.873  10.034   8.509  0.00  0.00    +0.020 A 
ATOM     14  C   UNL     1       0.929  10.999   8.808  0.00  0.00    +0.041 A 
ATOM     15  C   UNL     1      -0.342  10.914   8.266  0.00  0.00    +0.020 A 
ATOM     16  C   UNL     1      -0.666   9.865   7.427  0.00  0.00    +0.007 A 
ATOM     17 CL   UNL     1       1.337  12.316   9.862  0.00  0.00    -0.084 Cl
ENDBRANCH   3  11
ENDBRANCH   1   6
BRANCH   1  18
ATOM     18  C   UNL     1       1.544   5.738   2.602  0.00  0.00    +0.248 C 
ATOM     19  O   UNL     1       0.691   5.064   3.141  0.00  0.00    -0.273 OA
ATOM     20  N   UNL     1       2.276   5.219   1.596  0.00  0.00    -0.222 N 
ATOM     21  H   UNL     1       2.958   5.757   1.165  0.00  0.00    +0.174 HD
BRANCH  20  22
ATOM     22  N   UNL     1       2.053   3.901   1.175  0.00  0.00    -0.137 N 
ATOM     23  C   UNL     1       1.412   3.568   0.035  0.00  0.00    +0.263 C 
ATOM     24  O   UNL     1       0.936   4.322  -0.786  0.00  0.00    -0.271 OA
ATOM     25  C   UNL     1       1.411   2.057  -0.000  0.00  0.00    +0.114 C 
ATOM     26  C   UNL     1      -0.019   1.526   0.010  0.00  0.00    +0.035 C 
ATOM     27  C   UNL     1       0.002  -0.004   0.002  0.00  0.00    +0.003 C 
ATOM     28  C   UNL     1       0.737  -0.496  -1.246  0.00  0.00    +0.000 C 
ATOM     29  C   UNL     1       2.176   0.024  -1.230  0.00  0.00    +0.003 C 
ATOM     30  C   UNL     1       2.164   1.555  -1.227  0.00  0.00    +0.035 C 
ATOM     31  N   UNL     1       2.113   1.671   1.230  0.00  0.00    -0.284 N 
ATOM     32  C   UNL     1       2.451   2.817   1.851  0.00  0.00    +0.326 C 
ATOM     33  O   UNL     1       3.049   2.862   2.908  0.00  0.00    -0.251 OA
ATOM     34  H   UNL     1       2.297   0.769   1.535  0.00  0.00    +0.151 HD
ENDBRANCH  20  22
ENDBRANCH   1  18
TORSDOF 4
