REMARK  Name = ZINC13020831
REMARK  8 active torsions:
REMARK  status: ('A' for Active; 'I' for Inactive)
REMARK    1  A    between atoms: C_9  and  S_17
REMARK    2  A    between atoms: N_10  and  C_13
REMARK    3  A    between atoms: C_13  and  C_14
REMARK    4  A    between atoms: C_14  and  C_15
REMARK    5  A    between atoms: S_17  and  C_18
REMARK    6  A    between atoms: C_18  and  C_19
REMARK    7  A    between atoms: N_24  and  C_25
REMARK    8  A    between atoms: C_25  and  C_26
REMARK                            x       y       z     vdW  Elec       q    Type
REMARK                         _______ _______ _______ _____ _____    ______ ____
ROOT
ATOM      1  C   UNL     1       3.281   1.467   5.920  0.00  0.00    +0.021 A 
ATOM      2  C   UNL     1       2.679   2.003   4.815  0.00  0.00    +0.017 A 
ATOM      3  C   UNL     1       1.648   1.309   4.186  0.00  0.00    +0.065 A 
ATOM      4  C   UNL     1       1.228   0.056   4.689  0.00  0.00    +0.080 A 
ATOM      5  C   UNL     1       1.858  -0.471   5.819  0.00  0.00    +0.048 A 
ATOM      6  C   UNL     1       2.875   0.236   6.423  0.00  0.00    +0.043 A 
ATOM      7 CL   UNL     1       3.659  -0.417   7.827  0.00  0.00    -0.083 Cl
ATOM      8  N   UNL     1       0.225  -0.604   4.064  0.00  0.00    -0.223 NA
ATOM      9  C   UNL     1      -0.368  -0.105   3.007  0.00  0.00    +0.173 A 
ATOM     10  N   UNL     1      -0.020   1.094   2.454  0.00  0.00    -0.287 N 
ATOM     11  C   UNL     1       0.970   1.840   2.996  0.00  0.00    +0.262 A 
ATOM     12  O   UNL     1       1.286   2.913   2.516  0.00  0.00    -0.267 OA
ENDROOT
BRANCH  10  13
ATOM     13  C   UNL     1      -0.729   1.579   1.267  0.00  0.00    +0.138 C 
BRANCH  13  14
ATOM     14  C   UNL     1      -0.013   1.086   0.008  0.00  0.00    +0.147 C 
BRANCH  14  15
ATOM     15  C   UNL     1      -0.742   1.585  -1.213  0.00  0.00    +0.358 C 
ATOM     16  O   UNL     1      -1.732   2.266  -1.089  0.00  0.00    -0.246 OA
ATOM     17  O   UNL     1      -0.290   1.274  -2.438  0.00  0.00    -0.246 OA
ENDBRANCH  14  15
ENDBRANCH  13  14
ENDBRANCH  10  13
BRANCH   9  18
ATOM     18  S   UNL     1      -1.670  -1.029   2.260  0.00  0.00    -0.078 S 
BRANCH  18  19
ATOM     19  C   UNL     1      -1.704  -2.467   3.358  0.00  0.00    +0.173 C 
BRANCH  19  20
ATOM     20  C   UNL     1      -2.775  -3.424   2.899  0.00  0.00    +0.231 C 
ATOM     21  O   UNL     1      -3.448  -3.159   1.927  0.00  0.00    -0.274 OA
ATOM     22  N   UNL     1      -2.984  -4.574   3.571  0.00  0.00    -0.240 N 
ATOM     23  C   UNL     1      -3.942  -5.429   3.160  0.00  0.00    +0.306 C 
ATOM     24  O   UNL     1      -4.617  -5.163   2.185  0.00  0.00    -0.252 OA
ATOM     25  N   UNL     1      -4.151  -6.579   3.832  0.00  0.00    -0.291 N 
ATOM     26  H   UNL     1      -2.445  -4.786   4.349  0.00  0.00    +0.159 HD
ATOM     27  H   UNL     1      -3.612  -6.791   4.610  0.00  0.00    +0.151 HD
BRANCH  25  28
ATOM     28  C   UNL     1      -5.191  -7.508   3.386  0.00  0.00    +0.219 C 
BRANCH  28  29
ATOM     29  C   UNL     1      -5.221  -8.724   4.314  0.00  0.00    +0.405 C 
ATOM     30  F   UNL     1      -5.496  -8.307   5.620  0.00  0.00    -0.169 F 
ATOM     31  F   UNL     1      -6.215  -9.612   3.888  0.00  0.00    -0.169 F 
ATOM     32  F   UNL     1      -3.978  -9.366   4.281  0.00  0.00    -0.169 F 
ENDBRANCH  28  29
ENDBRANCH  25  28
ENDBRANCH  19  20
ENDBRANCH  18  19
ENDBRANCH   9  18
TORSDOF 8
