REMARK  Name = ZINC32926642
REMARK  7 active torsions:
REMARK  status: ('A' for Active; 'I' for Inactive)
REMARK    1  A    between atoms: C_1  and  C_2
REMARK    2  A    between atoms: C_2  and  C_4
REMARK    3  A    between atoms: C_2  and  N_18
REMARK    4  A    between atoms: C_7  and  N_10
REMARK    5  A    between atoms: C_12  and  C_15
REMARK    6  A    between atoms: C_19  and  C_21
REMARK    7  A    between atoms: C_22  and  C_23
REMARK                            x       y       z     vdW  Elec       q    Type
REMARK                         _______ _______ _______ _____ _____    ______ ____
ROOT
ATOM      1  C   UNL     1      -9.584   1.560  -1.365  0.00  0.00    +0.033 C 
ATOM      2  C   UNL     1      -9.093   1.847   0.055  0.00  0.00    +0.100 C 
ENDROOT
BRANCH   2   3
ATOM      3  C   UNL     1      -7.592   1.984   0.050  0.00  0.00    -0.027 A 
ATOM      4  C   UNL     1      -7.013   3.240   0.055  0.00  0.00    +0.007 A 
ATOM      5  C   UNL     1      -5.638   3.368   0.049  0.00  0.00    +0.028 A 
ATOM      6  C   UNL     1      -4.837   2.234   0.038  0.00  0.00    +0.067 A 
ATOM      7  C   UNL     1      -5.421   0.975   0.029  0.00  0.00    +0.028 A 
ATOM      8  C   UNL     1      -6.796   0.853   0.039  0.00  0.00    +0.007 A 
BRANCH   6   9
ATOM      9  N   UNL     1      -3.440   2.361   0.032  0.00  0.00    -0.219 N 
ATOM     10  C   UNL     1      -2.540   1.354   0.021  0.00  0.00    +0.149 A 
ATOM     11  C   UNL     1      -1.302   1.932   0.019  0.00  0.00    +0.167 A 
ATOM     12  N   UNL     1      -1.455   3.267   0.033  0.00  0.00    -0.124 NA
ATOM     13  N   UNL     1      -2.709   3.558   0.035  0.00  0.00    -0.060 NA
BRANCH  11  14
ATOM     14  C   UNL     1      -0.014   1.212   0.009  0.00  0.00    +0.263 C 
ATOM     15  O   UNL     1       0.002  -0.004   0.002  0.00  0.00    -0.269 OA
ATOM     16  N   UNL     1       1.143   1.901   0.001  0.00  0.00    -0.324 N 
ATOM     17  H   UNL     1       2.103   1.365  -0.006  0.00  0.00    +0.145 HD
ATOM     18  H   UNL     1       1.129   3.001   0.003  0.00  0.00    +0.145 HD
ENDBRANCH  11  14
ENDBRANCH   6   9
ENDBRANCH   2   3
BRANCH   2  19
ATOM     19  N   UNL     1      -9.480   0.744   0.938  0.00  0.00    -0.305 N 
ATOM     20  C   UNL     1     -10.704   0.731   1.503  0.00  0.00    +0.237 C 
ATOM     21  O   UNL     1     -11.488   1.635   1.279  0.00  0.00    -0.271 OA
ATOM     22  H   UNL     1      -8.772  -0.073   1.140  0.00  0.00    +0.150 HD
BRANCH  20  23
ATOM     23  C   UNL     1     -11.078  -0.336   2.357  0.00  0.00    +0.068 C 
ATOM     24  C   UNL     1     -12.308  -0.350   2.925  0.00  0.00    +0.021 C 
BRANCH  24  25
ATOM     25  C   UNL     1     -12.682  -1.418   3.779  0.00  0.00    +0.032 A 
ATOM     26  C   UNL     1     -13.863  -1.607   4.437  0.00  0.00    +0.063 A 
ATOM     27  C   UNL     1     -14.038  -2.745   5.246  0.00  0.00    +0.008 A 
ATOM     28  C   UNL     1     -15.180  -3.116   6.002  0.00  0.00    +0.010 A 
ATOM     29  C   UNL     1     -15.185  -4.258   6.737  0.00  0.00    +0.001 A 
ATOM     30  C   UNL     1     -14.083  -5.103   6.777  0.00  0.00    +0.001 A 
ATOM     31  C   UNL     1     -12.951  -4.779   6.056  0.00  0.00    +0.016 A 
ATOM     32  C   UNL     1     -12.931  -3.623   5.306  0.00  0.00    +0.021 A 
ATOM     33  S   UNL     1     -11.729  -2.849   4.254  0.00  0.00    -0.087 S 
ATOM     34 CL   UNL     1     -15.145  -0.447   4.276  0.00  0.00    -0.082 Cl
ENDBRANCH  24  25
ENDBRANCH  20  23
ENDBRANCH   2  19
TORSDOF 6
