REMARK  Name = ZINC61846777
REMARK  5 active torsions:
REMARK  status: ('A' for Active; 'I' for Inactive)
REMARK    1  A    between atoms: C_3  and  O_10
REMARK    2  A    between atoms: C_4  and  N_9
REMARK    3  A    between atoms: C_6  and  C_7
REMARK    4  A    between atoms: O_10  and  C_11
REMARK    5  A    between atoms: C_14  and  C_18
REMARK                            x       y       z     vdW  Elec       q    Type
REMARK                         _______ _______ _______ _____ _____    ______ ____
ROOT
ATOM      1  C   UNL     1       0.138   1.331  -1.015  0.00  0.00    +0.022 A 
ATOM      2  C   UNL     1       1.271   2.057  -0.714  0.00  0.00    +0.049 A 
ATOM      3  C   UNL     1       2.431   1.407  -0.317  0.00  0.00    +0.149 A 
ATOM      4  C   UNL     1       2.455   0.015  -0.220  0.00  0.00    +0.069 A 
ATOM      5  C   UNL     1       1.322  -0.719  -0.520  0.00  0.00    +0.045 A 
ATOM      6  C   UNL     1       0.155  -0.062  -0.921  0.00  0.00    +0.054 A 
ENDROOT
BRANCH   4   7
ATOM      7  N   UNL     1       3.627  -0.638   0.180  0.00  0.00    -0.355 N 
ATOM      8  H   UNL     1       4.421  -0.124   0.391  0.00  0.00    +0.142 HD
ATOM      9  H   UNL     1       3.643  -1.606   0.247  0.00  0.00    +0.142 HD
ENDBRANCH   4   7
BRANCH   6  10
ATOM     10  C   UNL     1      -1.021  -0.817  -1.234  0.00  0.00    +0.099 C 
ATOM     11  N   UNL     1      -1.954  -1.415  -1.482  0.00  0.00    -0.191 NA
ENDBRANCH   6  10
BRANCH   3  12
ATOM     12  O   UNL     1       3.544   2.127  -0.022  0.00  0.00    -0.454 OA
BRANCH  12  13
ATOM     13  C   UNL     1       3.473   3.479  -0.119  0.00  0.00    +0.130 A 
ATOM     14  C   UNL     1       3.783   4.105  -1.321  0.00  0.00    +0.047 A 
ATOM     15  C   UNL     1       3.713   5.476  -1.425  0.00  0.00    +0.024 A 
ATOM     16  C   UNL     1       3.329   6.240  -0.319  0.00  0.00    +0.070 A 
ATOM     17  C   UNL     1       3.017   5.607   0.889  0.00  0.00    +0.062 A 
ATOM     18  C   UNL     1       3.085   4.233   0.982  0.00  0.00    +0.067 A 
ATOM     19 CL   UNL     1       2.540   6.549   2.267  0.00  0.00    -0.082 Cl
BRANCH  16  20
ATOM     20  C   UNL     1       3.256   7.666  -0.422  0.00  0.00    +0.101 C 
ATOM     21  N   UNL     1       3.197   8.798  -0.504  0.00  0.00    -0.191 NA
ENDBRANCH  16  20
ENDBRANCH  12  13
ENDBRANCH   3  12
TORSDOF 5
