REMARK  Name = ZINC12499224
REMARK  8 active torsions:
REMARK  status: ('A' for Active; 'I' for Inactive)
REMARK    1  A    between atoms: C_1  and  C_2
REMARK    2  A    between atoms: C_4  and  O_9
REMARK    3  A    between atoms: O_9  and  C_10
REMARK    4  A    between atoms: C_10  and  C_11
REMARK    5  A    between atoms: N_13  and  C_14
REMARK    6  A    between atoms: C_14  and  N_16
REMARK    7  A    between atoms: N_16  and  C_17
REMARK    8  A    between atoms: C_22  and  C_23
REMARK                            x       y       z     vdW  Elec       q    Type
REMARK                         _______ _______ _______ _____ _____    ______ ____
ROOT
ATOM      1  C   UNL     1      -0.028   1.765  -0.207  0.00  0.00    +0.141 C 
ATOM      2  S   UNL     1       0.012   0.085  -0.537  0.00  0.00    -0.018 S 
ENDROOT
BRANCH   1   5
ATOM      3  C   UNL     1       2.291   1.868  -0.448  0.00  0.00    +0.256 C 
ATOM      4  O   UNL     1       2.320   0.679  -0.683  0.00  0.00    -0.272 OA
ATOM      5  N   UNL     1       1.116   2.477  -0.197  0.00  0.00    -0.265 N 
ATOM      6  H   UNL     1       1.093   3.429  -0.010  0.00  0.00    +0.157 HD
BRANCH   3   7
ATOM      7  C   UNL     1       3.570   2.665  -0.438  0.00  0.00    +0.324 C 
BRANCH   7   8
ATOM      8  O   UNL     1       4.671   1.802  -0.730  0.00  0.00    -0.483 OA
BRANCH   8  12
ATOM      9  C   UNL     1       9.486   1.319  -1.367  0.00  0.00    +0.045 C 
ATOM     10  C   UNL     1       8.276   2.165  -1.066  0.00  0.00    -0.033 A 
ATOM     11  C   UNL     1       7.021   1.588  -1.036  0.00  0.00    +0.050 A 
ATOM     12  C   UNL     1       5.907   2.367  -0.759  0.00  0.00    +0.122 A 
ATOM     13  C   UNL     1       6.056   3.726  -0.518  0.00  0.00    +0.047 A 
ATOM     14  C   UNL     1       7.313   4.297  -0.543  0.00  0.00    +0.019 A 
ATOM     15  C   UNL     1       8.423   3.518  -0.820  0.00  0.00    +0.021 A 
ATOM     16 BR   UNL     1      10.142   4.304  -0.860  0.00  0.00    -0.050 Br
ENDBRANCH   8  12
ENDBRANCH   7   8
ENDBRANCH   3   7
ENDBRANCH   1   5
BRANCH   1  17
ATOM     17  N   UNL     1      -1.205   2.375   0.039  0.00  0.00    -0.296 N 
ATOM     18  H   UNL     1      -1.222   3.311   0.294  0.00  0.00    +0.154 HD
BRANCH  17  19
ATOM     19  C   UNL     1      -2.395   1.663  -0.073  0.00  0.00    +0.045 A 
ATOM     20  C   UNL     1      -2.516   0.408   0.511  0.00  0.00    +0.024 A 
ATOM     21  C   UNL     1      -3.699  -0.293   0.403  0.00  0.00    +0.002 A 
ATOM     22  C   UNL     1      -4.770   0.240  -0.297  0.00  0.00    +0.001 A 
ATOM     23  C   UNL     1      -4.667   1.480  -0.888  0.00  0.00    +0.015 A 
ATOM     24  C   UNL     1      -3.477   2.205  -0.782  0.00  0.00    +0.058 A 
BRANCH  24  25
ATOM     25  C   UNL     1      -3.360   3.534  -1.413  0.00  0.00    +0.243 C 
ATOM     26  O   UNL     1      -2.293   4.118  -1.406  0.00  0.00    -0.270 OA
ATOM     27  N   UNL     1      -4.434   4.100  -1.997  0.00  0.00    -0.325 N 
ATOM     28  H   UNL     1      -5.285   3.634  -2.003  0.00  0.00    +0.145 HD
ATOM     29  H   UNL     1      -4.357   4.973  -2.412  0.00  0.00    +0.145 HD
ENDBRANCH  24  25
ENDBRANCH  17  19
ENDBRANCH   1  17
TORSDOF 7
