REMARK  Name = ZINC35535509
REMARK  7 active torsions:
REMARK  status: ('A' for Active; 'I' for Inactive)
REMARK    1  A    between atoms: C_4  and  O_36
REMARK    2  A    between atoms: C_5  and  N_7
REMARK    3  A    between atoms: N_10  and  C_13
REMARK    4  A    between atoms: C_13  and  C_14
REMARK    5  A    between atoms: N_16  and  C_17
REMARK    6  A    between atoms: C_18  and  C_26
REMARK    7  A    between atoms: N_28  and  C_29
REMARK                            x       y       z     vdW  Elec       q    Type
REMARK                         _______ _______ _______ _____ _____    ______ ____
ROOT
ATOM      1  C   UNL     1       3.399  -8.676  -2.433  0.00  0.00    +0.084 A 
ATOM      2  C   UNL     1       4.071  -9.839  -2.776  0.00  0.00    +0.069 A 
ATOM      3  C   UNL     1       3.560 -10.592  -3.908  0.00  0.00    -0.023 A 
ATOM      4  C   UNL     1       2.470 -10.044  -4.489  0.00  0.00    -0.004 A 
ATOM      5  S   UNL     1       2.145  -8.584  -3.546  0.00  0.00    -0.077 S 
ATOM      6  C   UNL     1       1.716 -10.577  -5.668  0.00  0.00    +0.043 C 
ATOM      7  C   UNL     1       2.586 -11.639  -6.357  0.00  0.00    +0.005 C 
ATOM      8  C   UNL     1       3.127 -12.601  -5.296  0.00  0.00    +0.005 C 
ATOM      9  C   UNL     1       4.165 -11.888  -4.427  0.00  0.00    +0.037 C 
ENDROOT
BRANCH   1  12
ATOM     10  C   UNL     1       2.921  -6.707  -1.208  0.00  0.00    +0.232 C 
ATOM     11  O   UNL     1       1.972  -6.498  -1.933  0.00  0.00    -0.274 OA
ATOM     12  N   UNL     1       3.692  -7.795  -1.403  0.00  0.00    -0.278 N 
ATOM     13  H   UNL     1       4.451  -7.962  -0.823  0.00  0.00    +0.155 HD
BRANCH  10  14
ATOM     14  C   UNL     1       3.239  -5.749  -0.088  0.00  0.00    +0.181 C 
BRANCH  14  18
ATOM     15  N   UNL     1       1.224  -2.068  -0.088  0.00  0.00    -0.325 N 
ATOM     16  C   UNL     1       1.240  -2.820   1.175  0.00  0.00    +0.120 C 
ATOM     17  C   UNL     1       2.389  -3.833   1.124  0.00  0.00    +0.104 C 
ATOM     18  N   UNL     1       2.259  -4.655  -0.087  0.00  0.00    -0.291 NA
ATOM     19  C   UNL     1       2.381  -3.837  -1.301  0.00  0.00    +0.104 C 
ATOM     20  C   UNL     1       1.226  -2.825  -1.349  0.00  0.00    +0.120 C 
BRANCH  15  25
ATOM     21  C   UNL     1      -0.031   1.390  -0.085  0.00  0.00    +0.002 A 
ATOM     22  C   UNL     1       1.154   2.102  -0.096  0.00  0.00    +0.004 A 
ATOM     23  C   UNL     1       2.366   1.435  -0.104  0.00  0.00    +0.047 A 
ATOM     24  C   UNL     1       2.394   0.050  -0.101  0.00  0.00    +0.138 A 
ATOM     25  C   UNL     1       1.201  -0.668  -0.090  0.00  0.00    +0.072 A 
ATOM     26  C   UNL     1      -0.011   0.007  -0.082  0.00  0.00    +0.027 A 
BRANCH  24  27
ATOM     27  O   UNL     1       3.585  -0.607  -0.110  0.00  0.00    -0.505 OA
ATOM     28  H   UNL     1       3.937  -0.795   0.771  0.00  0.00    +0.292 HD
ENDBRANCH  24  27
ENDBRANCH  15  25
ENDBRANCH  14  18
ENDBRANCH  10  14
ENDBRANCH   1  12
BRANCH   2  29
ATOM     29  C   UNL     1       5.250 -10.289  -2.029  0.00  0.00    +0.251 C 
ATOM     30  O   UNL     1       5.117 -11.028  -1.071  0.00  0.00    -0.270 OA
ATOM     31  N   UNL     1       6.480  -9.886  -2.403  0.00  0.00    -0.281 N 
ATOM     32  H   UNL     1       6.592  -9.352  -3.206  0.00  0.00    +0.155 HD
BRANCH  31  33
ATOM     33  C   UNL     1       7.595 -10.236  -1.635  0.00  0.00    +0.034 A 
ATOM     34  C   UNL     1       8.655  -9.348  -1.502  0.00  0.00    +0.025 A 
ATOM     35  C   UNL     1       9.755  -9.697  -0.743  0.00  0.00    +0.022 A 
ATOM     36  C   UNL     1       9.801 -10.929  -0.114  0.00  0.00    +0.041 A 
ATOM     37  C   UNL     1       8.746 -11.815  -0.244  0.00  0.00    +0.022 A 
ATOM     38  C   UNL     1       7.641 -11.469  -0.998  0.00  0.00    +0.025 A 
ATOM     39 CL   UNL     1      11.185 -11.364   0.839  0.00  0.00    -0.084 Cl
ENDBRANCH  31  33
ENDBRANCH   2  29
TORSDOF 7
