REMARK  Name = ZINC43218727
REMARK  11 active torsions:
REMARK  status: ('A' for Active; 'I' for Inactive)
REMARK    1  A    between atoms: C_1  and  C_2
REMARK    2  A    between atoms: C_2  and  C_3
REMARK    3  A    between atoms: C_2  and  C_4
REMARK    4  A    between atoms: C_2  and  N_5
REMARK    5  A    between atoms: C_10  and  C_32
REMARK    6  A    between atoms: C_13  and  C_18
REMARK    7  A    between atoms: C_13  and  C_29
REMARK    8  A    between atoms: C_18  and  C_19
REMARK    9  A    between atoms: C_35  and  N_38
REMARK   10  A    between atoms: N_38  and  C_39
REMARK   11  A    between atoms: N_38  and  C_40
REMARK                            x       y       z     vdW  Elec       q    Type
REMARK                         _______ _______ _______ _____ _____    ______ ____
ROOT
ATOM      1  N   UNL     1       0.651  -0.465  -1.214  0.00  0.00    -0.236 N 
ATOM      2  C   UNL     1       0.068  -1.259  -2.171  0.00  0.00    +0.225 C 
ATOM      3  O   UNL     1      -1.112  -1.502  -2.312  0.00  0.00    -0.275 OA
ATOM      4  C   UNL     1       1.167  -1.739  -2.971  0.00  0.00    +0.077 C 
ATOM      5  C   UNL     1       1.442  -2.302  -4.304  0.00  0.00    -0.027 C 
ATOM      6  N   UNL     1       2.945  -2.271  -4.354  0.00  0.00    +0.396 N 
ATOM      7  C   UNL     1       3.413  -1.233  -3.388  0.00  0.00    +0.052 C 
ATOM      8  C   UNL     1       2.139  -0.493  -2.956  0.00  0.00    +0.086 C 
ATOM      9  C   UNL     1       1.952  -0.164  -1.500  0.00  0.00    +0.225 C 
ATOM     10  O   UNL     1       2.786   0.276  -0.739  0.00  0.00    -0.275 OA
ATOM     11  H   UNL     1       3.314  -3.173  -4.093  0.00  0.00    -0.083 HD
ATOM     12  H   UNL     1       3.251  -2.034  -5.286  0.00  0.00    -0.083 HD
ENDROOT
BRANCH   5  13
ATOM     13  C   UNL     1       0.929  -3.715  -4.408  0.00  0.00    -0.060 A 
ATOM     14  C   UNL     1       1.661  -4.757  -3.868  0.00  0.00    +0.004 A 
ATOM     15  C   UNL     1       1.193  -6.053  -3.962  0.00  0.00    +0.023 A 
ATOM     16  C   UNL     1      -0.014  -6.309  -4.598  0.00  0.00    +0.029 A 
ATOM     17  C   UNL     1      -0.747  -5.261  -5.139  0.00  0.00    +0.023 A 
ATOM     18  C   UNL     1      -0.277  -3.966  -5.037  0.00  0.00    +0.004 A 
BRANCH  16  19
ATOM     19  N   UNL     1      -0.490  -7.619  -4.695  0.00  0.00    -0.336 N 
ATOM     20  C   UNL     1       0.340  -8.736  -4.237  0.00  0.00    +0.129 C 
ATOM     21  C   UNL     1      -1.820  -7.876  -5.254  0.00  0.00    +0.129 C 
ENDBRANCH  16  19
ENDBRANCH   5  13
BRANCH   1  23
ATOM     22  C   UNL     1      -0.068   1.542  -0.015  0.00  0.00    +0.031 C 
ATOM     23  C   UNL     1      -0.048   0.012  -0.018  0.00  0.00    +0.036 C 
ATOM     24  C   UNL     1       0.677  -0.491   1.231  0.00  0.00    +0.031 C 
ATOM     25  C   UNL     1      -1.484  -0.517  -0.022  0.00  0.00    +0.031 C 
ENDBRANCH   1  23
BRANCH   7  26
ATOM     26  C   UNL     1       4.354  -0.274  -4.069  0.00  0.00    +0.347 C 
ATOM     27  O   UNL     1       4.646  -0.435  -5.242  0.00  0.00    -0.248 OA
ATOM     28  O   UNL     1       4.824   0.664  -3.447  0.00  0.00    -0.248 OA
ENDBRANCH   7  26
BRANCH   7  29
ATOM     29  C   UNL     1       4.103  -1.895  -2.193  0.00  0.00    +0.037 C 
BRANCH  29  30
ATOM     30  C   UNL     1       5.309  -2.661  -2.671  0.00  0.00    -0.023 A 
ATOM     31  C   UNL     1       5.356  -3.968  -2.974  0.00  0.00    +0.087 A 
ATOM     32  N   UNL     1       6.620  -4.310  -3.371  0.00  0.00    -0.360 N 
ATOM     33  H   UNL     1       6.899  -5.199  -3.640  0.00  0.00    +0.165 HD
ATOM     34  C   UNL     1       7.439  -3.203  -3.332  0.00  0.00    +0.047 A 
ATOM     35  C   UNL     1       6.652  -2.120  -2.897  0.00  0.00    +0.003 A 
ATOM     36  C   UNL     1       7.222  -0.853  -2.767  0.00  0.00    +0.010 A 
ATOM     37  C   UNL     1       8.542  -0.669  -3.066  0.00  0.00    +0.001 A 
ATOM     38  C   UNL     1       9.322  -1.732  -3.499  0.00  0.00    +0.002 A 
ATOM     39  C   UNL     1       8.782  -2.994  -3.626  0.00  0.00    +0.026 A 
ENDBRANCH  29  30
ENDBRANCH   7  29
TORSDOF 6
