REMARK  Name = ZINC39657558
REMARK  9 active torsions:
REMARK  status: ('A' for Active; 'I' for Inactive)
REMARK    1  A    between atoms: C_1  and  O_2
REMARK    2  A    between atoms: O_2  and  C_3
REMARK    3  A    between atoms: C_6  and  O_32
REMARK    4  A    between atoms: C_7  and  C_9
REMARK    5  A    between atoms: C_13  and  C_22
REMARK    6  A    between atoms: N_24  and  C_25
REMARK    7  A    between atoms: C_25  and  C_26
REMARK    8  A    between atoms: C_26  and  C_27
REMARK    9  A    between atoms: O_32  and  C_33
REMARK                            x       y       z     vdW  Elec       q    Type
REMARK                         _______ _______ _______ _____ _____    ______ ____
ROOT
ATOM      1  C   UNL     1       1.542  -4.374   2.269  0.00  0.00    +0.250 C 
ATOM      2  O   UNL     1       2.173  -5.006   3.094  0.00  0.00    -0.270 OA
ATOM      3  N   UNL     1       0.839  -5.021   1.319  0.00  0.00    -0.296 N 
ATOM      4  C   UNL     1       0.103  -4.432   0.175  0.00  0.00    +0.121 C 
ATOM      5  C   UNL     1       0.370  -5.399  -1.000  0.00  0.00    +0.100 C 
ATOM      6  C   UNL     1       0.711  -6.742  -0.334  0.00  0.00    -0.004 C 
ATOM      7  C   UNL     1       0.631  -6.482   1.177  0.00  0.00    +0.115 C 
ATOM      8  C   UNL     1       2.123  -7.178  -0.714  0.00  0.00    -0.010 C 
ATOM      9  C   UNL     1       2.418  -8.543  -0.086  0.00  0.00    -0.082 C 
ATOM     10  N   UNL     1       1.436  -9.525  -0.561  0.00  0.00    +0.379 N 
ATOM     11  C   UNL     1       0.091  -9.147  -0.112  0.00  0.00    -0.082 C 
ATOM     12  C   UNL     1      -0.303  -7.807  -0.741  0.00  0.00    -0.010 C 
ATOM     13  H   UNL     1       1.455  -9.556  -1.570  0.00  0.00    -0.086 HD
ATOM     14  H   UNL     1       1.668 -10.435  -0.195  0.00  0.00    -0.086 HD
ENDROOT
BRANCH   1  19
ATOM     15  C   UNL     1       0.420  -0.801   1.969  0.00  0.00    +0.121 A 
ATOM     16  C   UNL     1       1.560  -0.124   2.383  0.00  0.00    +0.049 A 
ATOM     17  C   UNL     1       2.689  -0.823   2.759  0.00  0.00    +0.050 A 
ATOM     18  C   UNL     1       2.693  -2.209   2.725  0.00  0.00    +0.132 A 
ATOM     19  C   UNL     1       1.547  -2.899   2.308  0.00  0.00    +0.082 A 
ATOM     20  C   UNL     1       0.406  -2.183   1.935  0.00  0.00    +0.062 A 
BRANCH  15  22
ATOM     21  C   UNL     1      -0.606   1.322   1.659  0.00  0.00    +0.277 C 
ATOM     22  O   UNL     1      -0.688  -0.103   1.601  0.00  0.00    -0.495 OA
ENDBRANCH  15  22
BRANCH  18  23
ATOM     23  O   UNL     1       3.804  -2.896   3.094  0.00  0.00    -0.494 OA
ATOM     24  C   UNL     1       4.935  -2.127   3.507  0.00  0.00    +0.277 C 
ENDBRANCH  18  23
ENDBRANCH   1  19
BRANCH   5  25
ATOM     25  C   UNL     1       1.531  -4.911  -1.828  0.00  0.00    +0.218 C 
ATOM     26  O   UNL     1       2.421  -4.273  -1.306  0.00  0.00    -0.275 OA
ATOM     27  N   UNL     1       1.581  -5.184  -3.147  0.00  0.00    -0.315 N 
ATOM     28  H   UNL     1       0.869  -5.694  -3.563  0.00  0.00    +0.149 HD
BRANCH  27  29
ATOM     29  C   UNL     1       2.710  -4.710  -3.951  0.00  0.00    +0.109 C 
BRANCH  29  30
ATOM     30  C   UNL     1       2.522  -5.151  -5.404  0.00  0.00    +0.061 C 
BRANCH  30  31
ATOM     31  C   UNL     1       3.683  -4.664  -6.231  0.00  0.00    -0.009 A 
ATOM     32  C   UNL     1       4.859  -5.282  -6.500  0.00  0.00    +0.011 A 
ATOM     33  C   UNL     1       5.790  -4.638  -7.293  0.00  0.00    +0.008 A 
ATOM     34  C   UNL     1       5.499  -3.406  -7.779  0.00  0.00    +0.045 A 
ATOM     35  S   UNL     1       3.865  -3.125  -7.117  0.00  0.00    -0.102 S 
ENDBRANCH  30  31
ENDBRANCH  29  30
ENDBRANCH  27  29
ENDBRANCH   5  25
TORSDOF 7
