REMARK  Name = ZINC05514559
REMARK  2 active torsions:
REMARK  status: ('A' for Active; 'I' for Inactive)
REMARK    1  A    between atoms: C_5  and  C_7
REMARK    2  A    between atoms: N_8  and  N_9
REMARK                            x       y       z     vdW  Elec       q    Type
REMARK                         _______ _______ _______ _____ _____    ______ ____
ROOT
ATOM      1  C   UNL     1      -2.518   3.869   0.045  0.00  0.00    +0.139 C 
ATOM      2  N   UNL     1      -2.531   5.167   0.051  0.00  0.00    -0.187 NA
ENDROOT
BRANCH   1   7
ATOM      3  C   UNL     1      -0.013   1.076   0.008  0.00  0.00    +0.001 A 
ATOM      4  C   UNL     1       1.178   1.782   0.000  0.00  0.00    +0.001 A 
ATOM      5  C   UNL     1       1.169   3.166   0.007  0.00  0.00    +0.016 A 
ATOM      6  C   UNL     1      -0.029   3.851   0.022  0.00  0.00    +0.027 A 
ATOM      7  C   UNL     1      -1.235   3.144   0.030  0.00  0.00    +0.008 A 
ATOM      8  C   UNL     1      -1.217   1.747   0.017  0.00  0.00    +0.010 A 
ATOM      9 BR   UNL     1      -0.039   5.742   0.030  0.00  0.00    -0.050 Br
ENDBRANCH   1   7
BRANCH   2  10
ATOM     10  N   UNL     1      -3.751   5.856   0.065  0.00  0.00    -0.203 N 
ATOM     11  C   UNL     1      -3.764   7.239   0.071  0.00  0.00    +0.277 A 
ATOM     12  N   UNL     1      -4.365   9.348   0.086  0.00  0.00    -0.020 NA
ATOM     13  N   UNL     1      -3.079   9.262   0.073  0.00  0.00    -0.020 NA
ATOM     14  N   UNL     1      -2.714   8.031   0.065  0.00  0.00    -0.089 NA
ATOM     15  H   UNL     1      -4.586   5.362   0.071  0.00  0.00    +0.178 HD
ATOM     16  N   UNL     1      -4.835   8.041   0.080  0.00  0.00    -0.089 NA
ENDBRANCH   2  10
TORSDOF 2
