REMARK  Name = ZINC11592703
REMARK  8 active torsions:
REMARK  status: ('A' for Active; 'I' for Inactive)
REMARK    1  A    between atoms: C_1  and  C_2
REMARK    2  A    between atoms: C_11  and  C_28
REMARK    3  A    between atoms: C_11  and  O_32
REMARK    4  A    between atoms: C_12  and  C_27
REMARK    5  A    between atoms: C_14  and  O_26
REMARK    6  A    between atoms: C_18  and  C_25
REMARK    7  A    between atoms: C_28  and  C_30
REMARK    8  A    between atoms: C_30  and  O_31
REMARK                            x       y       z     vdW  Elec       q    Type
REMARK                         _______ _______ _______ _____ _____    ______ ____
ROOT
ATOM      1  C   UNL     1      -4.052   0.920  -0.404  0.00  0.00    +0.012 C 
ATOM      2  C   UNL     1      -3.384   1.711   0.720  0.00  0.00    +0.013 C 
ATOM      3  C   UNL     1      -2.959   3.083   0.171  0.00  0.00    +0.012 C 
ATOM      4  C   UNL     1      -2.118   3.720   1.274  0.00  0.00    -0.000 C 
ATOM      5  C   UNL     1      -2.046   5.210   1.250  0.00  0.00    +0.002 C 
ATOM      6  C   UNL     1      -3.337   6.003   1.019  0.00  0.00    +0.008 C 
ATOM      7  C   UNL     1      -2.800   7.436   0.740  0.00  0.00    +0.043 C 
ATOM      8  C   UNL     1      -1.328   7.274   0.283  0.00  0.00    +0.131 C 
ATOM      9  C   UNL     1      -1.129   5.759   0.138  0.00  0.00    +0.009 C 
ATOM     10  C   UNL     1       0.265   5.228   0.370  0.00  0.00    +0.041 C 
ATOM     11  C   UNL     1       0.228   3.685   0.270  0.00  0.00    +0.120 C 
ATOM     12  C   UNL     1      -0.728   3.083   1.279  0.00  0.00    +0.035 C 
ATOM     13  C   UNL     1      -0.801   1.579   1.290  0.00  0.00    +0.013 C 
ATOM     14  C   UNL     1      -2.163   0.972   1.201  0.00  0.00    -0.053 C 
ATOM     15  C   UNL     1      -2.328  -0.326   1.536  0.00  0.00    +0.051 C 
ATOM     16  C   UNL     1      -1.111  -1.065   1.959  0.00  0.00    +0.179 C 
ATOM     17  O   UNL     1      -0.917  -2.231   1.663  0.00  0.00    -0.288 OA
ATOM     18  C   UNL     1      -0.148  -0.277   2.773  0.00  0.00    +0.047 C 
ATOM     19  C   UNL     1      -0.004   1.016   2.438  0.00  0.00    -0.012 C 
ATOM     20  C   UNL     1      -0.089   1.067   0.040  0.00  0.00    +0.020 C 
ATOM     21  C   UNL     1      -1.618   5.375  -1.262  0.00  0.00    +0.015 C 
ENDROOT
BRANCH  11  22
ATOM     22  O   UNL     1       1.566   3.243   0.554  0.00  0.00    -0.391 OA
ATOM     23  H   UNL     1       2.233   3.591  -0.054  0.00  0.00    +0.210 HD
ENDBRANCH  11  22
BRANCH   8  24
ATOM     24  C   UNL     1      -0.394   7.861   1.303  0.00  0.00    +0.190 C 
ATOM     25  O   UNL     1       0.046   7.167   2.188  0.00  0.00    -0.292 OA
BRANCH  24  26
ATOM     26  C   UNL     1      -0.006   9.315   1.221  0.00  0.00    +0.233 C 
BRANCH  26  27
ATOM     27  O   UNL     1       0.883   9.631   2.294  0.00  0.00    -0.387 OA
ATOM     28  H   UNL     1       1.175  10.553   2.304  0.00  0.00    +0.210 HD
ENDBRANCH  26  27
ENDBRANCH  24  26
ENDBRANCH   8  24
BRANCH   8  29
ATOM     29  O   UNL     1      -1.138   7.906  -0.986  0.00  0.00    -0.380 OA
ATOM     30  H   UNL     1      -1.248   8.867  -0.968  0.00  0.00    +0.211 HD
ENDBRANCH   8  29
TORSDOF 5
