REMARK  Name = ZINC23557501
REMARK  6 active torsions:
REMARK  status: ('A' for Active; 'I' for Inactive)
REMARK    1  A    between atoms: C_1  and  C_2
REMARK    2  A    between atoms: C_5  and  C_7
REMARK    3  A    between atoms: N_9  and  C_10
REMARK    4  A    between atoms: C_10  and  C_11
REMARK    5  A    between atoms: N_13  and  N_14
REMARK    6  A    between atoms: C_20  and  C_23
REMARK                            x       y       z     vdW  Elec       q    Type
REMARK                         _______ _______ _______ _____ _____    ______ ____
ROOT
ATOM      1  C   UNL     1      -1.636   5.958   0.043  0.00  0.00    +0.247 C 
ATOM      2  O   UNL     1      -0.446   6.193   0.038  0.00  0.00    -0.273 OA
ATOM      3  N   UNL     1      -2.523   6.973   0.053  0.00  0.00    -0.222 N 
ATOM      4  H   UNL     1      -3.602   6.759   0.057  0.00  0.00    +0.174 HD
ENDROOT
BRANCH   3   5
ATOM      5  N   UNL     1      -2.071   8.299   0.058  0.00  0.00    -0.137 N 
ATOM      6  C   UNL     1      -2.105   9.115  -1.016  0.00  0.00    +0.263 C 
ATOM      7  O   UNL     1      -2.516   8.852  -2.126  0.00  0.00    -0.271 OA
ATOM      8  C   UNL     1      -1.523  10.428  -0.543  0.00  0.00    +0.114 C 
ATOM      9  C   UNL     1      -2.555  11.543  -0.669  0.00  0.00    +0.035 C 
ATOM     10  C   UNL     1      -1.956  12.856  -0.160  0.00  0.00    +0.006 C 
ATOM     11  C   UNL     1      -0.709  13.198  -0.978  0.00  0.00    -0.014 C 
ATOM     12  C   UNL     1       0.326  12.082  -0.822  0.00  0.00    +0.006 C 
ATOM     13  C   UNL     1      -0.264  10.765  -1.334  0.00  0.00    +0.035 C 
ATOM     14  C   UNL     1      -0.116  14.517  -0.478  0.00  0.00    +0.007 C 
ATOM     15  N   UNL     1      -1.196  10.185   0.868  0.00  0.00    -0.284 N 
ATOM     16  C   UNL     1      -1.557   8.914   1.129  0.00  0.00    +0.326 C 
ATOM     17  O   UNL     1      -1.428   8.385   2.216  0.00  0.00    -0.251 OA
ATOM     18  H   UNL     1      -0.744  10.985   1.473  0.00  0.00    +0.151 HD
ENDBRANCH   3   5
BRANCH   1  19
ATOM     19  C   UNL     1      -2.122   4.532   0.037  0.00  0.00    +0.202 C 
BRANCH  19  22
ATOM     20  C   UNL     1      -1.167   2.290   0.020  0.00  0.00    +0.251 C 
ATOM     21  O   UNL     1      -2.298   1.840   0.024  0.00  0.00    -0.270 OA
ATOM     22  N   UNL     1      -0.973   3.624   0.027  0.00  0.00    -0.302 N 
ATOM     23  H   UNL     1       0.049   4.031   0.024  0.00  0.00    +0.150 HD
BRANCH  20  28
ATOM     24  C   UNL     1       3.793  -0.288  -0.035  0.00  0.00    +0.051 C 
ATOM     25  C   UNL     1       2.353   0.156  -0.020  0.00  0.00    -0.013 A 
ATOM     26  C   UNL     1       1.232  -0.613  -0.013  0.00  0.00    +0.011 A 
ATOM     27  C   UNL     1       0.002  -0.004   0.002  0.00  0.00    +0.021 A 
ATOM     28  C   UNL     1      -0.017   1.382   0.010  0.00  0.00    +0.074 A 
ATOM     29  S   UNL     1       1.724   1.772  -0.005  0.00  0.00    -0.089 S 
ENDBRANCH  20  28
ENDBRANCH  19  22
ENDBRANCH   1  19
TORSDOF 4
