REMARK  Name = ZINC45798280
REMARK  10 active torsions:
REMARK  status: ('A' for Active; 'I' for Inactive)
REMARK    1  A    between atoms: C_1  and  C_2
REMARK    2  A    between atoms: C_7  and  C_9
REMARK    3  A    between atoms: C_7  and  C_10
REMARK    4  A    between atoms: N_13  and  C_17
REMARK    5  A    between atoms: C_17  and  C_18
REMARK    6  A    between atoms: C_24  and  C_26
REMARK    7  A    between atoms: C_29  and  O_34
REMARK    8  A    between atoms: C_30  and  O_32
REMARK    9  A    between atoms: O_32  and  C_33
REMARK   10  A    between atoms: O_34  and  C_35
REMARK                            x       y       z     vdW  Elec       q    Type
REMARK                         _______ _______ _______ _____ _____    ______ ____
ROOT
ATOM      1  C   UNL     1      -2.031  -4.134  -3.043  0.00  0.00    +0.213 C 
ENDROOT
BRANCH   1  13
ATOM      2  C   UNL     1      -0.019   1.528   0.010  0.00  0.00    +0.007 C 
ATOM      3  C   UNL     1       0.002  -0.004   0.002  0.00  0.00    -0.011 C 
ATOM      4  C   UNL     1      -1.435  -0.529   0.021  0.00  0.00    +0.038 C 
ATOM      5  C   UNL     1      -1.427  -2.050  -0.036  0.00  0.00    +0.113 C 
ATOM      6  C   UNL     1      -0.575  -2.676   1.049  0.00  0.00    +0.041 C 
ATOM      7  C   UNL     1       0.782  -2.031   1.270  0.00  0.00    -0.032 C 
ATOM      8  C   UNL     1       0.719  -0.508   1.253  0.00  0.00    +0.009 C 
ATOM      9  C   UNL     1       1.296  -2.464   2.661  0.00  0.00    +0.011 C 
ATOM     10  C   UNL     1       1.795  -2.526   0.234  0.00  0.00    +0.011 C 
ATOM     11  C   UNL     1      -1.044  -2.534  -1.413  0.00  0.00    +0.247 C 
ATOM     12  O   UNL     1      -0.058  -2.253  -2.060  0.00  0.00    -0.273 OA
ATOM     13  N   UNL     1      -2.050  -3.344  -1.810  0.00  0.00    -0.215 N 
ATOM     14  C   UNL     1      -3.063  -3.331  -0.937  0.00  0.00    +0.310 C 
ATOM     15  O   UNL     1      -4.088  -3.969  -1.082  0.00  0.00    -0.252 OA
ATOM     16  N   UNL     1      -2.817  -2.537   0.119  0.00  0.00    -0.285 N 
ATOM     17  H   UNL     1      -3.418  -2.318   0.845  0.00  0.00    +0.151 HD
ENDBRANCH   1  13
BRANCH   1  18
ATOM     18  C   UNL     1      -1.431  -5.488  -2.763  0.00  0.00    +0.234 C 
ATOM     19  O   UNL     1      -1.057  -5.765  -1.643  0.00  0.00    -0.274 OA
ATOM     20  N   UNL     1      -1.311  -6.390  -3.757  0.00  0.00    -0.293 N 
ATOM     21  C   UNL     1      -1.718  -6.184  -5.159  0.00  0.00    +0.108 C 
ATOM     22  C   UNL     1      -0.849  -7.175  -5.973  0.00  0.00    +0.021 C 
ATOM     23  C   UNL     1      -0.792  -8.397  -5.020  0.00  0.00    +0.029 C 
ATOM     24  C   UNL     1      -0.747  -7.742  -3.623  0.00  0.00    +0.106 C 
BRANCH  24  25
ATOM     25  C   UNL     1      -1.573  -8.548  -2.654  0.00  0.00    -0.023 A 
ATOM     26  C   UNL     1      -2.951  -8.445  -2.671  0.00  0.00    +0.009 A 
ATOM     27  C   UNL     1      -3.713  -9.183  -1.784  0.00  0.00    +0.050 A 
ATOM     28  C   UNL     1      -3.095 -10.029  -0.876  0.00  0.00    +0.162 A 
ATOM     29  C   UNL     1      -1.708 -10.133  -0.861  0.00  0.00    +0.162 A 
ATOM     30  C   UNL     1      -0.950  -9.394  -1.755  0.00  0.00    +0.055 A 
BRANCH  29  31
ATOM     31  O   UNL     1      -1.096 -10.961   0.028  0.00  0.00    -0.491 OA
ATOM     32  C   UNL     1       0.331 -11.017  -0.013  0.00  0.00    +0.277 C 
ENDBRANCH  29  31
BRANCH  28  33
ATOM     33  O   UNL     1      -3.843 -10.755  -0.003  0.00  0.00    -0.491 OA
ATOM     34  C   UNL     1      -5.261 -10.597  -0.076  0.00  0.00    +0.277 C 
ENDBRANCH  28  33
ENDBRANCH  24  25
ENDBRANCH   1  18
TORSDOF 5
