REMARK  Name = ZINC66396503
REMARK  9 active torsions:
REMARK  status: ('A' for Active; 'I' for Inactive)
REMARK    1  A    between atoms: C_1  and  C_2
REMARK    2  A    between atoms: C_5  and  C_12
REMARK    3  A    between atoms: N_14  and  C_15
REMARK    4  A    between atoms: C_15  and  C_17
REMARK    5  A    between atoms: C_15  and  C_19
REMARK    6  A    between atoms: C_22  and  C_25
REMARK    7  A    between atoms: C_25  and  C_26
REMARK    8  A    between atoms: C_25  and  C_27
REMARK    9  A    between atoms: C_25  and  C_28
REMARK                            x       y       z     vdW  Elec       q    Type
REMARK                         _______ _______ _______ _____ _____    ______ ____
ROOT
ATOM      1  C   UNL     1      -5.685   2.026   0.008  0.00  0.00    +0.247 C 
ATOM      2  O   UNL     1      -5.549   1.647   1.155  0.00  0.00    -0.270 OA
ATOM      3  N   UNL     1      -6.906   2.370  -0.447  0.00  0.00    -0.292 N 
ATOM      4  H   UNL     1      -7.015   2.673  -1.363  0.00  0.00    +0.151 HD
ENDROOT
BRANCH   1   9
ATOM      5  C   UNL     1      -0.013   1.086   0.008  0.00  0.00    +0.068 C 
ATOM      6  C   UNL     1      -0.742   1.585  -1.213  0.00  0.00    +0.069 A 
ATOM      7  C   UNL     1      -2.173   1.854  -1.313  0.00  0.00    +0.042 A 
ATOM      8  C   UNL     1      -3.245   1.756  -0.424  0.00  0.00    +0.028 A 
ATOM      9  C   UNL     1      -4.513   2.110  -0.886  0.00  0.00    +0.056 A 
ATOM     10  C   UNL     1      -4.660   2.545  -2.210  0.00  0.00    +0.126 A 
ATOM     11  N   UNL     1      -3.632   2.626  -3.021  0.00  0.00    -0.235 NA
ATOM     12  C   UNL     1      -2.404   2.301  -2.631  0.00  0.00    +0.156 A 
ATOM     13  N   UNL     1      -1.192   2.295  -3.261  0.00  0.00    -0.260 N 
ATOM     14  N   UNL     1      -0.208   1.860  -2.368  0.00  0.00    -0.177 NA
ATOM     15  H   UNL     1      -1.037   2.555  -4.183  0.00  0.00    +0.191 HD
ENDBRANCH   1   9
BRANCH   3  16
ATOM     16  C   UNL     1      -8.069   2.288   0.440  0.00  0.00    +0.207 C 
BRANCH  16  17
ATOM     17  C   UNL     1      -9.131   3.247  -0.033  0.00  0.00    -0.013 A 
ATOM     18  C   UNL     1      -9.378   3.393  -1.385  0.00  0.00    +0.007 A 
ATOM     19  C   UNL     1     -10.352   4.273  -1.818  0.00  0.00    +0.004 A 
ATOM     20  C   UNL     1     -11.079   5.007  -0.900  0.00  0.00    -0.042 A 
ATOM     21  C   UNL     1     -10.832   4.860   0.453  0.00  0.00    +0.004 A 
ATOM     22  C   UNL     1      -9.861   3.977   0.886  0.00  0.00    +0.007 A 
BRANCH  20  23
ATOM     23  C   UNL     1     -12.140   5.967  -1.372  0.00  0.00    -0.013 C 
ATOM     24  C   UNL     1     -13.205   5.202  -2.160  0.00  0.00    +0.015 C 
ATOM     25  C   UNL     1     -12.788   6.646  -0.164  0.00  0.00    +0.015 C 
ATOM     26  C   UNL     1     -11.503   7.028  -2.272  0.00  0.00    +0.015 C 
ENDBRANCH  20  23
ENDBRANCH  16  17
BRANCH  16  27
ATOM     27  C   UNL     1      -8.604   0.916   0.421  0.00  0.00    +0.090 C 
ATOM     28  N   UNL     1      -9.016  -0.142   0.407  0.00  0.00    -0.194 NA
ENDBRANCH  16  27
ENDBRANCH   3  16
TORSDOF 5
