REMARK  Name = ZINC66303826
REMARK  5 active torsions:
REMARK  status: ('A' for Active; 'I' for Inactive)
REMARK    1  A    between atoms: C_4  and  O_9
REMARK    2  A    between atoms: C_5  and  C_7
REMARK    3  A    between atoms: O_9  and  C_10
REMARK    4  A    between atoms: C_10  and  C_11
REMARK    5  A    between atoms: N_13  and  C_14
REMARK                            x       y       z     vdW  Elec       q    Type
REMARK                         _______ _______ _______ _____ _____    ______ ____
ROOT
ATOM      1  C   UNL     1       6.013  -0.677  -0.057  0.00  0.00    +0.255 C 
ATOM      2  O   UNL     1       5.885  -1.883  -0.069  0.00  0.00    -0.272 OA
ATOM      3  N   UNL     1       7.244  -0.130  -0.070  0.00  0.00    -0.281 N 
ATOM      4  H   UNL     1       7.347   0.832  -0.141  0.00  0.00    +0.155 HD
ENDROOT
BRANCH   3   5
ATOM      5  C   UNL     1       8.377  -0.950   0.021  0.00  0.00    +0.056 A 
ATOM      6  C   UNL     1       8.282  -2.199   0.622  0.00  0.00    +0.072 A 
ATOM      7  C   UNL     1       9.401  -3.006   0.709  0.00  0.00    +0.144 A 
ATOM      8  C   UNL     1      10.620  -2.566   0.195  0.00  0.00    +0.077 A 
ATOM      9  C   UNL     1      10.712  -1.320  -0.404  0.00  0.00    +0.048 A 
ATOM     10  C   UNL     1       9.591  -0.515  -0.496  0.00  0.00    +0.064 A 
ATOM     11 CL   UNL     1       9.703   1.043  -1.252  0.00  0.00    -0.082 Cl
ATOM     12  N   UNL     1      11.747  -3.397   0.293  0.00  0.00    -0.280 N 
ATOM     13  C   UNL     1      11.572  -4.705   0.585  0.00  0.00    +0.255 C 
ATOM     14  O   UNL     1      12.532  -5.436   0.705  0.00  0.00    -0.272 OA
ATOM     15  C   UNL     1      10.178  -5.251   0.762  0.00  0.00    +0.325 C 
ATOM     16  O   UNL     1       9.326  -4.232   1.293  0.00  0.00    -0.481 OA
ATOM     17  H   UNL     1      12.637  -3.039   0.153  0.00  0.00    +0.155 HD
ENDBRANCH   3   5
BRANCH   1  18
ATOM     18  C   UNL     1       4.794   0.209  -0.028  0.00  0.00    +0.324 C 
BRANCH  18  19
ATOM     19  O   UNL     1       3.617  -0.601  -0.019  0.00  0.00    -0.482 OA
BRANCH  19  23
ATOM     20  C   UNL     1      -0.016   1.374   0.058  0.00  0.00    +0.001 A 
ATOM     21  C   UNL     1       1.171   2.090   0.048  0.00  0.00    +0.004 A 
ATOM     22  C   UNL     1       2.385   1.433   0.023  0.00  0.00    +0.046 A 
ATOM     23  C   UNL     1       2.425   0.046   0.006  0.00  0.00    +0.131 A 
ATOM     24  C   UNL     1       1.226  -0.684   0.016  0.00  0.00    +0.056 A 
ATOM     25  C   UNL     1       0.003  -0.003   0.042  0.00  0.00    +0.015 A 
BRANCH  24  26
ATOM     26  C   UNL     1       1.254  -2.151  -0.002  0.00  0.00    +0.262 C 
ATOM     27  O   UNL     1       0.215  -2.778   0.006  0.00  0.00    -0.296 OA
ENDBRANCH  24  26
ENDBRANCH  19  23
ENDBRANCH  18  19
ENDBRANCH   1  18
TORSDOF 5
