REMARK  Name = ZINC05634723
REMARK  5 active torsions:
REMARK  status: ('A' for Active; 'I' for Inactive)
REMARK    1  A    between atoms: C_1  and  C_2
REMARK    2  A    between atoms: C_9  and  N_28
REMARK    3  A    between atoms: C_10  and  C_26
REMARK    4  A    between atoms: C_11  and  C_13
REMARK    5  A    between atoms: C_18  and  C_19
REMARK                            x       y       z     vdW  Elec       q    Type
REMARK                         _______ _______ _______ _____ _____    ______ ____
ROOT
ATOM      1  C   UNL     1      -2.993   4.261  -0.903  0.00  0.00    +0.068 C 
ATOM      2  C   UNL     1      -1.493   4.253  -0.755  0.00  0.00    +0.068 A 
ATOM      3  C   UNL     1      -0.701   3.132  -0.544  0.00  0.00    +0.049 A 
ATOM      4  C   UNL     1       0.601   3.542  -0.466  0.00  0.00    +0.222 A 
ATOM      5  N   UNL     1       0.616   4.876  -0.622  0.00  0.00    -0.246 N 
ATOM      6  H   UNL     1       1.427   5.461  -0.611  0.00  0.00    +0.192 HD
ATOM      7  N   UNL     1      -0.709   5.303  -0.802  0.00  0.00    -0.176 NA
ATOM      8  O   UNL     1       1.629   2.681  -0.266  0.00  0.00    -0.423 OA
ATOM      9  C   UNL     1       1.379   1.364  -0.415  0.00  0.00    +0.200 C 
ATOM     10  C   UNL     1       0.136   0.838  -0.492  0.00  0.00    +0.098 C 
ATOM     11  C   UNL     1      -1.108   1.688  -0.418  0.00  0.00    +0.105 C 
ENDROOT
BRANCH  11  12
ATOM     12  C   UNL     1      -1.793   1.471   0.906  0.00  0.00    +0.010 A 
ATOM     13  C   UNL     1      -1.307   1.814   2.119  0.00  0.00    +0.110 A 
ATOM     14  N   UNL     1      -2.218   1.457   3.049  0.00  0.00    -0.284 N 
ATOM     15  H   UNL     1      -2.133   1.593   4.036  0.00  0.00    +0.188 HD
ATOM     16  N   UNL     1      -3.304   0.864   2.392  0.00  0.00    -0.174 NA
ATOM     17  C   UNL     1      -3.052   0.871   1.100  0.00  0.00    +0.097 A 
BRANCH  17  18
ATOM     18  C   UNL     1      -3.939   0.339   0.035  0.00  0.00    +0.002 A 
ATOM     19  C   UNL     1      -4.063   1.018  -1.175  0.00  0.00    +0.011 A 
ATOM     20  C   UNL     1      -4.885   0.517  -2.164  0.00  0.00    +0.020 A 
ATOM     21  C   UNL     1      -5.594  -0.652  -1.951  0.00  0.00    +0.041 A 
ATOM     22  C   UNL     1      -5.480  -1.327  -0.748  0.00  0.00    +0.020 A 
ATOM     23  C   UNL     1      -4.656  -0.837   0.245  0.00  0.00    +0.011 A 
ATOM     24 CL   UNL     1      -6.632  -1.274  -3.196  0.00  0.00    -0.084 Cl
ENDBRANCH  17  18
ENDBRANCH  11  12
BRANCH   9  25
ATOM     25  N   UNL     1       2.449   0.508  -0.494  0.00  0.00    -0.328 N 
ATOM     26  H   UNL     1       2.301  -0.444  -0.602  0.00  0.00    +0.145 HD
ATOM     27  H   UNL     1       3.353   0.856  -0.442  0.00  0.00    +0.145 HD
ENDBRANCH   9  25
BRANCH  10  28
ATOM     28  C   UNL     1      -0.004  -0.577  -0.656  0.00  0.00    +0.101 C 
ATOM     29  N   UNL     1      -0.116  -1.700  -0.786  0.00  0.00    -0.191 NA
ENDBRANCH  10  28
TORSDOF 4
