REMARK  Name = ZINC41151232
REMARK  5 active torsions:
REMARK  status: ('A' for Active; 'I' for Inactive)
REMARK    1  A    between atoms: C_7  and  N_20
REMARK    2  A    between atoms: N_11  and  C_12
REMARK    3  A    between atoms: C_17  and  O_18
REMARK    4  A    between atoms: N_20  and  C_21
REMARK    5  A    between atoms: C_21  and  C_22
REMARK                            x       y       z     vdW  Elec       q    Type
REMARK                         _______ _______ _______ _____ _____    ______ ____
ROOT
ATOM      1  C   UNL     1      -0.029   1.342  -0.216  0.00  0.00    +0.001 A 
ATOM      2  C   UNL     1       1.143   2.054  -0.454  0.00  0.00    +0.002 A 
ATOM      3  C   UNL     1       2.354   1.429  -0.472  0.00  0.00    +0.026 A 
ATOM      4  C   UNL     1       2.422   0.046  -0.248  0.00  0.00    +0.052 A 
ATOM      5  C   UNL     1       1.229  -0.676  -0.007  0.00  0.00    +0.038 A 
ATOM      6  C   UNL     1       0.002  -0.004   0.005  0.00  0.00    +0.013 A 
ATOM      7  C   UNL     1       1.322  -2.073   0.217  0.00  0.00    +0.132 A 
ATOM      8  N   UNL     1       2.522  -2.635   0.190  0.00  0.00    -0.200 NA
ATOM      9  C   UNL     1       3.618  -1.918  -0.041  0.00  0.00    +0.199 A 
ATOM     10  N   UNL     1       3.588  -0.616  -0.255  0.00  0.00    -0.327 N 
ATOM     11  N   UNL     1       4.842  -2.564  -0.056  0.00  0.00    -0.282 N 
ATOM     12  H   UNL     1       5.661  -2.050  -0.135  0.00  0.00    +0.155 HD
ATOM     13  H   UNL     1       4.415  -0.135  -0.419  0.00  0.00    +0.169 HD
ENDROOT
BRANCH  11  14
ATOM     14  C   UNL     1       4.898  -3.960   0.042  0.00  0.00    +0.077 A 
ATOM     15  C   UNL     1       3.910  -4.738  -0.543  0.00  0.00    +0.047 A 
ATOM     16  C   UNL     1       3.967  -6.117  -0.445  0.00  0.00    +0.043 A 
ATOM     17  C   UNL     1       5.008  -6.722   0.237  0.00  0.00    +0.023 A 
ATOM     18  C   UNL     1       5.996  -5.951   0.822  0.00  0.00    +0.049 A 
ATOM     19  C   UNL     1       5.949  -4.571   0.723  0.00  0.00    +0.138 A 
ATOM     20 CL   UNL     1       2.730  -7.090  -1.178  0.00  0.00    -0.083 Cl
BRANCH  19  21
ATOM     21  O   UNL     1       6.923  -3.812   1.293  0.00  0.00    -0.505 OA
ATOM     22  H   UNL     1       6.739  -3.559   2.208  0.00  0.00    +0.292 HD
ENDBRANCH  19  21
ENDBRANCH  11  14
BRANCH   7  23
ATOM     23  N   UNL     1       0.194  -2.827   0.457  0.00  0.00    -0.321 N 
ATOM     24  H   UNL     1      -0.678  -2.403   0.475  0.00  0.00    +0.148 HD
BRANCH  23  25
ATOM     25  C   UNL     1       0.312  -4.269   0.686  0.00  0.00    +0.177 C 
BRANCH  25  26
ATOM     26  C   UNL     1      -1.056  -4.854   0.923  0.00  0.00    +0.122 A 
ATOM     27  C   UNL     1      -1.877  -5.343  -0.024  0.00  0.00    +0.046 A 
ATOM     28  C   UNL     1      -3.047  -5.785   0.636  0.00  0.00    +0.041 A 
ATOM     29  C   UNL     1      -2.871  -5.539   1.947  0.00  0.00    +0.195 A 
ATOM     30  O   UNL     1      -1.661  -4.981   2.115  0.00  0.00    -0.466 OA
ENDBRANCH  25  26
ENDBRANCH  23  25
ENDBRANCH   7  23
TORSDOF 5
