REMARK  Name = ZINC20731413
REMARK  3 active torsions:
REMARK  status: ('A' for Active; 'I' for Inactive)
REMARK    1  A    between atoms: C_11  and  C_12
REMARK    2  A    between atoms: C_15  and  C_18
REMARK    3  A    between atoms: C_23  and  C_26
REMARK                            x       y       z     vdW  Elec       q    Type
REMARK                         _______ _______ _______ _____ _____    ______ ____
ROOT
ATOM      1  C   UNL     1      -2.762   2.131   5.798  0.00  0.00    -0.021 A 
ATOM      2  C   UNL     1      -2.116   0.889   5.812  0.00  0.00    +0.009 A 
ATOM      3  C   UNL     1      -1.528   0.412   4.675  0.00  0.00    +0.013 A 
ATOM      4  C   UNL     1      -1.571   1.164   3.498  0.00  0.00    +0.037 A 
ATOM      5  C   UNL     1      -2.211   2.407   3.483  0.00  0.00    +0.013 A 
ATOM      6  C   UNL     1      -2.805   2.883   4.617  0.00  0.00    +0.009 A 
ENDROOT
BRANCH   1  17
ATOM      7  C   UNL     1      -4.580  -0.621  12.003  0.00  0.00    +0.002 A 
ATOM      8  C   UNL     1      -4.524   0.723  12.324  0.00  0.00    +0.004 A 
ATOM      9  C   UNL     1      -4.537   1.678  11.325  0.00  0.00    +0.048 A 
ATOM     10  C   UNL     1      -4.606   1.288   9.997  0.00  0.00    +0.150 A 
ATOM     11  C   UNL     1      -4.662  -0.066   9.672  0.00  0.00    +0.077 A 
ATOM     12  C   UNL     1      -4.649  -1.018  10.681  0.00  0.00    +0.027 A 
ATOM     13  N   UNL     1      -4.730  -0.467   8.332  0.00  0.00    -0.276 N 
ATOM     14  C   UNL     1      -4.473   0.446   7.361  0.00  0.00    +0.284 C 
ATOM     15  O   UNL     1      -4.512   0.147   6.183  0.00  0.00    -0.266 OA
ATOM     16  C   UNL     1      -4.139   1.822   7.795  0.00  0.00    +0.191 C 
ATOM     17  C   UNL     1      -3.395   2.645   7.021  0.00  0.00    +0.059 C 
ATOM     18  O   UNL     1      -4.620   2.225   9.009  0.00  0.00    -0.449 OA
ATOM     19  H   UNL     1      -4.989  -1.506   8.081  0.00  0.00    +0.155 HD
ENDBRANCH   1  17
BRANCH   4  20
ATOM     20  C   UNL     1      -0.934   0.648   2.269  0.00  0.00    +0.247 C 
ATOM     21  O   UNL     1       0.090  -0.003   2.342  0.00  0.00    -0.270 OA
ATOM     22  N   UNL     1      -1.489   0.898   1.066  0.00  0.00    -0.297 N 
ATOM     23  C   UNL     1      -0.807   0.496  -0.171  0.00  0.00    +0.109 C 
ATOM     24  C   UNL     1      -1.768  -0.345  -1.017  0.00  0.00    +0.032 C 
ATOM     25  C   UNL     1      -3.064   0.438  -1.240  0.00  0.00    +0.078 C 
ATOM     26  C   UNL     1      -3.729   0.721   0.109  0.00  0.00    +0.032 C 
ATOM     27  C   UNL     1      -2.790   1.574   0.968  0.00  0.00    +0.109 C 
BRANCH  25  28
ATOM     28  C   UNL     1      -3.998  -0.373  -2.100  0.00  0.00    +0.214 C 
ATOM     29  O   UNL     1      -3.661  -1.469  -2.496  0.00  0.00    -0.276 OA
ATOM     30  N   UNL     1      -5.209   0.119  -2.430  0.00  0.00    -0.329 N 
ATOM     31  H   UNL     1      -5.891  -0.473  -3.058  0.00  0.00    +0.145 HD
ATOM     32  H   UNL     1      -5.515   1.113  -2.071  0.00  0.00    +0.145 HD
ENDBRANCH  25  28
ENDBRANCH   4  20
TORSDOF 3
