REMARK  Name = ZINC40329808
REMARK  6 active torsions:
REMARK  status: ('A' for Active; 'I' for Inactive)
REMARK    1  A    between atoms: C_1  and  C_2
REMARK    2  A    between atoms: C_2  and  N_3
REMARK    3  A    between atoms: C_5  and  N_22
REMARK    4  A    between atoms: C_7  and  C_8
REMARK    5  A    between atoms: C_14  and  C_16
REMARK    6  A    between atoms: C_18  and  C_21
REMARK                            x       y       z     vdW  Elec       q    Type
REMARK                         _______ _______ _______ _____ _____    ______ ____
ROOT
ATOM      1  C   UNL     1      -1.034  -0.301   2.651  0.00  0.00    +0.264 C 
ATOM      2  O   UNL     1      -1.484  -0.440   3.773  0.00  0.00    -0.268 OA
ATOM      3  N   UNL     1      -1.836   0.107   1.648  0.00  0.00    -0.286 N 
ATOM      4  C   UNL     1      -1.420   0.332   0.252  0.00  0.00    +0.109 C 
ATOM      5  C   UNL     1      -2.717   0.169  -0.580  0.00  0.00    +0.021 C 
ATOM      6  C   UNL     1      -3.773   0.805   0.363  0.00  0.00    +0.032 C 
ATOM      7  C   UNL     1      -3.273   0.397   1.764  0.00  0.00    +0.145 C 
ENDROOT
BRANCH   7   8
ATOM      8  C   UNL     1      -3.491   1.530   2.734  0.00  0.00    +0.158 A 
ATOM      9  C   UNL     1      -4.476   1.610   3.649  0.00  0.00    +0.072 A 
ATOM     10  C   UNL     1      -4.324   2.821   4.349  0.00  0.00    +0.081 A 
ATOM     11  N   UNL     1      -3.284   3.439   3.867  0.00  0.00    -0.083 NA
ATOM     12  O   UNL     1      -2.734   2.633   2.841  0.00  0.00    -0.357 OA
ATOM     13  C   UNL     1      -5.211   3.316   5.463  0.00  0.00    +0.069 C 
ENDBRANCH   7   8
BRANCH   1  18
ATOM     14  N   UNL     1       1.274  -1.148   3.270  0.00  0.00    -0.342 N 
ATOM     15  C   UNL     1       2.485  -1.247   2.660  0.00  0.00    +0.109 A 
ATOM     16  C   UNL     1       2.383  -0.745   1.401  0.00  0.00    +0.043 A 
ATOM     17  C   UNL     1       1.061  -0.316   1.218  0.00  0.00    +0.055 A 
ATOM     18  C   UNL     1       0.382  -0.580   2.390  0.00  0.00    +0.106 A 
BRANCH  16  19
ATOM     19  N   UNL     1       3.419  -0.669   0.452  0.00  0.00    -0.357 N 
ATOM     20  H   UNL     1       4.306  -0.994   0.674  0.00  0.00    +0.142 HD
ATOM     21  H   UNL     1       3.247  -0.291  -0.425  0.00  0.00    +0.142 HD
ENDBRANCH  16  19
BRANCH  14  23
ATOM     22  C   UNL     1       0.392  -2.996   4.606  0.00  0.00    +0.027 C 
ATOM     23  C   UNL     1       0.968  -1.579   4.636  0.00  0.00    +0.118 C 
ENDBRANCH  14  23
ENDBRANCH   1  18
TORSDOF 4
