REMARK  Name = ZINC01797215
REMARK  5 active torsions:
REMARK  status: ('A' for Active; 'I' for Inactive)
REMARK    1  A    between atoms: C_7  and  N_11
REMARK    2  A    between atoms: N_11  and  N_12
REMARK    3  A    between atoms: C_13  and  C_14
REMARK    4  A    between atoms: C_15  and  C_16
REMARK    5  A    between atoms: C_19  and  N_21
REMARK                            x       y       z     vdW  Elec       q    Type
REMARK                         _______ _______ _______ _____ _____    ______ ____
ROOT
ATOM      1  N   UNL     1       1.344  -2.033  -0.022  0.00  0.00    -0.220 N 
ATOM      2  H   UNL     1       0.536  -2.569  -0.018  0.00  0.00    +0.176 HD
ENDROOT
BRANCH   1   9
ATOM      3  C   UNL     1      -2.385  -0.030   0.026  0.00  0.00    +0.001 A 
ATOM      4  C   UNL     1      -2.406   1.362   0.033  0.00  0.00    +0.002 A 
ATOM      5  C   UNL     1      -1.250   2.083   0.031  0.00  0.00    +0.028 A 
ATOM      6  C   UNL     1      -0.017   1.414   0.010  0.00  0.00    +0.076 A 
ATOM      7  C   UNL     1       0.002  -0.004   0.002  0.00  0.00    +0.042 A 
ATOM      8  C   UNL     1      -1.204  -0.713   0.010  0.00  0.00    +0.013 A 
ATOM      9  C   UNL     1       1.259  -0.655  -0.013  0.00  0.00    +0.149 A 
ATOM     10  N   UNL     1       2.353   0.096  -0.020  0.00  0.00    -0.219 NA
ATOM     11  C   UNL     1       2.284   1.416  -0.012  0.00  0.00    +0.224 A 
ATOM     12  N   UNL     1       1.148   2.073   0.002  0.00  0.00    -0.235 NA
ENDBRANCH   1   9
BRANCH   1  13
ATOM     13  N   UNL     1       2.499  -2.608  -0.036  0.00  0.00    -0.189 NA
ATOM     14  C   UNL     1       2.581  -3.936  -0.045  0.00  0.00    +0.130 C 
BRANCH  14  15
ATOM     15  C   UNL     1       3.817  -4.551  -0.060  0.00  0.00    +0.025 C 
ATOM     16  C   UNL     1       3.904  -5.960  -0.069  0.00  0.00    +0.048 C 
BRANCH  16  17
ATOM     17  C   UNL     1       5.142  -6.576  -0.084  0.00  0.00    +0.131 A 
ATOM     18  C   UNL     1       5.381  -7.973  -0.094  0.00  0.00    +0.052 A 
ATOM     19  C   UNL     1       6.754  -8.134  -0.108  0.00  0.00    +0.076 A 
ATOM     20  C   UNL     1       7.317  -6.870  -0.107  0.00  0.00    +0.280 A 
ATOM     21  O   UNL     1       6.343  -5.955  -0.097  0.00  0.00    -0.435 OA
BRANCH  20  22
ATOM     22  N   UNL     1       8.768  -6.578  -0.120  0.00  0.00    +0.093 N 
ATOM     23  O   UNL     1       9.639  -7.567  -0.135  0.00  0.00    -0.123 OA
ATOM     24  O   UNL     1       9.189  -5.330  -0.117  0.00  0.00    -0.123 OA
ENDBRANCH  20  22
ENDBRANCH  16  17
ENDBRANCH  14  15
ENDBRANCH   1  13
TORSDOF 5
