REMARK  Name = ZINC46024387
REMARK  9 active torsions:
REMARK  status: ('A' for Active; 'I' for Inactive)
REMARK    1  A    between atoms: C_1  and  C_2
REMARK    2  A    between atoms: C_4  and  C_7
REMARK    3  A    between atoms: C_7  and  N_8
REMARK    4  A    between atoms: N_8  and  C_9
REMARK    5  A    between atoms: N_12  and  C_13
REMARK    6  A    between atoms: C_19  and  C_21
REMARK    7  A    between atoms: C_21  and  C_22
REMARK    8  A    between atoms: C_21  and  C_23
REMARK    9  A    between atoms: C_21  and  C_24
REMARK                            x       y       z     vdW  Elec       q    Type
REMARK                         _______ _______ _______ _____ _____    ______ ____
ROOT
ATOM      1  N   UNL     1      -2.131  -3.454  -1.379  0.00  0.00    -0.283 N 
ATOM      2  C   UNL     1      -1.040  -4.357  -1.756  0.00  0.00    +0.134 C 
ATOM      3  C   UNL     1      -3.067  -3.112  -2.287  0.00  0.00    +0.303 C 
ATOM      4  O   UNL     1      -3.971  -2.363  -1.974  0.00  0.00    -0.253 OA
ATOM      5  N   UNL     1      -2.999  -3.601  -3.541  0.00  0.00    -0.296 N 
ATOM      6  H   UNL     1      -2.277  -4.199  -3.790  0.00  0.00    +0.151 HD
ENDROOT
BRANCH   5   7
ATOM      7  C   UNL     1      -4.016  -3.229  -4.527  0.00  0.00    +0.078 C 
ATOM      8  C   UNL     1      -3.569  -1.970  -5.271  0.00  0.00    +0.022 C 
ATOM      9  C   UNL     1      -2.243  -2.242  -5.984  0.00  0.00    +0.002 C 
ATOM     10  C   UNL     1      -2.427  -3.386  -6.983  0.00  0.00    +0.000 C 
ATOM     11  C   UNL     1      -2.874  -4.646  -6.239  0.00  0.00    +0.006 C 
ATOM     12  C   UNL     1      -4.200  -4.374  -5.526  0.00  0.00    +0.015 C 
BRANCH  12  13
ATOM     13  C   UNL     1      -4.647  -5.633  -4.782  0.00  0.00    -0.033 C 
ATOM     14  C   UNL     1      -5.894  -5.320  -3.953  0.00  0.00    +0.011 C 
ATOM     15  C   UNL     1      -4.971  -6.735  -5.793  0.00  0.00    +0.011 C 
ATOM     16  C   UNL     1      -3.524  -6.105  -3.857  0.00  0.00    +0.011 C 
ENDBRANCH  12  13
ENDBRANCH   5   7
BRANCH   1  17
ATOM     17  C   UNL     1      -2.204  -2.923  -0.016  0.00  0.00    +0.167 C 
BRANCH  17  21
ATOM     18  C   UNL     1      -1.127   2.057  -0.025  0.00  0.00    +0.089 C 
ATOM     19  C   UNL     1      -0.989   0.558   0.053  0.00  0.00    +0.135 A 
ATOM     20  C   UNL     1      -1.988  -0.337  -0.076  0.00  0.00    +0.072 A 
ATOM     21  C   UNL     1      -1.441  -1.625   0.059  0.00  0.00    +0.101 A 
ATOM     22  N   UNL     1      -0.160  -1.502   0.262  0.00  0.00    -0.081 NA
ATOM     23  O   UNL     1       0.151  -0.120   0.256  0.00  0.00    -0.360 OA
ENDBRANCH  17  21
ENDBRANCH   1  17
TORSDOF 4
