REMARK  Name = ZINC50397505
REMARK  4 active torsions:
REMARK  status: ('A' for Active; 'I' for Inactive)
REMARK    1  A    between atoms: C_4  and  C_19
REMARK    2  A    between atoms: C_6  and  S_7
REMARK    3  A    between atoms: S_7  and  N_10
REMARK    4  A    between atoms: N_10  and  C_11
REMARK                            x       y       z     vdW  Elec       q    Type
REMARK                         _______ _______ _______ _____ _____    ______ ____
ROOT
ATOM      1  S   UNL     1      -1.514  -0.903   0.012  0.00  0.00    +0.059 S 
ATOM      2  O   UNL     1      -1.223  -2.184   0.553  0.00  0.00    -0.153 OA
ATOM      3  O   UNL     1      -2.493  -0.041   0.576  0.00  0.00    -0.153 OA
ENDROOT
BRANCH   1   9
ATOM      4  C   UNL     1      -0.017   1.380   0.010  0.00  0.00    +0.031 A 
ATOM      5  C   UNL     1       1.166   2.095   0.002  0.00  0.00    +0.041 A 
ATOM      6  C   UNL     1       2.379   1.431  -0.013  0.00  0.00    +0.138 A 
ATOM      7  C   UNL     1       2.404   0.031  -0.021  0.00  0.00    +0.100 A 
ATOM      8  C   UNL     1       1.202  -0.682  -0.013  0.00  0.00    +0.046 A 
ATOM      9  C   UNL     1       0.002  -0.004   0.002  0.00  0.00    +0.106 A 
ATOM     10  F   UNL     1       3.535   2.130  -0.022  0.00  0.00    -0.205 F 
BRANCH   7  11
ATOM     11  C   UNL     1       3.691  -0.686  -0.038  0.00  0.00    +0.389 C 
ATOM     12  O   UNL     1       3.710  -1.909  -0.045  0.00  0.00    -0.240 OA
ATOM     13  O   UNL     1       4.741  -0.059  -0.046  0.00  0.00    -0.240 OA
ENDBRANCH   7  11
ENDBRANCH   1   9
BRANCH   1  14
ATOM     14  N   UNL     1      -1.950  -1.144  -1.568  0.00  0.00    -0.178 NA
ATOM     15  H   UNL     1      -2.756  -0.733  -1.916  0.00  0.00    +0.149 HD
BRANCH  14  16
ATOM     16  C   UNL     1      -1.117  -1.978  -2.438  0.00  0.00    +0.162 C 
ATOM     17  C   UNL     1      -1.137  -1.407  -3.858  0.00  0.00    +0.031 C 
ATOM     18  C   UNL     1      -0.496  -2.432  -4.802  0.00  0.00    +0.021 C 
ATOM     19  C   UNL     1      -1.406  -3.659  -4.883  0.00  0.00    +0.104 C 
ATOM     20  N   UNL     1      -1.754  -4.125  -3.546  0.00  0.00    -0.314 N 
ATOM     21  C   UNL     1      -1.653  -3.381  -2.446  0.00  0.00    +0.232 C 
ATOM     22  O   UNL     1      -2.011  -3.864  -1.393  0.00  0.00    -0.274 OA
ATOM     23  H   UNL     1      -2.080  -5.034  -3.453  0.00  0.00    +0.149 HD
ENDBRANCH  14  16
ENDBRANCH   1  14
TORSDOF 4
