REMARK  Name = ZINC39915972
REMARK  12 active torsions:
REMARK  status: ('A' for Active; 'I' for Inactive)
REMARK    1  A    between atoms: C_1  and  C_2
REMARK    2  A    between atoms: C_5  and  O_8
REMARK    3  A    between atoms: O_8  and  C_9
REMARK    4  A    between atoms: C_9  and  C_10
REMARK    5  A    between atoms: C_10  and  N_11
REMARK    6  A    between atoms: C_19  and  S_20
REMARK    7  A    between atoms: S_20  and  C_21
REMARK    8  A    between atoms: C_23  and  O_36
REMARK    9  A    between atoms: C_25  and  O_35
REMARK   10  A    between atoms: C_27  and  O_34
REMARK   11  A    between atoms: C_29  and  C_32
REMARK   12  A    between atoms: C_32  and  O_33
REMARK                            x       y       z     vdW  Elec       q    Type
REMARK                         _______ _______ _______ _____ _____    ______ ____
ROOT
ATOM      1  N   UNL     1       0.105  -6.972   2.342  0.00  0.00    -0.315 N 
ATOM      2  C   UNL     1       1.229  -7.330   3.069  0.00  0.00    +0.070 A 
ATOM      3  C   UNL     1       2.593  -7.199   2.857  0.00  0.00    +0.028 A 
ATOM      4  C   UNL     1       3.483  -7.671   3.799  0.00  0.00    +0.002 A 
ATOM      5  C   UNL     1       3.023  -8.278   4.958  0.00  0.00    +0.002 A 
ATOM      6  C   UNL     1       1.672  -8.417   5.185  0.00  0.00    +0.030 A 
ATOM      7  C   UNL     1       0.758  -7.943   4.241  0.00  0.00    +0.090 A 
ATOM      8  N   UNL     1      -0.600  -7.933   4.180  0.00  0.00    -0.222 NA
ATOM      9  C   UNL     1      -0.986  -7.358   3.068  0.00  0.00    +0.172 A 
ENDROOT
BRANCH   1  10
ATOM     10  C   UNL     1       0.090  -6.300   1.040  0.00  0.00    +0.165 C 
BRANCH  10  11
ATOM     11  C   UNL     1       0.072  -4.785   1.249  0.00  0.00    +0.250 C 
BRANCH  11  12
ATOM     12  O   UNL     1       0.057  -4.129  -0.021  0.00  0.00    -0.490 OA
BRANCH  12  17
ATOM     13  C   UNL     1      -0.018   1.503   0.010  0.00  0.00    +0.044 C 
ATOM     14  C   UNL     1       0.002  -0.004   0.002  0.00  0.00    -0.050 A 
ATOM     15  C   UNL     1       0.006  -0.688  -1.200  0.00  0.00    +0.007 A 
ATOM     16  C   UNL     1       0.024  -2.069  -1.210  0.00  0.00    +0.046 A 
ATOM     17  C   UNL     1       0.039  -2.770  -0.013  0.00  0.00    +0.121 A 
ATOM     18  C   UNL     1       0.036  -2.082   1.191  0.00  0.00    +0.046 A 
ATOM     19  C   UNL     1       0.023  -0.701   1.196  0.00  0.00    +0.007 A 
ENDBRANCH  12  17
ENDBRANCH  11  12
ENDBRANCH  10  11
ENDBRANCH   1  10
BRANCH   9  20
ATOM     20  S   UNL     1      -2.662  -7.122   2.579  0.00  0.00    -0.054 S 
BRANCH  20  21
ATOM     21  C   UNL     1      -3.622  -7.836   3.943  0.00  0.00    +0.214 C 
ATOM     22  C   UNL     1      -5.096  -7.923   3.539  0.00  0.00    +0.185 C 
ATOM     23  C   UNL     1      -5.908  -8.470   4.717  0.00  0.00    +0.177 C 
ATOM     24  C   UNL     1      -5.692  -7.568   5.935  0.00  0.00    +0.176 C 
ATOM     25  C   UNL     1      -4.195  -7.494   6.246  0.00  0.00    +0.176 C 
ATOM     26  O   UNL     1      -3.494  -7.007   5.100  0.00  0.00    -0.355 OA
BRANCH  24  27
ATOM     27  O   UNL     1      -6.187  -6.258   5.653  0.00  0.00    -0.386 OA
ATOM     28  H   UNL     1      -7.131  -6.231   5.442  0.00  0.00    +0.210 HD
ENDBRANCH  24  27
BRANCH  23  29
ATOM     29  O   UNL     1      -7.295  -8.488   4.373  0.00  0.00    -0.386 OA
ATOM     30  H   UNL     1      -7.503  -9.037   3.604  0.00  0.00    +0.210 HD
ENDBRANCH  23  29
BRANCH  22  31
ATOM     31  O   UNL     1      -5.574  -6.622   3.191  0.00  0.00    -0.386 OA
ATOM     32  H   UNL     1      -5.100  -6.213   2.454  0.00  0.00    +0.210 HD
ENDBRANCH  22  31
BRANCH  25  33
ATOM     33  C   UNL     1      -3.965  -6.547   7.426  0.00  0.00    +0.190 C 
BRANCH  33  34
ATOM     34  O   UNL     1      -2.583  -6.568   7.791  0.00  0.00    -0.392 OA
ATOM     35  H   UNL     1      -2.364  -5.989   8.534  0.00  0.00    +0.210 HD
ENDBRANCH  33  34
ENDBRANCH  25  33
ENDBRANCH  20  21
ENDBRANCH   9  20
TORSDOF 11
