REMARK  Name = ZINC40527307
REMARK  12 active torsions:
REMARK  status: ('A' for Active; 'I' for Inactive)
REMARK    1  A    between atoms: C_1  and  C_2
REMARK    2  A    between atoms: C_2  and  O_3
REMARK    3  A    between atoms: O_3  and  C_4
REMARK    4  A    between atoms: C_4  and  C_5
REMARK    5  A    between atoms: C_5  and  C_6
REMARK    6  A    between atoms: C_6  and  N_7
REMARK    7  A    between atoms: C_8  and  C_10
REMARK    8  A    between atoms: C_14  and  N_15
REMARK    9  A    between atoms: C_16  and  C_18
REMARK   10  A    between atoms: C_20  and  C_24
REMARK   11  A    between atoms: C_28  and  C_31
REMARK   12  A    between atoms: C_29  and  O_30
REMARK                            x       y       z     vdW  Elec       q    Type
REMARK                         _______ _______ _______ _____ _____    ______ ____
ROOT
ATOM      1  N   UNL     1       1.104  -5.890  -6.877  0.00  0.00    -0.274 N 
ATOM      2  C   UNL     1       0.605  -6.111  -8.109  0.00  0.00    +0.266 C 
ATOM      3  O   UNL     1       1.351  -6.405  -9.024  0.00  0.00    -0.268 OA
ATOM      4  H   UNL     1       0.509  -5.655  -6.147  0.00  0.00    +0.156 HD
ENDROOT
BRANCH   1   9
ATOM      5  C   UNL     1       3.150  -5.810  -5.465  0.00  0.00    +0.069 A 
ATOM      6  C   UNL     1       4.601  -5.992  -5.491  0.00  0.00    -0.023 A 
ATOM      7  C   UNL     1       5.091  -6.321  -6.699  0.00  0.00    -0.004 A 
ATOM      8  S   UNL     1       3.667  -6.387  -7.757  0.00  0.00    -0.077 S 
ATOM      9  C   UNL     1       2.467  -5.999  -6.652  0.00  0.00    +0.085 A 
ATOM     10  C   UNL     1       6.585  -6.491  -6.671  0.00  0.00    +0.043 C 
ATOM     11  C   UNL     1       7.032  -5.804  -5.362  0.00  0.00    +0.010 C 
ATOM     12  C   UNL     1       5.759  -5.914  -4.498  0.00  0.00    +0.037 C 
BRANCH   5  14
ATOM     13  N   UNL     1       2.259  -4.151  -3.917  0.00  0.00    -0.311 N 
ATOM     14  C   UNL     1       2.449  -5.448  -4.229  0.00  0.00    +0.247 C 
ATOM     15  O   UNL     1       2.038  -6.319  -3.485  0.00  0.00    -0.270 OA
ATOM     16  H   UNL     1       2.587  -3.456  -4.510  0.00  0.00    +0.149 HD
BRANCH  13  17
ATOM     17  C   UNL     1       1.558  -3.789  -2.683  0.00  0.00    +0.107 C 
BRANCH  17  18
ATOM     18  C   UNL     1       1.478  -2.265  -2.569  0.00  0.00    +0.047 C 
BRANCH  18  19
ATOM     19  C   UNL     1       0.746  -1.888  -1.280  0.00  0.00    +0.161 C 
BRANCH  19  20
ATOM     20  O   UNL     1       0.671  -0.465  -1.174  0.00  0.00    -0.380 OA
BRANCH  20  22
ATOM     21  C   UNL     1      -0.019   1.526   0.010  0.00  0.00    +0.034 C 
ATOM     22  C   UNL     1       0.002  -0.004   0.002  0.00  0.00    +0.156 C 
ENDBRANCH  20  22
ENDBRANCH  19  20
ENDBRANCH  18  19
ENDBRANCH  17  18
ENDBRANCH  13  17
ENDBRANCH   5  14
ENDBRANCH   1   9
BRANCH   2  23
ATOM     23  C   UNL     1      -0.842  -5.995  -8.348  0.00  0.00    +0.121 A 
ATOM     24  C   UNL     1      -1.502  -6.195  -9.546  0.00  0.00    +0.062 A 
ATOM     25  C   UNL     1      -2.861  -5.969  -9.264  0.00  0.00    +0.097 A 
ATOM     26  N   UNL     1      -2.956  -5.662  -7.987  0.00  0.00    -0.173 NA
ATOM     27  N   UNL     1      -1.800  -5.675  -7.428  0.00  0.00    -0.272 N 
ATOM     28  H   UNL     1      -1.632  -5.483  -6.492  0.00  0.00    +0.189 HD
BRANCH  25  29
ATOM     29  C   UNL     1      -3.984  -6.061 -10.230  0.00  0.00    +0.044 A 
ATOM     30  C   UNL     1      -3.739  -6.403 -11.557  0.00  0.00    +0.014 A 
ATOM     31  C   UNL     1      -4.787  -6.487 -12.452  0.00  0.00    +0.001 A 
ATOM     32  C   UNL     1      -6.081  -6.231 -12.035  0.00  0.00    +0.007 A 
ATOM     33  C   UNL     1      -6.335  -5.891 -10.720  0.00  0.00    -0.008 A 
ATOM     34  C   UNL     1      -5.293  -5.809  -9.810  0.00  0.00    +0.129 A 
ATOM     35  C   UNL     1      -7.748  -5.615 -10.273  0.00  0.00    +0.047 C 
BRANCH  34  36
ATOM     36  O   UNL     1      -5.543  -5.480  -8.516  0.00  0.00    -0.506 OA
ATOM     37  H   UNL     1      -5.514  -4.529  -8.339  0.00  0.00    +0.292 HD
ENDBRANCH  34  36
ENDBRANCH  25  29
ENDBRANCH   2  23
TORSDOF 10
