REMARK  Name = ZINC61852911
REMARK  6 active torsions:
REMARK  status: ('A' for Active; 'I' for Inactive)
REMARK    1  A    between atoms: C_1  and  C_2
REMARK    2  A    between atoms: C_2  and  C_3
REMARK    3  A    between atoms: C_2  and  N_10
REMARK    4  A    between atoms: C_11  and  C_13
REMARK    5  A    between atoms: N_15  and  C_16
REMARK    6  A    between atoms: C_20  and  N_22
REMARK                            x       y       z     vdW  Elec       q    Type
REMARK                         _______ _______ _______ _____ _____    ______ ____
ROOT
ATOM      1  C   UNL     1       2.776  -1.093   2.384  0.00  0.00    +0.303 C 
ATOM      2  O   UNL     1       2.154  -1.388   3.384  0.00  0.00    -0.265 OA
ATOM      3  N   UNL     1       4.119  -1.205   2.369  0.00  0.00    -0.278 N 
ATOM      4  H   UNL     1       4.611  -1.034   1.550  0.00  0.00    +0.155 HD
ENDROOT
BRANCH   3   5
ATOM      5  C   UNL     1       4.804  -1.567   3.531  0.00  0.00    +0.036 A 
ATOM      6  C   UNL     1       4.235  -2.472   4.420  0.00  0.00    +0.023 A 
ATOM      7  C   UNL     1       4.911  -2.830   5.570  0.00  0.00    +0.004 A 
ATOM      8  C   UNL     1       6.154  -2.290   5.841  0.00  0.00    +0.026 A 
ATOM      9  C   UNL     1       6.728  -1.386   4.957  0.00  0.00    +0.051 A 
ATOM     10  C   UNL     1       6.055  -1.029   3.798  0.00  0.00    +0.049 A 
BRANCH   9  11
ATOM     11  N   UNL     1       7.990  -0.839   5.233  0.00  0.00    -0.288 N 
ATOM     12  C   UNL     1       8.680   0.059   4.474  0.00  0.00    +0.229 A 
ATOM     13  N   UNL     1       9.804   0.302   5.092  0.00  0.00    -0.138 NA
ATOM     14  N   UNL     1       9.862  -0.380   6.180  0.00  0.00    -0.138 NA
ATOM     15  C   UNL     1       8.776  -1.091   6.317  0.00  0.00    +0.229 A 
ENDBRANCH   9  11
ENDBRANCH   3   5
BRANCH   1  17
ATOM     16  N   UNL     1       0.710  -0.494   1.187  0.00  0.00    -0.301 N 
ATOM     17  C   UNL     1       2.053  -0.606   1.171  0.00  0.00    +0.300 C 
ATOM     18  O   UNL     1       2.675  -0.311   0.172  0.00  0.00    -0.265 OA
ATOM     19  H   UNL     1       0.213  -0.730   1.986  0.00  0.00    +0.150 HD
BRANCH  16  21
ATOM     20  C   UNL     1      -0.018   1.513  -0.005  0.00  0.00    +0.033 C 
ATOM     21  C   UNL     1       0.001  -0.016  -0.003  0.00  0.00    +0.102 C 
BRANCH  21  22
ATOM     22  C   UNL     1      -1.413  -0.536   0.013  0.00  0.00    -0.009 A 
ATOM     23  C   UNL     1      -2.015  -0.865   1.213  0.00  0.00    +0.007 A 
ATOM     24  C   UNL     1      -3.313  -1.342   1.227  0.00  0.00    +0.000 A 
ATOM     25  C   UNL     1      -4.009  -1.491   0.042  0.00  0.00    +0.001 A 
ATOM     26  C   UNL     1      -3.408  -1.162  -1.158  0.00  0.00    +0.020 A 
ATOM     27  C   UNL     1      -2.111  -0.679  -1.173  0.00  0.00    +0.046 A 
ATOM     28 CL   UNL     1      -1.357  -0.260  -2.680  0.00  0.00    -0.083 Cl
ENDBRANCH  21  22
ENDBRANCH  16  21
ENDBRANCH   1  17
TORSDOF 5
