REMARK  Name = ZINC09260519
REMARK  7 active torsions:
REMARK  status: ('A' for Active; 'I' for Inactive)
REMARK    1  A    between atoms: C_4  and  O_23
REMARK    2  A    between atoms: C_5  and  C_7
REMARK    3  A    between atoms: N_11  and  C_15
REMARK    4  A    between atoms: C_15  and  C_16
REMARK    5  A    between atoms: O_23  and  C_24
REMARK    6  A    between atoms: C_24  and  C_25
REMARK    7  A    between atoms: C_28  and  C_31
REMARK                            x       y       z     vdW  Elec       q    Type
REMARK                         _______ _______ _______ _____ _____    ______ ____
ROOT
ATOM      1  C   UNL     1      -1.226   3.154  -0.461  0.00  0.00    +0.001 A 
ATOM      2  C   UNL     1      -1.252   1.808  -0.133  0.00  0.00    +0.004 A 
ATOM      3  C   UNL     1      -0.094   1.157   0.247  0.00  0.00    +0.046 A 
ATOM      4  C   UNL     1       1.108   1.846   0.292  0.00  0.00    +0.128 A 
ATOM      5  C   UNL     1       1.141   3.209  -0.044  0.00  0.00    +0.019 A 
ATOM      6  C   UNL     1      -0.041   3.856  -0.422  0.00  0.00    +0.011 A 
ENDROOT
BRANCH   5   7
ATOM      7  C   UNL     1       2.408   3.950  -0.001  0.00  0.00    +0.040 C 
ATOM      8  C   UNL     1       2.440   5.210   0.502  0.00  0.00    +0.098 C 
ATOM      9  C   UNL     1       1.351   5.929   1.181  0.00  0.00    +0.269 C 
ATOM     10  O   UNL     1       0.231   5.513   1.408  0.00  0.00    -0.268 OA
ATOM     11  N   UNL     1       1.845   7.142   1.501  0.00  0.00    -0.216 N 
ATOM     12  C   UNL     1       3.118   7.239   1.089  0.00  0.00    +0.313 C 
ATOM     13  O   UNL     1       3.819   8.221   1.242  0.00  0.00    -0.252 OA
ATOM     14  N   UNL     1       3.520   6.104   0.490  0.00  0.00    -0.265 N 
ATOM     15  H   UNL     1       4.398   5.935   0.116  0.00  0.00    +0.157 HD
BRANCH  11  16
ATOM     16  C   UNL     1       1.102   8.197   2.194  0.00  0.00    +0.153 C 
BRANCH  16  17
ATOM     17  C   UNL     1       1.289   8.049   3.682  0.00  0.00    -0.029 A 
ATOM     18  C   UNL     1       0.410   7.275   4.415  0.00  0.00    +0.008 A 
ATOM     19  C   UNL     1       0.584   7.134   5.779  0.00  0.00    +0.038 A 
ATOM     20  C   UNL     1       1.633   7.778   6.412  0.00  0.00    +0.123 A 
ATOM     21  C   UNL     1       2.510   8.558   5.678  0.00  0.00    +0.038 A 
ATOM     22  C   UNL     1       2.338   8.692   4.313  0.00  0.00    +0.008 A 
ATOM     23  F   UNL     1       1.801   7.646   7.747  0.00  0.00    -0.205 F 
ENDBRANCH  16  17
ENDBRANCH  11  16
ENDBRANCH   5   7
BRANCH   4  24
ATOM     24  O   UNL     1       2.247   1.206   0.661  0.00  0.00    -0.487 OA
BRANCH  24  25
ATOM     25  C   UNL     1       2.135  -0.180   0.989  0.00  0.00    +0.264 C 
BRANCH  25  26
ATOM     26  C   UNL     1       3.490  -0.717   1.371  0.00  0.00    -0.010 A 
ATOM     27  C   UNL     1       4.316  -1.256   0.401  0.00  0.00    +0.008 A 
ATOM     28  C   UNL     1       5.560  -1.744   0.742  0.00  0.00    +0.015 A 
ATOM     29  C   UNL     1       5.981  -1.704   2.073  0.00  0.00    +0.063 A 
ATOM     30  C   UNL     1       5.140  -1.163   3.048  0.00  0.00    +0.015 A 
ATOM     31  C   UNL     1       3.901  -0.673   2.692  0.00  0.00    +0.008 A 
BRANCH  29  32
ATOM     32  C   UNL     1       7.310  -2.230   2.447  0.00  0.00    +0.387 C 
ATOM     33  O   UNL     1       7.673  -2.193   3.606  0.00  0.00    -0.241 OA
ATOM     34  O   UNL     1       8.118  -2.750   1.504  0.00  0.00    -0.241 OA
ENDBRANCH  29  32
ENDBRANCH  25  26
ENDBRANCH  24  25
ENDBRANCH   4  24
TORSDOF 7
