REMARK  Name = ZINC67001881
REMARK  6 active torsions:
REMARK  status: ('A' for Active; 'I' for Inactive)
REMARK    1  A    between atoms: C_1  and  C_2
REMARK    2  A    between atoms: C_2  and  C_4
REMARK    3  A    between atoms: C_2  and  N_15
REMARK    4  A    between atoms: C_4  and  O_6
REMARK    5  A    between atoms: O_6  and  C_7
REMARK    6  A    between atoms: C_16  and  C_18
REMARK                            x       y       z     vdW  Elec       q    Type
REMARK                         _______ _______ _______ _____ _____    ______ ____
ROOT
ATOM      1  C   UNL     1      -0.019   1.526   0.010  0.00  0.00    +0.040 C 
ATOM      2  C   UNL     1       0.002  -0.004   0.002  0.00  0.00    +0.179 C 
ENDROOT
BRANCH   2   3
ATOM      3  N   UNL     1       0.688  -0.476  -1.203  0.00  0.00    -0.302 N 
ATOM      4  C   UNL     1       0.006  -0.608  -2.358  0.00  0.00    +0.217 C 
ATOM      5  O   UNL     1      -1.175  -0.336  -2.400  0.00  0.00    -0.275 OA
ATOM      6  H   UNL     1       1.632  -0.695  -1.170  0.00  0.00    +0.150 HD
BRANCH   4   7
ATOM      7  C   UNL     1       0.712  -1.094  -3.598  0.00  0.00    +0.079 C 
ATOM      8  C   UNL     1       1.844  -0.127  -3.956  0.00  0.00    +0.041 C 
ATOM      9  C   UNL     1       2.503  -0.585  -5.260  0.00  0.00    +0.160 C 
ATOM     10  O   UNL     1       1.519  -0.648  -6.293  0.00  0.00    -0.380 OA
ATOM     11  C   UNL     1       0.460  -1.572  -6.035  0.00  0.00    +0.160 C 
ATOM     12  C   UNL     1      -0.282  -1.153  -4.763  0.00  0.00    +0.041 C 
ENDBRANCH   4   7
ENDBRANCH   2   3
BRANCH   2  13
ATOM     13  C   UNL     1       0.731  -0.503   1.223  0.00  0.00    +0.328 C 
ATOM     14  O   UNL     1       1.722  -1.184   1.099  0.00  0.00    -0.249 OA
BRANCH  13  15
ATOM     15  O   UNL     1       0.280  -0.192   2.448  0.00  0.00    -0.460 OA
BRANCH  15  16
ATOM     16  C   UNL     1       1.020  -0.699   3.560  0.00  0.00    +0.176 C 
ATOM     17  C   UNL     1       2.101   0.309   3.955  0.00  0.00    +0.044 C 
ATOM     18  C   UNL     1       2.622  -0.025   5.354  0.00  0.00    +0.004 C 
ATOM     19  C   UNL     1       3.553  -1.237   5.276  0.00  0.00    +0.000 C 
ATOM     20  C   UNL     1       2.721  -2.509   5.108  0.00  0.00    +0.000 C 
ATOM     21  C   UNL     1       1.526  -2.468   6.063  0.00  0.00    +0.000 C 
ATOM     22  C   UNL     1       0.231  -2.356   5.256  0.00  0.00    +0.004 C 
ATOM     23  C   UNL     1       0.074  -0.923   4.742  0.00  0.00    +0.044 C 
ENDBRANCH  15  16
ENDBRANCH  13  15
ENDBRANCH   2  13
TORSDOF 5
