REMARK  Name = ZINC62495239
REMARK  4 active torsions:
REMARK  status: ('A' for Active; 'I' for Inactive)
REMARK    1  A    between atoms: C_1  and  C_2
REMARK    2  A    between atoms: C_5  and  C_8
REMARK    3  A    between atoms: C_8  and  C_9
REMARK    4  A    between atoms: C_16  and  N_21
REMARK                            x       y       z     vdW  Elec       q    Type
REMARK                         _______ _______ _______ _____ _____    ______ ____
ROOT
ATOM      1  C   UNL     1       1.508  -4.767  -0.032  0.00  0.00    +0.263 C 
ATOM      2  C   UNL     1       1.530  -6.270   0.085  0.00  0.00    +0.258 C 
ATOM      3  O   UNL     1       1.626  -6.794   1.175  0.00  0.00    -0.271 OA
ATOM      4  N   UNL     1       1.440  -7.029  -1.026  0.00  0.00    -0.279 N 
ATOM      5  C   UNL     1       1.456  -6.408  -2.283  0.00  0.00    +0.077 A 
ATOM      6  C   UNL     1       1.139  -7.125  -3.425  0.00  0.00    +0.049 A 
ATOM      7  C   UNL     1       1.146  -6.492  -4.661  0.00  0.00    +0.027 A 
ATOM      8  C   UNL     1       1.469  -5.144  -4.750  0.00  0.00    +0.026 A 
ATOM      9  C   UNL     1       1.790  -4.430  -3.610  0.00  0.00    +0.049 A 
ATOM     10  C   UNL     1       1.790  -5.059  -2.377  0.00  0.00    +0.143 A 
ATOM     11  O   UNL     1       2.135  -4.372  -1.254  0.00  0.00    -0.477 OA
ATOM     12  H   UNL     1       1.366  -7.994  -0.957  0.00  0.00    +0.155 HD
ENDROOT
BRANCH   7  13
ATOM     13  N   UNL     1       0.827  -7.212  -5.817  0.00  0.00    -0.358 N 
ATOM     14  H   UNL     1       0.602  -8.153  -5.756  0.00  0.00    +0.142 HD
ATOM     15  H   UNL     1       0.832  -6.770  -6.681  0.00  0.00    +0.142 HD
ENDBRANCH   7  13
BRANCH   1  16
ATOM     16  C   UNL     1       0.059  -4.275  -0.021  0.00  0.00    +0.089 C 
BRANCH  16  21
ATOM     17  C   UNL     1      -0.018   1.503   0.010  0.00  0.00    +0.044 C 
ATOM     18  C   UNL     1       0.002  -0.004   0.002  0.00  0.00    -0.050 A 
ATOM     19  C   UNL     1       0.006  -0.689  -1.199  0.00  0.00    +0.003 A 
ATOM     20  C   UNL     1       0.025  -2.071  -1.206  0.00  0.00    +0.004 A 
ATOM     21  C   UNL     1       0.040  -2.768  -0.013  0.00  0.00    -0.043 A 
ATOM     22  C   UNL     1       0.037  -2.084   1.188  0.00  0.00    +0.004 A 
ATOM     23  C   UNL     1       0.023  -0.702   1.195  0.00  0.00    +0.003 A 
ENDBRANCH  16  21
ENDBRANCH   1  16
TORSDOF 3
