REMARK  Name = ZINC51036575
REMARK  4 active torsions:
REMARK  status: ('A' for Active; 'I' for Inactive)
REMARK    1  A    between atoms: C_4  and  C_19
REMARK    2  A    between atoms: C_5  and  C_7
REMARK    3  A    between atoms: C_7  and  S_8
REMARK    4  A    between atoms: S_8  and  C_9
REMARK                            x       y       z     vdW  Elec       q    Type
REMARK                         _______ _______ _______ _____ _____    ______ ____
ROOT
ATOM      1  C   UNL     1      -0.058   1.290  -0.156  0.00  0.00    +0.000 A 
ATOM      2  C   UNL     1       1.105   2.039  -0.126  0.00  0.00    +0.001 A 
ATOM      3  C   UNL     1       2.324   1.420   0.059  0.00  0.00    +0.011 A 
ATOM      4  C   UNL     1       2.382   0.035   0.216  0.00  0.00    +0.016 A 
ATOM      5  C   UNL     1       1.207  -0.715   0.185  0.00  0.00    -0.027 A 
ATOM      6  C   UNL     1      -0.006  -0.084  -0.001  0.00  0.00    +0.005 A 
ENDROOT
BRANCH   4   7
ATOM      7  C   UNL     1       3.686  -0.636   0.415  0.00  0.00    +0.095 C 
ATOM      8  N   UNL     1       4.076  -1.595  -0.423  0.00  0.00    -0.387 N 
ATOM      9  N   UNL     1       4.470  -0.281   1.431  0.00  0.00    -0.345 N 
ATOM     10  H   UNL     1       3.552  -1.789  -1.216  0.00  0.00    +0.157 HD
ATOM     11  H   UNL     1       4.186   0.417   2.041  0.00  0.00    +0.144 HD
ATOM     12  H   UNL     1       5.325  -0.721   1.561  0.00  0.00    +0.144 HD
ATOM     13  H   UNL     1       4.885  -2.099  -0.241  0.00  0.00    +0.157 HD
ENDBRANCH   4   7
BRANCH   5  14
ATOM     14  C   UNL     1       1.261  -2.212   0.355  0.00  0.00    +0.111 C 
BRANCH  14  15
ATOM     15  S   UNL     1       1.284  -2.620   2.122  0.00  0.00    -0.099 S 
BRANCH  15  16
ATOM     16  C   UNL     1       1.347  -4.380   2.152  0.00  0.00    +0.126 A 
ATOM     17  C   UNL     1       1.371  -5.074   3.365  0.00  0.00    +0.117 A 
ATOM     18  C   UNL     1       1.421  -6.476   3.337  0.00  0.00    +0.182 A 
ATOM     19  N   UNL     1       1.436  -6.892   4.618  0.00  0.00    -0.216 NA
ATOM     20  H   UNL     1       1.327  -3.815   5.052  0.00  0.00    +0.167 HD
ATOM     21  C   UNL     1       1.400  -5.862   5.416  0.00  0.00    +0.199 A 
ATOM     22  N   UNL     1       1.359  -4.718   4.697  0.00  0.00    -0.341 N 
ATOM     23  N   UNL     1       1.442  -7.094   2.151  0.00  0.00    -0.214 NA
ATOM     24  C   UNL     1       1.418  -6.400   1.035  0.00  0.00    +0.224 A 
ATOM     25  N   UNL     1       1.366  -5.080   1.020  0.00  0.00    -0.227 NA
ENDBRANCH  15  16
ENDBRANCH  14  15
ENDBRANCH   5  14
TORSDOF 4
