REMARK  Name = ZINC45353204
REMARK  12 active torsions:
REMARK  status: ('A' for Active; 'I' for Inactive)
REMARK    1  A    between atoms: C_1  and  C_2
REMARK    2  A    between atoms: C_2  and  C_3
REMARK    3  A    between atoms: C_2  and  C_4
REMARK    4  A    between atoms: C_4  and  C_6
REMARK    5  A    between atoms: C_4  and  N_12
REMARK    6  A    between atoms: C_13  and  C_15
REMARK    7  A    between atoms: C_15  and  O_16
REMARK    8  A    between atoms: O_16  and  C_17
REMARK    9  A    between atoms: C_17  and  C_19
REMARK   10  A    between atoms: C_19  and  C_20
REMARK   11  A    between atoms: C_20  and  N_21
REMARK   12  A    between atoms: N_24  and  C_25
REMARK                            x       y       z     vdW  Elec       q    Type
REMARK                         _______ _______ _______ _____ _____    ______ ____
ROOT
ATOM      1  C   UNL     1       5.025   3.658   2.360  0.00  0.00    +0.309 C 
ATOM      2  O   UNL     1       6.012   3.100   1.943  0.00  0.00    -0.251 OA
ENDROOT
BRANCH   1   3
ATOM      3  O   UNL     1       3.831   3.048   2.294  0.00  0.00    -0.455 OA
BRANCH   3   4
ATOM      4  C   UNL     1       3.801   1.741   1.718  0.00  0.00    +0.327 C 
BRANCH   4   6
ATOM      5  N   UNL     1       2.116  -0.004   1.231  0.00  0.00    -0.305 N 
ATOM      6  C   UNL     1       2.387   1.219   1.728  0.00  0.00    +0.251 C 
ATOM      7  O   UNL     1       1.493   1.900   2.184  0.00  0.00    -0.272 OA
ATOM      8  H   UNL     1       2.832  -0.548   0.866  0.00  0.00    +0.149 HD
BRANCH   5   9
ATOM      9  C   UNL     1       0.742  -0.511   1.242  0.00  0.00    +0.106 C 
BRANCH   9  10
ATOM     10  C   UNL     1       0.762  -2.018   1.233  0.00  0.00    -0.027 A 
ATOM     11  C   UNL     1       1.685  -2.692   0.456  0.00  0.00    +0.005 A 
ATOM     12  C   UNL     1       1.704  -4.074   0.448  0.00  0.00    +0.000 A 
ATOM     13  C   UNL     1       0.800  -4.782   1.218  0.00  0.00    +0.000 A 
ATOM     14  C   UNL     1      -0.122  -4.108   1.997  0.00  0.00    +0.000 A 
ATOM     15  C   UNL     1      -0.138  -2.725   2.008  0.00  0.00    +0.005 A 
ENDBRANCH   9  10
BRANCH   9  17
ATOM     16  C   UNL     1      -0.019   1.526   0.010  0.00  0.00    +0.009 C 
ATOM     17  C   UNL     1       0.002  -0.004   0.002  0.00  0.00    +0.008 C 
ATOM     18  C   UNL     1       0.718  -0.497  -1.257  0.00  0.00    +0.009 C 
ENDBRANCH   9  17
ENDBRANCH   5   9
ENDBRANCH   4   6
ENDBRANCH   3   4
ENDBRANCH   1   3
BRANCH   1  19
ATOM     19  C   UNL     1       5.134   5.038   2.955  0.00  0.00    +0.139 C 
BRANCH  19  20
ATOM     20  C   UNL     1       6.592   5.499   2.910  0.00  0.00    +0.117 C 
BRANCH  20  21
ATOM     21  N   UNL     1       6.698   6.841   3.488  0.00  0.00    -0.299 N 
ATOM     22  C   UNL     1       7.897   7.453   3.555  0.00  0.00    +0.300 C 
ATOM     23  O   UNL     1       8.891   6.892   3.135  0.00  0.00    -0.253 OA
ATOM     24  N   UNL     1       7.995   8.688   4.087  0.00  0.00    -0.294 N 
ATOM     25  H   UNL     1       5.906   7.289   3.823  0.00  0.00    +0.150 HD
ATOM     26  H   UNL     1       7.202   9.136   4.422  0.00  0.00    +0.151 HD
BRANCH  24  27
ATOM     27  C   UNL     1       9.298   9.353   4.159  0.00  0.00    +0.037 C 
ATOM     28  C   UNL     1      10.255   8.510   5.003  0.00  0.00    +0.029 C 
ATOM     29  C   UNL     1      11.616   9.205   5.079  0.00  0.00    -0.008 C 
ATOM     30  C   UNL     1      11.450  10.584   5.721  0.00  0.00    +0.007 C 
ATOM     31  C   UNL     1      10.493  11.427   4.876  0.00  0.00    -0.008 C 
ATOM     32  C   UNL     1       9.132  10.732   4.801  0.00  0.00    +0.029 C 
ATOM     33  C   UNL     1      11.063  11.586   3.465  0.00  0.00    +0.007 C 
ATOM     34  C   UNL     1      11.229  10.208   2.824  0.00  0.00    -0.008 C 
ATOM     35  C   UNL     1      12.186   9.364   3.668  0.00  0.00    +0.007 C 
ATOM     36  C   UNL     1       9.868   9.513   2.748  0.00  0.00    +0.029 C 
ENDBRANCH  24  27
ENDBRANCH  20  21
ENDBRANCH  19  20
ENDBRANCH   1  19
TORSDOF 10
