REMARK  Name = ZINC40165827
REMARK  3 active torsions:
REMARK  status: ('A' for Active; 'I' for Inactive)
REMARK    1  A    between atoms: C_2  and  C_13
REMARK    2  A    between atoms: C_15  and  C_16
REMARK    3  A    between atoms: C_16  and  C_18
REMARK                            x       y       z     vdW  Elec       q    Type
REMARK                         _______ _______ _______ _____ _____    ______ ____
ROOT
ATOM      1  C   UNL     1      -0.028   1.388  -0.161  0.00  0.00    +0.062 A 
ATOM      2  C   UNL     1       1.178   2.084  -0.009  0.00  0.00    +0.039 A 
ATOM      3  C   UNL     1       2.378   1.376   0.124  0.00  0.00    +0.032 A 
ATOM      4  C   UNL     1       2.372  -0.003   0.106  0.00  0.00    +0.065 A 
ATOM      5  C   UNL     1       1.175  -0.688  -0.044  0.00  0.00    +0.163 A 
ATOM      6  C   UNL     1      -0.021   0.009  -0.177  0.00  0.00    +0.163 A 
ATOM      7  O   UNL     1      -1.190  -0.681  -0.323  0.00  0.00    -0.488 OA
ATOM      8  C   UNL     1      -1.347  -1.393  -1.552  0.00  0.00    +0.232 C 
ATOM      9  C   UNL     1      -0.681  -2.758  -1.473  0.00  0.00    +0.082 C 
ATOM     10  C   UNL     1       0.828  -2.658  -1.311  0.00  0.00    +0.232 C 
ATOM     11  O   UNL     1       1.165  -2.052  -0.062  0.00  0.00    -0.488 OA
ATOM     12 BR   UNL     1       4.009   2.312   0.329  0.00  0.00    -0.049 Br
ENDROOT
BRANCH   2  13
ATOM     13  C   UNL     1       1.183   3.556   0.010  0.00  0.00    +0.191 C 
ATOM     14  O   UNL     1       1.935   4.240  -0.880  0.00  0.00    -0.287 OA
ATOM     15  C   UNL     1       0.422   4.235   0.934  0.00  0.00    +0.107 C 
BRANCH  15  16
ATOM     16  C   UNL     1       0.332   5.628   0.877  0.00  0.00    +0.262 C 
ATOM     17  O   UNL     1       0.925   6.241   0.010  0.00  0.00    -0.283 OA
BRANCH  16  18
ATOM     18  C   UNL     1      -0.502   6.372   1.888  0.00  0.00    +0.455 C 
ATOM     19  F   UNL     1      -1.508   7.086   1.229  0.00  0.00    -0.163 F 
ATOM     20  F   UNL     1      -1.082   5.459   2.776  0.00  0.00    -0.163 F 
ATOM     21  F   UNL     1       0.311   7.261   2.599  0.00  0.00    -0.163 F 
ENDBRANCH  16  18
ENDBRANCH  15  16
ENDBRANCH   2  13
TORSDOF 3
