REMARK  Name = ZINC54423752
REMARK  7 active torsions:
REMARK  status: ('A' for Active; 'I' for Inactive)
REMARK    1  A    between atoms: C_1  and  C_2
REMARK    2  A    between atoms: C_5  and  C_27
REMARK    3  A    between atoms: N_8  and  C_10
REMARK    4  A    between atoms: C_10  and  C_11
REMARK    5  A    between atoms: C_11  and  C_12
REMARK    6  A    between atoms: N_14  and  C_15
REMARK    7  A    between atoms: C_16  and  C_24
REMARK                            x       y       z     vdW  Elec       q    Type
REMARK                         _______ _______ _______ _____ _____    ______ ____
ROOT
ATOM      1  C   UNL     1       3.788  -2.522   3.420  0.00  0.00    +0.216 C 
ATOM      2  O   UNL     1       3.241  -3.158   4.296  0.00  0.00    -0.276 OA
ATOM      3  N   UNL     1       5.107  -2.257   3.503  0.00  0.00    -0.279 N 
ATOM      4  H   UNL     1       5.545  -1.748   2.802  0.00  0.00    +0.155 HD
ENDROOT
BRANCH   3   5
ATOM      5  C   UNL     1       5.839  -2.711   4.590  0.00  0.00    +0.084 A 
ATOM      6  C   UNL     1       7.189  -2.531   4.843  0.00  0.00    +0.068 A 
ATOM      7  C   UNL     1       7.720  -3.113   6.064  0.00  0.00    -0.023 A 
ATOM      8  C   UNL     1       6.802  -3.768   6.807  0.00  0.00    -0.004 A 
ATOM      9  S   UNL     1       5.290  -3.600   5.904  0.00  0.00    -0.077 S 
ATOM     10  C   UNL     1       7.035  -4.471   8.109  0.00  0.00    +0.043 C 
ATOM     11  C   UNL     1       8.548  -4.661   8.291  0.00  0.00    +0.005 C 
ATOM     12  C   UNL     1       9.252  -3.332   8.001  0.00  0.00    +0.005 C 
ATOM     13  C   UNL     1       9.172  -3.015   6.506  0.00  0.00    +0.037 C 
BRANCH   6  14
ATOM     14  C   UNL     1       8.047  -1.785   3.917  0.00  0.00    +0.244 C 
ATOM     15  O   UNL     1       8.187  -0.583   4.052  0.00  0.00    -0.270 OA
ATOM     16  N   UNL     1       8.681  -2.429   2.917  0.00  0.00    -0.325 N 
ATOM     17  H   UNL     1       8.569  -3.387   2.810  0.00  0.00    +0.145 HD
ATOM     18  H   UNL     1       9.248  -1.936   2.305  0.00  0.00    +0.145 HD
ENDBRANCH   6  14
ENDBRANCH   3   5
BRANCH   1  19
ATOM     19  C   UNL     1       2.993  -2.028   2.239  0.00  0.00    +0.077 C 
BRANCH  19  20
ATOM     20  C   UNL     1       1.534  -2.461   2.390  0.00  0.00    -0.070 C 
BRANCH  20  26
ATOM     21  C   UNL     1      -0.019   1.526   0.010  0.00  0.00    +0.005 C 
ATOM     22  C   UNL     1       0.002  -0.004   0.002  0.00  0.00    -0.031 C 
ATOM     23  C   UNL     1      -1.434  -0.535   0.015  0.00  0.00    +0.003 C 
ATOM     24  C   UNL     1      -1.402  -2.064   0.086  0.00  0.00    -0.031 C 
ATOM     25  C   UNL     1      -0.613  -2.496   1.324  0.00  0.00    -0.076 C 
ATOM     26  N   UNL     1       0.758  -1.980   1.239  0.00  0.00    +0.380 N 
ATOM     27  C   UNL     1       0.740  -0.512   1.242  0.00  0.00    -0.076 C 
ATOM     28  C   UNL     1      -2.832  -2.602   0.177  0.00  0.00    +0.005 C 
ATOM     29  H   UNL     1       1.188  -2.307   0.386  0.00  0.00    -0.082 HD
ENDBRANCH  20  26
ENDBRANCH  19  20
ENDBRANCH   1  19
TORSDOF 5
