REMARK  Name = ZINC50517481
REMARK  5 active torsions:
REMARK  status: ('A' for Active; 'I' for Inactive)
REMARK    1  A    between atoms: C_3  and  N_18
REMARK    2  A    between atoms: C_4  and  O_9
REMARK    3  A    between atoms: C_6  and  C_7
REMARK    4  A    between atoms: O_9  and  C_10
REMARK    5  A    between atoms: C_15  and  O_17
REMARK                            x       y       z     vdW  Elec       q    Type
REMARK                         _______ _______ _______ _____ _____    ______ ____
ROOT
ATOM      1  C   UNL     1      -0.016   1.395   0.025  0.00  0.00    +0.013 A 
ATOM      2  C   UNL     1       1.156   2.082  -0.209  0.00  0.00    +0.037 A 
ATOM      3  C   UNL     1       2.365   1.411  -0.230  0.00  0.00    +0.168 A 
ATOM      4  C   UNL     1       2.408   0.039  -0.015  0.00  0.00    +0.152 A 
ATOM      5  C   UNL     1       1.239  -0.662   0.222  0.00  0.00    +0.059 A 
ATOM      6  C   UNL     1       0.016   0.014   0.243  0.00  0.00    +0.018 A 
ENDROOT
BRANCH   3   7
ATOM      7  N   UNL     1       3.618   2.157  -0.483  0.00  0.00    +0.060 N 
ATOM      8  O   UNL     1       3.584   3.350  -0.671  0.00  0.00    -0.126 OA
ATOM      9  O   UNL     1       4.676   1.572  -0.502  0.00  0.00    -0.126 OA
ENDBRANCH   3   7
BRANCH   6  10
ATOM     10  C   UNL     1      -1.232  -0.724   0.494  0.00  0.00    +0.258 C 
ATOM     11  O   UNL     1      -2.292  -0.135   0.512  0.00  0.00    -0.296 OA
ENDBRANCH   6  10
BRANCH   4  12
ATOM     12  O   UNL     1       3.600  -0.615  -0.038  0.00  0.00    -0.484 OA
BRANCH  12  13
ATOM     13  C   UNL     1       3.560  -2.039   0.065  0.00  0.00    +0.202 C 
ATOM     14  C   UNL     1       3.548  -2.461   1.549  0.00  0.00    +0.047 C 
ATOM     15  C   UNL     1       4.419  -3.742   1.587  0.00  0.00    +0.006 C 
ATOM     16  C   UNL     1       5.545  -3.419   0.574  0.00  0.00    +0.035 C 
ATOM     17  C   UNL     1       4.830  -2.648  -0.555  0.00  0.00    +0.155 C 
BRANCH  17  18
ATOM     18  O   UNL     1       4.477  -3.543  -1.612  0.00  0.00    -0.388 OA
ATOM     19  H   UNL     1       5.235  -3.960  -2.045  0.00  0.00    +0.210 HD
ENDBRANCH  17  18
ENDBRANCH  12  13
ENDBRANCH   4  12
TORSDOF 5
