REMARK  Name = ZINC49200838
REMARK  5 active torsions:
REMARK  status: ('A' for Active; 'I' for Inactive)
REMARK    1  A    between atoms: C_3  and  C_6
REMARK    2  A    between atoms: C_8  and  C_9
REMARK    3  A    between atoms: C_8  and  C_11
REMARK    4  A    between atoms: C_11  and  C_13
REMARK    5  A    between atoms: C_13  and  C_14
REMARK                            x       y       z     vdW  Elec       q    Type
REMARK                         _______ _______ _______ _____ _____    ______ ____
ROOT
ATOM      1  C   UNL     1       3.445  -1.827   0.066  0.00  0.00    +0.181 C 
ATOM      2  O   UNL     1       2.243  -1.805  -0.105  0.00  0.00    -0.291 OA
ENDROOT
BRANCH   1   5
ATOM      3  C   UNL     1       3.546   0.584  -0.258  0.00  0.00    +0.241 C 
ATOM      4  O   UNL     1       4.215   1.750  -0.137  0.00  0.00    -0.282 OA
ATOM      5  C   UNL     1       4.180  -0.624   0.064  0.00  0.00    +0.144 C 
BRANCH   3   8
ATOM      6  C   UNL     1       0.025   0.992  -0.922  0.00  0.00    +0.042 A 
ATOM      7  C   UNL     1       1.161   1.298  -0.160  0.00  0.00    +0.053 A 
ATOM      8  C   UNL     1       2.206   0.580  -0.709  0.00  0.00    +0.176 A 
ATOM      9  O   UNL     1       1.719  -0.124  -1.752  0.00  0.00    -0.460 OA
ATOM     10  C   UNL     1       0.409   0.121  -1.883  0.00  0.00    +0.196 A 
ENDBRANCH   3   8
BRANCH   5  11
ATOM     11  C   UNL     1       5.574  -0.636   0.391  0.00  0.00    +0.107 C 
ATOM     12  N   UNL     1       6.680  -0.645   0.651  0.00  0.00    -0.191 NA
ENDBRANCH   5  11
ENDBRANCH   1   5
BRANCH   1  13
ATOM     13  C   UNL     1       4.152  -3.141   0.278  0.00  0.00    +0.115 C 
BRANCH  13  14
ATOM     14  C   UNL     1       3.148  -4.264   0.235  0.00  0.00    -0.039 A 
ATOM     15  C   UNL     1       2.516  -4.675   1.395  0.00  0.00    +0.007 A 
ATOM     16  C   UNL     1       1.593  -5.700   1.360  0.00  0.00    +0.046 A 
ATOM     17  C   UNL     1       1.290  -6.330   0.156  0.00  0.00    +0.124 A 
ATOM     18  C   UNL     1       1.936  -5.913  -1.001  0.00  0.00    -0.002 A 
ATOM     19  C   UNL     1       2.851  -4.884  -0.965  0.00  0.00    +0.011 A 
ATOM     20  C   UNL     1       1.429  -6.786  -2.132  0.00  0.00    +0.080 C 
ATOM     21  C   UNL     1       0.753  -7.946  -1.364  0.00  0.00    +0.234 C 
ATOM     22  O   UNL     1       0.415  -7.340  -0.105  0.00  0.00    -0.491 OA
ENDBRANCH  13  14
ENDBRANCH   1  13
TORSDOF 5
