REMARK  Name = ZINC64697317
REMARK  11 active torsions:
REMARK  status: ('A' for Active; 'I' for Inactive)
REMARK    1  A    between atoms: C_1  and  C_2
REMARK    2  A    between atoms: C_2  and  C_3
REMARK    3  A    between atoms: C_3  and  C_4
REMARK    4  A    between atoms: C_4  and  N_5
REMARK    5  A    between atoms: C_6  and  N_31
REMARK    6  A    between atoms: C_8  and  N_15
REMARK    7  A    between atoms: N_15  and  C_16
REMARK    8  A    between atoms: C_17  and  C_19
REMARK    9  A    between atoms: C_19  and  C_20
REMARK   10  A    between atoms: C_20  and  C_21
REMARK   11  A    between atoms: C_21  and  C_22
REMARK                            x       y       z     vdW  Elec       q    Type
REMARK                         _______ _______ _______ _____ _____    ______ ____
ROOT
ATOM      1  N   UNL     1      -5.103  -1.017   1.124  0.00  0.00    -0.293 N 
ATOM      2  C   UNL     1      -4.455  -0.232   0.070  0.00  0.00    +0.133 C 
ATOM      3  C   UNL     1      -5.843  -0.400   2.066  0.00  0.00    +0.216 C 
ATOM      4  O   UNL     1      -6.380  -1.050   2.938  0.00  0.00    -0.276 OA
ENDROOT
BRANCH   1   7
ATOM      5  N   UNL     1      -2.787  -2.571   0.015  0.00  0.00    -0.296 N 
ATOM      6  C   UNL     1      -3.461  -2.824   1.291  0.00  0.00    +0.047 C 
ATOM      7  C   UNL     1      -4.945  -2.473   1.154  0.00  0.00    +0.166 C 
ATOM      8  C   UNL     1      -5.480  -3.065  -0.125  0.00  0.00    +0.261 C 
ATOM      9  O   UNL     1      -6.755  -3.483  -0.184  0.00  0.00    -0.272 OA
ATOM     10  N   UNL     1      -4.715  -3.173  -1.174  0.00  0.00    -0.126 NA
ATOM     11  C   UNL     1      -3.426  -2.796  -1.146  0.00  0.00    +0.327 C 
ATOM     12  O   UNL     1      -2.823  -2.659  -2.194  0.00  0.00    -0.250 OA
BRANCH   6  13
ATOM     13  N   UNL     1      -2.854  -1.994   2.341  0.00  0.00    +0.392 N 
ATOM     14  H   UNL     1      -2.951  -1.020   2.097  0.00  0.00    -0.087 HD
ATOM     15  H   UNL     1      -3.319  -2.170   3.219  0.00  0.00    -0.087 HD
ATOM     16  H   UNL     1      -1.875  -2.224   2.426  0.00  0.00    -0.087 HD
ENDBRANCH   6  13
BRANCH   5  17
ATOM     17  C   UNL     1      -1.413  -2.063   0.004  0.00  0.00    +0.107 C 
BRANCH  17  18
ATOM     18  C   UNL     1      -1.433  -0.534   0.013  0.00  0.00    +0.019 C 
BRANCH  18  20
ATOM     19  C   UNL     1      -0.019   1.526   0.010  0.00  0.00    +0.004 C 
ATOM     20  C   UNL     1       0.002  -0.004   0.002  0.00  0.00    -0.002 C 
ENDBRANCH  18  20
ENDBRANCH  17  18
ENDBRANCH   5  17
ENDBRANCH   1   7
BRANCH   3  21
ATOM     21  C   UNL     1      -6.005   1.098   2.035  0.00  0.00    +0.096 C 
BRANCH  21  22
ATOM     22  C   UNL     1      -6.886   1.540   3.205  0.00  0.00    +0.014 C 
BRANCH  22  23
ATOM     23  C   UNL     1      -7.051   3.061   3.174  0.00  0.00    +0.033 C 
BRANCH  23  24
ATOM     24  C   UNL     1      -7.918   3.496   4.327  0.00  0.00    -0.042 C 
ATOM     25  C   UNL     1      -7.503   3.933   5.537  0.00  0.00    -0.001 A 
ATOM     26  C   UNL     1      -6.170   4.126   6.121  0.00  0.00    +0.010 A 
ATOM     27  C   UNL     1      -6.069   4.588   7.388  0.00  0.00    +0.001 A 
ATOM     28  C   UNL     1      -7.203   4.886   8.156  0.00  0.00    +0.002 A 
ATOM     29  C   UNL     1      -8.461   4.735   7.689  0.00  0.00    +0.026 A 
ATOM     30  C   UNL     1      -8.684   4.256   6.369  0.00  0.00    +0.043 A 
ATOM     31  N   UNL     1      -9.787   4.027   5.699  0.00  0.00    -0.380 N 
ATOM     32  C   UNL     1      -9.430   3.539   4.362  0.00  0.00    +0.144 C 
ATOM     33  H   UNL     1     -10.689   4.162   6.029  0.00  0.00    +0.160 HD
ENDBRANCH  23  24
ENDBRANCH  22  23
ENDBRANCH  21  22
ENDBRANCH   3  21
TORSDOF 9
