REMARK  Name = ZINC50604555
REMARK  5 active torsions:
REMARK  status: ('A' for Active; 'I' for Inactive)
REMARK    1  A    between atoms: C_3  and  C_9
REMARK    2  A    between atoms: C_4  and  N_8
REMARK    3  A    between atoms: C_6  and  N_7
REMARK    4  A    between atoms: N_13  and  C_14
REMARK    5  A    between atoms: C_14  and  C_15
REMARK                            x       y       z     vdW  Elec       q    Type
REMARK                         _______ _______ _______ _____ _____    ______ ____
ROOT
ATOM      1  C   UNL     1       3.721   2.173  -0.043  0.00  0.00    +0.184 A 
ATOM      2  N   UNL     1       4.921   1.630   0.000  0.00  0.00    -0.108 NA
ATOM      3  N   UNL     1       5.827   2.534  -0.097  0.00  0.00    -0.023 NA
ATOM      4  N   UNL     1       5.292   3.701  -0.207  0.00  0.00    -0.044 NA
ATOM      5  N   UNL     1       3.899   3.516  -0.182  0.00  0.00    -0.225 N 
ENDROOT
BRANCH   1   8
ATOM      6  C   UNL     1       0.223   1.054  -0.817  0.00  0.00    +0.023 A 
ATOM      7  C   UNL     1       1.426   1.721  -0.894  0.00  0.00    +0.015 A 
ATOM      8  C   UNL     1       2.430   1.460   0.039  0.00  0.00    +0.041 A 
ATOM      9  C   UNL     1       2.209   0.518   1.055  0.00  0.00    +0.037 A 
ATOM     10  C   UNL     1       0.995  -0.147   1.125  0.00  0.00    +0.046 A 
ATOM     11  C   UNL     1       0.003   0.120   0.191  0.00  0.00    +0.026 A 
BRANCH  11  12
ATOM     12  N   UNL     1      -1.217  -0.550   0.263  0.00  0.00    -0.358 N 
ATOM     13  H   UNL     1      -1.911  -0.365  -0.389  0.00  0.00    +0.142 HD
ATOM     14  H   UNL     1      -1.372  -1.202   0.965  0.00  0.00    +0.142 HD
ENDBRANCH  11  12
BRANCH   9  15
ATOM     15  N   UNL     1       3.206   0.252   1.990  0.00  0.00    -0.357 N 
ATOM     16  H   UNL     1       4.015   0.787   2.002  0.00  0.00    +0.142 HD
ATOM     17  H   UNL     1       3.092  -0.468   2.630  0.00  0.00    +0.142 HD
ENDBRANCH   9  15
ENDBRANCH   1   8
BRANCH   5  18
ATOM     18  C   UNL     1       2.861   4.546  -0.283  0.00  0.00    +0.152 C 
BRANCH  18  19
ATOM     19  C   UNL     1       2.565   5.109   1.109  0.00  0.00    +0.033 C 
ATOM     20  C   UNL     1       3.807   5.846   1.637  0.00  0.00    +0.029 C 
ATOM     21  C   UNL     1       3.388   6.665   2.891  0.00  0.00    +0.166 C 
ATOM     22  S   UNL     1       1.753   7.312   2.340  0.00  0.00    -0.031 S 
ATOM     23  O   UNL     1       0.817   7.163   3.398  0.00  0.00    -0.174 OA
ATOM     24  O   UNL     1       1.938   8.588   1.744  0.00  0.00    -0.174 OA
ATOM     25  C   UNL     1       1.369   6.087   1.024  0.00  0.00    +0.171 C 
ENDBRANCH  18  19
ENDBRANCH   5  18
TORSDOF 5
