REMARK  Name = ZINC26112400
REMARK  9 active torsions:
REMARK  status: ('A' for Active; 'I' for Inactive)
REMARK    1  A    between atoms: C_1  and  C_2
REMARK    2  A    between atoms: C_2  and  C_4
REMARK    3  A    between atoms: C_2  and  S_14
REMARK    4  A    between atoms: N_9  and  C_10
REMARK    5  A    between atoms: C_10  and  C_11
REMARK    6  A    between atoms: C_10  and  C_12
REMARK    7  A    between atoms: C_10  and  C_13
REMARK    8  A    between atoms: S_14  and  C_15
REMARK    9  A    between atoms: N_24  and  C_25
REMARK                            x       y       z     vdW  Elec       q    Type
REMARK                         _______ _______ _______ _____ _____    ______ ____
ROOT
ATOM      1  C   UNL     1      -0.293   4.213  -1.281  0.00  0.00    +0.029 C 
ATOM      2  C   UNL     1      -1.023   3.906   0.028  0.00  0.00    +0.137 C 
ENDROOT
BRANCH   2   3
ATOM      3  C   UNL     1      -2.217   4.816   0.162  0.00  0.00    +0.233 C 
ATOM      4  O   UNL     1      -3.324   4.407  -0.114  0.00  0.00    -0.274 OA
ATOM      5  N   UNL     1      -2.054   6.084   0.590  0.00  0.00    -0.239 N 
ATOM      6  C   UNL     1      -3.121   6.897   0.710  0.00  0.00    +0.306 C 
ATOM      7  O   UNL     1      -4.231   6.488   0.433  0.00  0.00    -0.252 OA
ATOM      8  N   UNL     1      -2.958   8.165   1.137  0.00  0.00    -0.294 N 
ATOM      9  H   UNL     1      -1.049   6.454   0.840  0.00  0.00    +0.159 HD
ATOM     10  H   UNL     1      -1.953   8.536   1.388  0.00  0.00    +0.151 HD
BRANCH   8  11
ATOM     11  C   UNL     1      -4.119   9.049   1.268  0.00  0.00    +0.028 C 
ATOM     12  C   UNL     1      -5.109   8.447   2.267  0.00  0.00    +0.031 C 
ATOM     13  C   UNL     1      -3.661  10.421   1.767  0.00  0.00    +0.031 C 
ATOM     14  C   UNL     1      -4.798   9.203  -0.094  0.00  0.00    +0.031 C 
ENDBRANCH   8  11
ENDBRANCH   2   3
BRANCH   2  15
ATOM     15  S   UNL     1      -1.575   2.183   0.021  0.00  0.00    -0.075 S 
BRANCH  15  16
ATOM     16  C   UNL     1      -0.016   1.362   0.009  0.00  0.00    +0.173 A 
ATOM     17  N   UNL     1       1.070   2.086   0.003  0.00  0.00    -0.222 NA
ATOM     18  C   UNL     1       2.314   1.522  -0.012  0.00  0.00    +0.086 A 
ATOM     19  C   UNL     1       3.562   2.163  -0.021  0.00  0.00    +0.036 A 
ATOM     20  C   UNL     1       4.699   1.436  -0.036  0.00  0.00    +0.048 A 
ATOM     21  S   UNL     1       4.094  -0.243  -0.039  0.00  0.00    -0.090 S 
ATOM     22  C   UNL     1       2.357   0.116  -0.020  0.00  0.00    +0.102 A 
ATOM     23  C   UNL     1       1.193  -0.649  -0.013  0.00  0.00    +0.269 A 
ATOM     24  O   UNL     1       1.245  -1.868  -0.019  0.00  0.00    -0.266 OA
ATOM     25  N   UNL     1       0.002  -0.004   0.002  0.00  0.00    -0.290 N 
ATOM     26  C   UNL     1      -1.251  -0.762   0.009  0.00  0.00    +0.154 C 
ENDBRANCH  15  16
ENDBRANCH   2  15
TORSDOF 4
