REMARK  Name = ZINC06459137
REMARK  9 active torsions:
REMARK  status: ('A' for Active; 'I' for Inactive)
REMARK    1  A    between atoms: C_1  and  C_2
REMARK    2  A    between atoms: C_4  and  C_24
REMARK    3  A    between atoms: C_5  and  C_23
REMARK    4  A    between atoms: C_6  and  C_8
REMARK    5  A    between atoms: C_11  and  C_22
REMARK    6  A    between atoms: C_17  and  N_21
REMARK    7  A    between atoms: C_18  and  C_19
REMARK    8  A    between atoms: C_24  and  N_25
REMARK    9  A    between atoms: C_28  and  C_30
REMARK                            x       y       z     vdW  Elec       q    Type
REMARK                         _______ _______ _______ _____ _____    ______ ____
ROOT
ATOM      1  C   UNL     1      -2.622   1.240   0.408  0.00  0.00    +0.044 C 
ATOM      2  C   UNL     1      -1.271   1.876   0.204  0.00  0.00    -0.050 A 
ATOM      3  C   UNL     1      -0.128   1.099   0.247  0.00  0.00    +0.009 A 
ATOM      4  C   UNL     1       1.111   1.680   0.053  0.00  0.00    -0.023 A 
ATOM      5  C   UNL     1       1.207   3.040  -0.178  0.00  0.00    -0.041 A 
ATOM      6  C   UNL     1       0.065   3.817  -0.216  0.00  0.00    -0.031 A 
ATOM      7  C   UNL     1      -1.174   3.235  -0.024  0.00  0.00    +0.008 A 
ATOM      8  C   UNL     1       2.558   3.674  -0.389  0.00  0.00    +0.044 C 
ENDROOT
BRANCH   6   9
ATOM      9  C   UNL     1       0.171   5.299  -0.469  0.00  0.00    +0.102 C 
ATOM     10  C   UNL     1      -0.537   6.054   0.627  0.00  0.00    +0.049 A 
ATOM     11  C   UNL     1      -0.181   6.238   1.907  0.00  0.00    +0.041 A 
ATOM     12  N   UNL     1      -1.143   6.985   2.497  0.00  0.00    -0.278 N 
ATOM     13  H   UNL     1      -1.153   7.283   3.451  0.00  0.00    +0.189 HD
ATOM     14  N   UNL     1      -2.127   7.268   1.536  0.00  0.00    -0.135 NA
ATOM     15  C   UNL     1      -1.768   6.713   0.414  0.00  0.00    +0.245 A 
ATOM     16  O   UNL     1      -2.389   6.709  -0.796  0.00  0.00    -0.421 OA
ATOM     17  C   UNL     1      -1.673   6.290  -1.859  0.00  0.00    +0.201 C 
ATOM     18  C   UNL     1      -0.493   5.641  -1.779  0.00  0.00    +0.098 C 
ATOM     19  C   UNL     1       1.065   5.709   2.569  0.00  0.00    +0.065 C 
BRANCH  17  20
ATOM     20  N   UNL     1      -2.181   6.541  -3.109  0.00  0.00    -0.328 N 
ATOM     21  H   UNL     1      -1.693   6.254  -3.897  0.00  0.00    +0.145 HD
ATOM     22  H   UNL     1      -3.027   7.005  -3.205  0.00  0.00    +0.145 HD
ENDBRANCH  17  20
BRANCH  18  23
ATOM     23  C   UNL     1       0.160   5.259  -2.995  0.00  0.00    +0.101 C 
ATOM     24  N   UNL     1       0.677   4.956  -3.960  0.00  0.00    -0.191 NA
ENDBRANCH  18  23
ENDBRANCH   6   9
BRANCH   4  25
ATOM     25  C   UNL     1       2.356   0.833   0.095  0.00  0.00    +0.178 C 
BRANCH  25  26
ATOM     26  N   UNL     1       2.933   0.878   1.440  0.00  0.00    -0.267 N 
ATOM     27  C   UNL     1       3.212  -0.186   2.221  0.00  0.00    +0.109 A 
ATOM     28  C   UNL     1       3.735   0.278   3.380  0.00  0.00    +0.053 A 
ATOM     29  C   UNL     1       3.769   1.675   3.308  0.00  0.00    +0.165 A 
ATOM     30  N   UNL     1       3.288   2.036   2.146  0.00  0.00    -0.167 NA
BRANCH  29  31
ATOM     31  C   UNL     1       4.272   2.603   4.383  0.00  0.00    +0.436 C 
ATOM     32  F   UNL     1       4.043   3.929   3.999  0.00  0.00    -0.164 F 
ATOM     33  F   UNL     1       3.595   2.341   5.579  0.00  0.00    -0.164 F 
ATOM     34  F   UNL     1       5.644   2.401   4.569  0.00  0.00    -0.164 F 
ENDBRANCH  29  31
ENDBRANCH  25  26
ENDBRANCH   4  25
TORSDOF 6
