REMARK  Name = ZINC37066455
REMARK  8 active torsions:
REMARK  status: ('A' for Active; 'I' for Inactive)
REMARK    1  A    between atoms: C_1  and  C_2
REMARK    2  A    between atoms: C_2  and  N_3
REMARK    3  A    between atoms: N_3  and  C_15
REMARK    4  A    between atoms: C_7  and  N_14
REMARK    5  A    between atoms: C_8  and  O_10
REMARK    6  A    between atoms: O_10  and  C_11
REMARK    7  A    between atoms: C_11  and  C_12
REMARK    8  A    between atoms: C_11  and  C_13
REMARK                            x       y       z     vdW  Elec       q    Type
REMARK                         _______ _______ _______ _____ _____    ______ ____
ROOT
ATOM      1  N   UNL     1      -1.372  -0.511   0.012  0.00  0.00    -0.312 N 
ATOM      2  C   UNL     1      -2.037  -0.746  -1.189  0.00  0.00    +0.125 A 
ATOM      3  C   UNL     1      -1.355  -0.602  -2.390  0.00  0.00    +0.046 A 
ATOM      4  C   UNL     1      -2.023  -0.837  -3.581  0.00  0.00    +0.031 A 
ATOM      5  C   UNL     1      -3.361  -1.212  -3.529  0.00  0.00    +0.087 A 
ATOM      6  C   UNL     1      -3.982  -1.337  -2.288  0.00  0.00    +0.238 A 
ATOM      7  N   UNL     1      -3.311  -1.109  -1.172  0.00  0.00    -0.196 NA
ENDROOT
BRANCH   1   8
ATOM      8  C   UNL     1      -2.047  -0.771   1.286  0.00  0.00    +0.075 C 
ATOM      9  C   UNL     1      -3.304   0.096   1.384  0.00  0.00    +0.022 C 
ATOM     10  C   UNL     1      -4.009  -0.176   2.714  0.00  0.00    +0.002 C 
ATOM     11  C   UNL     1      -4.401  -1.653   2.791  0.00  0.00    +0.000 C 
ATOM     12  C   UNL     1      -3.145  -2.520   2.693  0.00  0.00    +0.002 C 
ATOM     13  C   UNL     1      -2.439  -2.248   1.363  0.00  0.00    +0.022 C 
ENDBRANCH   1   8
BRANCH   5  14
ATOM     14  N   UNL     1      -4.077  -1.460  -4.710  0.00  0.00    -0.354 N 
ATOM     15  H   UNL     1      -3.638  -1.370  -5.571  0.00  0.00    +0.142 HD
ATOM     16  H   UNL     1      -5.010  -1.721  -4.666  0.00  0.00    +0.142 HD
ENDBRANCH   5  14
BRANCH   1  18
ATOM     17  C   UNL     1      -0.019   1.526   0.010  0.00  0.00    +0.024 C 
ATOM     18  C   UNL     1       0.002  -0.004   0.002  0.00  0.00    +0.103 C 
ENDBRANCH   1  18
BRANCH   6  19
ATOM     19  O   UNL     1      -5.289  -1.702  -2.225  0.00  0.00    -0.472 OA
BRANCH  19  20
ATOM     20  C   UNL     1      -5.869  -1.813  -0.924  0.00  0.00    +0.169 C 
ATOM     21  C   UNL     1      -7.361  -1.486  -1.001  0.00  0.00    +0.051 C 
ATOM     22  C   UNL     1      -5.686  -3.240  -0.404  0.00  0.00    +0.051 C 
ENDBRANCH  19  20
ENDBRANCH   6  19
TORSDOF 5
