REMARK  Name = ZINC54617438
REMARK  14 active torsions:
REMARK  status: ('A' for Active; 'I' for Inactive)
REMARK    1  A    between atoms: C_1  and  C_2
REMARK    2  A    between atoms: C_2  and  C_3
REMARK    3  A    between atoms: C_3  and  C_4
REMARK    4  A    between atoms: C_4  and  S_5
REMARK    5  A    between atoms: S_5  and  C_6
REMARK    6  A    between atoms: C_11  and  C_29
REMARK    7  A    between atoms: C_13  and  C_17
REMARK    8  A    between atoms: C_14  and  C_16
REMARK    9  A    between atoms: N_19  and  C_20
REMARK   10  A    between atoms: C_25  and  O_26
REMARK   11  A    between atoms: O_26  and  C_27
REMARK   12  A    between atoms: C_27  and  C_28
REMARK   13  A    between atoms: C_32  and  O_38
REMARK   14  A    between atoms: C_33  and  N_35
REMARK                            x       y       z     vdW  Elec       q    Type
REMARK                         _______ _______ _______ _____ _____    ______ ____
ROOT
ATOM      1  C   UNL     1      -3.707  -4.564   0.444  0.00  0.00    +0.210 A 
ATOM      2  N   UNL     1      -2.540  -5.221   0.371  0.00  0.00    -0.187 NA
ATOM      3  C   UNL     1      -2.767  -6.504   0.285  0.00  0.00    +0.219 A 
ATOM      4  N   UNL     1      -4.108  -6.697   0.307  0.00  0.00    -0.220 N 
ATOM      5  N   UNL     1      -4.692  -5.436   0.413  0.00  0.00    -0.141 NA
ATOM      6  C   UNL     1      -4.736  -8.014   0.240  0.00  0.00    +0.177 C 
ATOM      7  C   UNL     1      -3.707  -9.041  -0.151  0.00  0.00    +0.060 C 
ATOM      8  C   UNL     1      -2.389  -8.791  -0.158  0.00  0.00    +0.018 C 
ATOM      9  N   UNL     1      -1.876  -7.563   0.183  0.00  0.00    -0.287 N 
ATOM     10  C   UNL     1      -1.441  -9.893  -0.554  0.00  0.00    +0.061 C 
ATOM     11  H   UNL     1      -0.927  -7.442   0.346  0.00  0.00    +0.155 HD
ENDROOT
BRANCH   6  12
ATOM     12  C   UNL     1      -5.310  -8.367   1.588  0.00  0.00    -0.016 A 
ATOM     13  C   UNL     1      -4.488  -8.405   2.700  0.00  0.00    +0.010 A 
ATOM     14  C   UNL     1      -5.012  -8.728   3.937  0.00  0.00    +0.048 A 
ATOM     15  C   UNL     1      -6.364  -9.013   4.063  0.00  0.00    +0.147 A 
ATOM     16  C   UNL     1      -7.186  -8.974   2.947  0.00  0.00    +0.168 A 
ATOM     17  C   UNL     1      -6.658  -8.646   1.713  0.00  0.00    +0.042 A 
BRANCH  16  18
ATOM     18  N   UNL     1      -8.629  -9.278   3.078  0.00  0.00    +0.060 N 
ATOM     19  O   UNL     1      -9.364  -9.143   2.128  0.00  0.00    -0.126 OA
ATOM     20  O   UNL     1      -9.072  -9.662   4.135  0.00  0.00    -0.126 OA
ENDBRANCH  16  18
BRANCH  15  21
ATOM     21  O   UNL     1      -6.882  -9.332   5.279  0.00  0.00    -0.504 OA
ATOM     22  H   UNL     1      -7.197  -8.569   5.783  0.00  0.00    +0.292 HD
ENDBRANCH  15  21
ENDBRANCH   6  12
BRANCH   7  23
ATOM     23  C   UNL     1      -4.150 -10.330  -0.528  0.00  0.00    +0.248 C 
ATOM     24  O   UNL     1      -4.611 -10.514  -1.640  0.00  0.00    -0.270 OA
ATOM     25  N   UNL     1      -4.062 -11.355   0.343  0.00  0.00    -0.279 N 
ATOM     26  H   UNL     1      -3.619 -11.229   1.196  0.00  0.00    +0.155 HD
BRANCH  25  27
ATOM     27  C   UNL     1      -4.610 -12.602   0.015  0.00  0.00    +0.076 A 
ATOM     28  C   UNL     1      -4.617 -13.034  -1.303  0.00  0.00    +0.027 A 
ATOM     29  C   UNL     1      -5.159 -14.265  -1.623  0.00  0.00    +0.002 A 
ATOM     30  C   UNL     1      -5.694 -15.067  -0.633  0.00  0.00    +0.004 A 
ATOM     31  C   UNL     1      -5.692 -14.643   0.683  0.00  0.00    +0.047 A 
ATOM     32  C   UNL     1      -5.145 -13.413   1.014  0.00  0.00    +0.142 A 
BRANCH  32  33
ATOM     33  O   UNL     1      -5.137 -12.997   2.308  0.00  0.00    -0.490 OA
BRANCH  33  34
ATOM     34  C   UNL     1      -5.658 -13.901   3.284  0.00  0.00    +0.226 C 
ATOM     35  C   UNL     1      -5.529 -13.280   4.676  0.00  0.00    +0.048 C 
ENDBRANCH  33  34
ENDBRANCH  32  33
ENDBRANCH  25  27
ENDBRANCH   7  23
BRANCH   1  36
ATOM     36  S   UNL     1      -3.892  -2.816   0.570  0.00  0.00    -0.084 S 
BRANCH  36  37
ATOM     37  C   UNL     1      -2.188  -2.194   0.563  0.00  0.00    +0.077 C 
BRANCH  37  38
ATOM     38  C   UNL     1      -2.202  -0.668   0.669  0.00  0.00    +0.011 C 
BRANCH  38  40
ATOM     39  C   UNL     1      -0.779   1.384   0.769  0.00  0.00    +0.004 C 
ATOM     40  C   UNL     1      -0.765  -0.143   0.663  0.00  0.00    -0.003 C 
ENDBRANCH  38  40
ENDBRANCH  37  38
ENDBRANCH  36  37
ENDBRANCH   1  36
TORSDOF 11
