REMARK  Name = ZINC09633651
REMARK  6 active torsions:
REMARK  status: ('A' for Active; 'I' for Inactive)
REMARK    1  A    between atoms: C_2  and  C_3
REMARK    2  A    between atoms: C_3  and  O_4
REMARK    3  A    between atoms: O_4  and  C_5
REMARK    4  A    between atoms: C_8  and  C_12
REMARK    5  A    between atoms: N_22  and  C_23
REMARK    6  A    between atoms: C_23  and  C_24
REMARK                            x       y       z     vdW  Elec       q    Type
REMARK                         _______ _______ _______ _____ _____    ______ ____
ROOT
ATOM      1  C   UNL     1       5.880  -4.979   1.390  0.00  0.00    +0.141 A 
ATOM      2  N   UNL     1       6.024  -6.053   2.233  0.00  0.00    -0.324 N 
ATOM      3  C   UNL     1       7.276  -6.553   2.047  0.00  0.00    +0.148 A 
ATOM      4  C   UNL     1       7.883  -5.758   1.074  0.00  0.00    +0.173 A 
ATOM      5  N   UNL     1       6.984  -4.815   0.703  0.00  0.00    -0.221 NA
ATOM      6  C   UNL     1       9.208  -6.061   0.684  0.00  0.00    +0.304 A 
ATOM      7  O   UNL     1       9.830  -5.316  -0.255  0.00  0.00    -0.263 OA
ATOM      8  N   UNL     1       9.832  -7.083   1.249  0.00  0.00    -0.152 NA
ATOM      9  C   UNL     1       9.242  -7.834   2.177  0.00  0.00    +0.354 A 
ATOM     10  O   UNL     1       9.859  -8.764   2.669  0.00  0.00    -0.244 OA
ATOM     11  N   UNL     1       7.982  -7.593   2.588  0.00  0.00    -0.272 N 
ATOM     12  H   UNL     1       5.357  -6.392   2.850  0.00  0.00    +0.169 HD
ENDROOT
BRANCH   1  16
ATOM     13  C   UNL     1       2.392  -2.577   1.044  0.00  0.00    +0.135 A 
ATOM     14  C   UNL     1       3.504  -2.301   0.259  0.00  0.00    +0.047 A 
ATOM     15  C   UNL     1       4.637  -3.078   0.369  0.00  0.00    +0.015 A 
ATOM     16  C   UNL     1       4.667  -4.144   1.270  0.00  0.00    +0.019 A 
ATOM     17  C   UNL     1       3.547  -4.418   2.058  0.00  0.00    +0.030 A 
ATOM     18  C   UNL     1       2.419  -3.633   1.947  0.00  0.00    +0.060 A 
ATOM     19 BR   UNL     1       0.904  -3.998   3.018  0.00  0.00    -0.046 Br
BRANCH  13  20
ATOM     20  O   UNL     1       1.277  -1.809   0.933  0.00  0.00    -0.487 OA
BRANCH  20  21
ATOM     21  C   UNL     1       1.317  -0.740  -0.015  0.00  0.00    +0.256 C 
BRANCH  21  23
ATOM     22  C   UNL     1      -0.016   1.306   0.009  0.00  0.00    +0.007 C 
ATOM     23  C   UNL     1       0.002  -0.004   0.002  0.00  0.00    +0.006 C 
ENDBRANCH  21  23
ENDBRANCH  20  21
ENDBRANCH  13  20
ENDBRANCH   1  16
BRANCH  11  24
ATOM     24  C   UNL     1       7.369  -8.442   3.612  0.00  0.00    +0.163 C 
BRANCH  24  25
ATOM     25  C   UNL     1       6.662  -9.597   2.950  0.00  0.00    -0.028 A 
ATOM     26  C   UNL     1       5.336  -9.475   2.579  0.00  0.00    +0.005 A 
ATOM     27  C   UNL     1       4.688 -10.534   1.972  0.00  0.00    +0.000 A 
ATOM     28  C   UNL     1       5.367 -11.716   1.735  0.00  0.00    +0.000 A 
ATOM     29  C   UNL     1       6.693 -11.837   2.105  0.00  0.00    +0.000 A 
ATOM     30  C   UNL     1       7.342 -10.776   2.708  0.00  0.00    +0.005 A 
ENDBRANCH  24  25
ENDBRANCH  11  24
TORSDOF 6
