REMARK  Name = ZINC44783718
REMARK  5 active torsions:
REMARK  status: ('A' for Active; 'I' for Inactive)
REMARK    1  A    between atoms: C_1  and  C_2
REMARK    2  A    between atoms: C_5  and  N_9
REMARK    3  A    between atoms: C_10  and  C_12
REMARK    4  A    between atoms: C_12  and  C_18
REMARK    5  A    between atoms: N_19  and  O_20
REMARK                            x       y       z     vdW  Elec       q    Type
REMARK                         _______ _______ _______ _____ _____    ______ ____
ROOT
ATOM      1  C   UNL     1       0.202  -6.239   1.176  0.00  0.00    +0.105 C 
ATOM      2  C   UNL     1       1.515  -6.181   0.392  0.00  0.00    +0.024 C 
ATOM      3  C   UNL     1       2.575  -5.460   1.226  0.00  0.00    +0.001 C 
ATOM      4  C   UNL     1       2.797  -6.218   2.536  0.00  0.00    +0.000 C 
ATOM      5  C   UNL     1       1.484  -6.275   3.320  0.00  0.00    +0.001 C 
ATOM      6  C   UNL     1       0.423  -6.997   2.486  0.00  0.00    +0.024 C 
ENDROOT
BRANCH   1   7
ATOM      7  C   UNL     1      -0.843  -6.949   0.355  0.00  0.00    +0.147 C 
ATOM      8  N   UNL     1      -1.497  -7.942   0.860  0.00  0.00    -0.076 NA
ATOM      9  N   UNL     1      -1.101  -6.540  -0.935  0.00  0.00    -0.343 N 
ATOM     10  H   UNL     1      -0.499  -5.922  -1.377  0.00  0.00    +0.144 HD
ATOM     11  H   UNL     1      -1.885  -6.871  -1.401  0.00  0.00    +0.144 HD
BRANCH   8  12
ATOM     12  O   UNL     1      -2.478  -8.610   0.089  0.00  0.00    -0.408 OA
ATOM     13  H   UNL     1      -2.914  -9.339   0.552  0.00  0.00    +0.328 HD
ENDBRANCH   8  12
ENDBRANCH   1   7
BRANCH   1  15
ATOM     14  N   UNL     1      -0.199  -3.886   0.526  0.00  0.00    -0.285 N 
ATOM     15  C   UNL     1      -0.264  -4.838   1.478  0.00  0.00    +0.231 C 
ATOM     16  O   UNL     1      -0.697  -4.567   2.578  0.00  0.00    -0.274 OA
ATOM     17  H   UNL     1       0.073  -4.119  -0.375  0.00  0.00    +0.155 HD
BRANCH  14  22
ATOM     18  C   UNL     1      -1.521   1.486   1.789  0.00  0.00    +0.045 C 
ATOM     19  C   UNL     1      -1.170   0.059   1.454  0.00  0.00    -0.032 A 
ATOM     20  C   UNL     1      -0.179  -0.209   0.527  0.00  0.00    +0.006 A 
ATOM     21  C   UNL     1       0.145  -1.515   0.217  0.00  0.00    +0.023 A 
ATOM     22  C   UNL     1      -0.525  -2.561   0.838  0.00  0.00    +0.035 A 
ATOM     23  C   UNL     1      -1.520  -2.291   1.769  0.00  0.00    +0.043 A 
ATOM     24  C   UNL     1      -1.836  -0.981   2.078  0.00  0.00    +0.046 A 
ATOM     25 CL   UNL     1      -3.075  -0.640   3.246  0.00  0.00    -0.083 Cl
ENDBRANCH  14  22
ENDBRANCH   1  15
TORSDOF 4
