REMARK  Name = ZINC26134670
REMARK  11 active torsions:
REMARK  status: ('A' for Active; 'I' for Inactive)
REMARK    1  A    between atoms: C_1  and  O_2
REMARK    2  A    between atoms: O_2  and  C_3
REMARK    3  A    between atoms: C_3  and  C_4
REMARK    4  A    between atoms: C_4  and  N_5
REMARK    5  A    between atoms: C_6  and  N_32
REMARK    6  A    between atoms: C_7  and  C_14
REMARK    7  A    between atoms: C_14  and  C_16
REMARK    8  A    between atoms: C_16  and  N_17
REMARK    9  A    between atoms: C_21  and  C_23
REMARK   10  A    between atoms: N_25  and  C_26
REMARK   11  A    between atoms: C_26  and  C_27
REMARK                            x       y       z     vdW  Elec       q    Type
REMARK                         _______ _______ _______ _____ _____    ______ ____
ROOT
ATOM      1  C   UNL     1       0.875   1.974  -0.605  0.00  0.00    +0.155 C 
ATOM      2  O   UNL     1       1.770   1.152  -0.614  0.00  0.00    -0.294 OA
ENDROOT
BRANCH   1   5
ATOM      3  N   UNL     1       2.583   4.966  -1.914  0.00  0.00    -0.279 N 
ATOM      4  C   UNL     1       2.386   3.673  -1.523  0.00  0.00    +0.116 A 
ATOM      5  C   UNL     1       1.129   3.299  -1.017  0.00  0.00    +0.118 A 
ATOM      6  C   UNL     1       0.091   4.334  -0.925  0.00  0.00    +0.266 A 
ATOM      7  O   UNL     1      -1.014   4.068  -0.490  0.00  0.00    -0.267 OA
ATOM      8  N   UNL     1       0.388   5.585  -1.333  0.00  0.00    -0.274 N 
ATOM      9  H   UNL     1      -0.372   6.378  -1.274  0.00  0.00    +0.173 HD
ATOM     10  C   UNL     1       1.606   5.882  -1.814  0.00  0.00    +0.331 A 
ATOM     11  O   UNL     1       1.833   7.021  -2.171  0.00  0.00    -0.246 OA
BRANCH   4  12
ATOM     12  N   UNL     1       3.389   2.759  -1.627  0.00  0.00    -0.344 N 
ATOM     13  H   UNL     1       3.221   1.719  -1.309  0.00  0.00    +0.144 HD
ATOM     14  H   UNL     1       4.368   3.060  -2.028  0.00  0.00    +0.144 HD
ENDBRANCH   4  12
BRANCH   3  15
ATOM     15  C   UNL     1       3.888   5.364  -2.449  0.00  0.00    +0.156 C 
BRANCH  15  16
ATOM     16  C   UNL     1       4.787   5.832  -1.302  0.00  0.00    +0.181 C 
BRANCH  16  18
ATOM     17  C   UNL     1       5.892   5.064   0.681  0.00  0.00    +0.194 C 
ATOM     18  O   UNL     1       5.055   4.733  -0.429  0.00  0.00    -0.381 OA
ENDBRANCH  16  18
ENDBRANCH  15  16
ENDBRANCH   3  15
ENDBRANCH   1   5
BRANCH   1  19
ATOM     19  C   UNL     1      -0.507   1.577  -0.154  0.00  0.00    +0.003 C 
BRANCH  19  20
ATOM     20  N   UNL     1      -0.512   0.156   0.221  0.00  0.00    +0.392 N 
ATOM     21  C   UNL     1      -0.491  -0.708  -0.979  0.00  0.00    -0.077 C 
ATOM     22  C   UNL     1      -1.325  -1.952  -0.585  0.00  0.00    -0.020 C 
ATOM     23  C   UNL     1      -2.442  -1.317   0.285  0.00  0.00    -0.008 C 
ATOM     24  C   UNL     1      -1.706  -0.176   1.018  0.00  0.00    +0.020 C 
ATOM     25  H   UNL     1       0.394  -0.017   0.821  0.00  0.00    -0.080 HD
BRANCH  24  26
ATOM     26  C   UNL     1      -2.605   1.029   1.123  0.00  0.00    +0.200 C 
ATOM     27  O   UNL     1      -2.913   1.644   0.125  0.00  0.00    -0.278 OA
ATOM     28  N   UNL     1      -3.065   1.423   2.327  0.00  0.00    -0.310 N 
ATOM     29  H   UNL     1      -2.786   0.865   3.233  0.00  0.00    +0.149 HD
BRANCH  28  30
ATOM     30  C   UNL     1      -3.939   2.595   2.429  0.00  0.00    +0.178 C 
BRANCH  30  31
ATOM     31  C   UNL     1      -4.310   2.820   3.872  0.00  0.00    +0.122 A 
ATOM     32  C   UNL     1      -3.626   3.575   4.752  0.00  0.00    +0.046 A 
ATOM     33  C   UNL     1      -4.326   3.509   5.979  0.00  0.00    +0.041 A 
ATOM     34  C   UNL     1      -5.391   2.712   5.777  0.00  0.00    +0.195 A 
ATOM     35  O   UNL     1      -5.376   2.298   4.500  0.00  0.00    -0.466 OA
ENDBRANCH  30  31
ENDBRANCH  28  30
ENDBRANCH  24  26
ENDBRANCH  19  20
ENDBRANCH   1  19
TORSDOF 10
