REMARK  Name = ZINC49037428
REMARK  8 active torsions:
REMARK  status: ('A' for Active; 'I' for Inactive)
REMARK    1  A    between atoms: C_3  and  C_8
REMARK    2  A    between atoms: C_10  and  C_13
REMARK    3  A    between atoms: C_13  and  C_14
REMARK    4  A    between atoms: C_14  and  C_16
REMARK    5  A    between atoms: C_14  and  N_37
REMARK    6  A    between atoms: N_18  and  C_19
REMARK    7  A    between atoms: C_20  and  C_34
REMARK    8  A    between atoms: C_22  and  C_26
REMARK                            x       y       z     vdW  Elec       q    Type
REMARK                         _______ _______ _______ _____ _____    ______ ____
ROOT
ATOM      1  C   UNL     1       9.252   1.646  -1.371  0.00  0.00    +0.203 C 
ATOM      2  O   UNL     1      10.107   2.506  -1.356  0.00  0.00    -0.277 OA
ATOM      3  N   UNL     1       9.605   0.346  -1.399  0.00  0.00    -0.290 N 
ATOM      4  H   UNL     1       8.925  -0.343  -1.337  0.00  0.00    +0.154 HD
ENDROOT
BRANCH   3   5
ATOM      5  C   UNL     1      10.926  -0.004  -1.516  0.00  0.00    +0.021 C 
ATOM      6  C   UNL     1      11.473  -0.742  -0.545  0.00  0.00    +0.058 C 
ATOM      7  C   UNL     1      12.902  -1.202  -0.559  0.00  0.00    +0.052 C 
ATOM      8  C   UNL     1      13.711  -0.376  -1.562  0.00  0.00    +0.024 C 
ATOM      9  C   UNL     1      12.960  -0.358  -2.898  0.00  0.00    +0.014 C 
ATOM     10  C   UNL     1      11.678   0.458  -2.730  0.00  0.00    +0.052 C 
BRANCH   8  11
ATOM     11  C   UNL     1      15.070  -0.999  -1.749  0.00  0.00    -0.039 A 
ATOM     12  C   UNL     1      15.178  -2.291  -2.227  0.00  0.00    +0.042 A 
ATOM     13  C   UNL     1      16.427  -2.864  -2.399  0.00  0.00    +0.126 A 
ATOM     14  C   UNL     1      17.568  -2.141  -2.093  0.00  0.00    +0.076 A 
ATOM     15  C   UNL     1      17.458  -0.847  -1.615  0.00  0.00    +0.126 A 
ATOM     16  C   UNL     1      16.209  -0.274  -1.448  0.00  0.00    +0.042 A 
ATOM     17  F   UNL     1      18.570  -0.141  -1.316  0.00  0.00    -0.205 F 
ATOM     18  F   UNL     1      16.533  -4.127  -2.865  0.00  0.00    -0.205 F 
ENDBRANCH   8  11
BRANCH   6  19
ATOM     19  C   UNL     1      10.665  -1.107   0.552  0.00  0.00    +0.384 C 
ATOM     20  O   UNL     1       9.474  -0.817   0.559  0.00  0.00    -0.241 OA
ATOM     21  O   UNL     1      11.153  -1.716   1.497  0.00  0.00    -0.241 OA
ENDBRANCH   6  19
ENDBRANCH   3   5
BRANCH   1  22
ATOM     22  C   UNL     1       7.795   2.031  -1.359  0.00  0.00    +0.022 C 
BRANCH  22  23
ATOM     23  N   UNL     1       7.654   3.424  -1.804  0.00  0.00    +0.386 N 
ATOM     24  H   UNL     1       8.018   3.517  -2.740  0.00  0.00    -0.089 HD
ATOM     25  H   UNL     1       6.678   3.682  -1.796  0.00  0.00    -0.089 HD
ATOM     26  H   UNL     1       8.167   4.030  -1.181  0.00  0.00    -0.089 HD
ENDBRANCH  22  23
BRANCH  22  27
ATOM     27  C   UNL     1       7.242   1.890   0.060  0.00  0.00    +0.092 C 
BRANCH  27  30
ATOM     28  C   UNL     1       3.616   1.847  -0.077  0.00  0.00    +0.220 A 
ATOM     29  N   UNL     1       4.827   1.265  -0.128  0.00  0.00    -0.190 NA
ATOM     30  C   UNL     1       5.759   2.157   0.050  0.00  0.00    +0.227 A 
ATOM     31  O   UNL     1       5.177   3.350   0.223  0.00  0.00    -0.338 OA
ATOM     32  N   UNL     1       3.777   3.131   0.132  0.00  0.00    -0.054 NA
BRANCH  28  35
ATOM     33  C   UNL     1      -0.078   1.224  -0.317  0.00  0.00    +0.042 A 
ATOM     34  C   UNL     1       1.130   1.883  -0.166  0.00  0.00    +0.034 A 
ATOM     35  C   UNL     1       2.313   1.153  -0.236  0.00  0.00    +0.111 A 
ATOM     36  N   UNL     1       2.288  -0.156  -0.444  0.00  0.00    -0.249 NA
ATOM     37  C   UNL     1       1.155  -0.811  -0.591  0.00  0.00    +0.149 A 
ATOM     38  C   UNL     1      -0.061  -0.148  -0.533  0.00  0.00    +0.141 A 
ATOM     39  F   UNL     1      -1.218  -0.830  -0.685  0.00  0.00    -0.204 F 
ENDBRANCH  28  35
ENDBRANCH  27  30
ENDBRANCH  22  27
ENDBRANCH   1  22
TORSDOF 8
