REMARK  Name = ZINC39016138
REMARK  8 active torsions:
REMARK  status: ('A' for Active; 'I' for Inactive)
REMARK    1  A    between atoms: C_1  and  C_2
REMARK    2  A    between atoms: C_5  and  N_9
REMARK    3  A    between atoms: C_7  and  C_8
REMARK    4  A    between atoms: C_10  and  C_12
REMARK    5  A    between atoms: C_12  and  S_13
REMARK    6  A    between atoms: S_13  and  C_14
REMARK    7  A    between atoms: C_17  and  C_21
REMARK    8  A    between atoms: N_19  and  N_20
REMARK                            x       y       z     vdW  Elec       q    Type
REMARK                         _______ _______ _______ _____ _____    ______ ____
ROOT
ATOM      1  C   UNL     1      -0.356  -8.692  -2.728  0.00  0.00    +0.189 C 
ATOM      2  N   UNL     1      -0.344  -9.311  -1.596  0.00  0.00    -0.161 NA
ATOM      3  N   UNL     1      -0.438 -10.698  -1.770  0.00  0.00    -0.243 N 
ATOM      4  C   UNL     1      -0.516 -10.925  -3.223  0.00  0.00    +0.222 C 
ATOM      5  N   UNL     1      -0.463  -9.570  -3.796  0.00  0.00    -0.223 N 
ATOM      6  H   UNL     1      -0.449 -11.373  -1.073  0.00  0.00    +0.170 HD
ENDROOT
BRANCH   4   7
ATOM      7  C   UNL     1       0.670 -11.765  -3.700  0.00  0.00    +0.197 C 
ATOM      8  C   UNL     1       0.631 -13.148  -3.082  0.00  0.00    -0.017 C 
ATOM      9  C   UNL     1       0.518 -13.979  -4.117  0.00  0.00    +0.065 C 
ATOM     10  C   UNL     1       0.467 -15.413  -3.622  0.00  0.00    +0.057 C 
ATOM     11  C   UNL     1       0.997 -15.358  -2.172  0.00  0.00    +0.011 C 
ATOM     12  C   UNL     1       0.674 -13.899  -1.776  0.00  0.00    +0.035 C 
ATOM     13  N   UNL     1       0.485 -13.270  -5.278  0.00  0.00    -0.158 NA
ATOM     14  N   UNL     1       0.566 -12.045  -5.142  0.00  0.00    -0.176 NA
ENDBRANCH   4   7
BRANCH   5  15
ATOM     15  N   UNL     1      -0.508  -9.241  -5.122  0.00  0.00    -0.250 NA
ATOM     16  H   UNL     1      -0.452  -8.242  -5.249  0.00  0.00    +0.141 HD
ATOM     17  H   UNL     1       0.221  -9.713  -5.636  0.00  0.00    +0.141 HD
ENDBRANCH   5  15
BRANCH   1  18
ATOM     18  S   UNL     1      -0.255  -6.941  -2.895  0.00  0.00    -0.078 S 
BRANCH  18  19
ATOM     19  C   UNL     1      -0.134  -6.343  -1.187  0.00  0.00    +0.173 C 
BRANCH  19  21
ATOM     20  N   UNL     1       0.059  -4.170  -0.021  0.00  0.00    -0.285 N 
ATOM     21  C   UNL     1      -0.040  -4.839  -1.187  0.00  0.00    +0.227 C 
ATOM     22  O   UNL     1      -0.054  -4.230  -2.236  0.00  0.00    -0.275 OA
ATOM     23  H   UNL     1       0.147  -4.658   0.812  0.00  0.00    +0.155 HD
BRANCH  20  28
ATOM     24  C   UNL     1      -0.041   1.502   0.014  0.00  0.00    +0.044 C 
ATOM     25  C   UNL     1      -0.015  -0.004   0.004  0.00  0.00    -0.047 A 
ATOM     26  C   UNL     1      -0.752  -0.702  -0.935  0.00  0.00    +0.005 A 
ATOM     27  C   UNL     1      -0.730  -2.082  -0.946  0.00  0.00    +0.023 A 
ATOM     28  C   UNL     1       0.034  -2.771  -0.013  0.00  0.00    +0.034 A 
ATOM     29  C   UNL     1       0.773  -2.068   0.929  0.00  0.00    +0.027 A 
ATOM     30  C   UNL     1       0.751  -0.686   0.932  0.00  0.00    -0.046 A 
ATOM     31  C   UNL     1       1.557   0.078   1.950  0.00  0.00    +0.044 C 
ENDBRANCH  20  28
ENDBRANCH  19  21
ENDBRANCH  18  19
ENDBRANCH   1  18
TORSDOF 6
