REMARK  Name = ZINC01972961
REMARK  8 active torsions:
REMARK  status: ('A' for Active; 'I' for Inactive)
REMARK    1  A    between atoms: C_1  and  C_2
REMARK    2  A    between atoms: C_2  and  C_4
REMARK    3  A    between atoms: C_2  and  S_10
REMARK    4  A    between atoms: C_4  and  O_6
REMARK    5  A    between atoms: O_6  and  C_7
REMARK    6  A    between atoms: C_7  and  C_8
REMARK    7  A    between atoms: C_7  and  C_9
REMARK    8  A    between atoms: S_10  and  C_11
REMARK                            x       y       z     vdW  Elec       q    Type
REMARK                         _______ _______ _______ _____ _____    ______ ____
ROOT
ATOM      1  C   UNL     1      -0.136  -0.087   2.816  0.00  0.00    +0.171 A 
ATOM      2  N   UNL     1       0.242  -0.377   4.095  0.00  0.00    -0.301 N 
ATOM      3  H   UNL     1       1.066  -0.864   4.249  0.00  0.00    +0.171 HD
ATOM      4  C   UNL     1      -0.507   0.003   5.147  0.00  0.00    +0.261 A 
ATOM      5  O   UNL     1      -0.156  -0.264   6.283  0.00  0.00    -0.267 OA
ATOM      6  C   UNL     1      -1.722   0.722   4.912  0.00  0.00    +0.075 A 
ATOM      7  C   UNL     1      -2.682   1.226   5.896  0.00  0.00    -0.023 A 
ATOM      8  C   UNL     1      -3.760   1.880   5.419  0.00  0.00    -0.004 A 
ATOM      9  S   UNL     1      -3.566   1.866   3.657  0.00  0.00    -0.073 S 
ATOM     10  C   UNL     1      -2.032   0.977   3.566  0.00  0.00    +0.117 A 
ATOM     11  N   UNL     1      -1.246   0.580   2.572  0.00  0.00    -0.216 NA
ATOM     12  C   UNL     1      -4.879   2.486   6.211  0.00  0.00    +0.043 C 
ATOM     13  C   UNL     1      -4.814   1.932   7.642  0.00  0.00    +0.005 C 
ATOM     14  C   UNL     1      -3.370   2.034   8.143  0.00  0.00    +0.005 C 
ATOM     15  C   UNL     1      -2.490   1.030   7.397  0.00  0.00    +0.037 C 
ENDROOT
BRANCH   1  16
ATOM     16  S   UNL     1       0.879  -0.605   1.472  0.00  0.00    -0.073 S 
BRANCH  16  18
ATOM     17  C   UNL     1      -0.019   1.526   0.010  0.00  0.00    +0.031 C 
ATOM     18  C   UNL     1       0.002  -0.004   0.002  0.00  0.00    +0.160 C 
BRANCH  18  19
ATOM     19  C   UNL     1       0.707  -0.490  -1.238  0.00  0.00    +0.321 C 
ATOM     20  O   UNL     1       1.860  -0.848  -1.176  0.00  0.00    -0.250 OA
BRANCH  19  21
ATOM     21  O   UNL     1       0.055  -0.526  -2.411  0.00  0.00    -0.461 OA
BRANCH  21  22
ATOM     22  C   UNL     1       0.785  -0.998  -3.545  0.00  0.00    +0.170 C 
ATOM     23  C   UNL     1       0.613  -2.513  -3.668  0.00  0.00    +0.052 C 
ATOM     24  C   UNL     1       0.256  -0.320  -4.810  0.00  0.00    +0.052 C 
ENDBRANCH  21  22
ENDBRANCH  19  21
ENDBRANCH  18  19
ENDBRANCH  16  18
ENDBRANCH   1  16
TORSDOF 5
