REMARK  Name = ZINC59829706
REMARK  11 active torsions:
REMARK  status: ('A' for Active; 'I' for Inactive)
REMARK    1  A    between atoms: C_1  and  C_2
REMARK    2  A    between atoms: C_5  and  C_8
REMARK    3  A    between atoms: C_8  and  N_9
REMARK    4  A    between atoms: C_10  and  C_12
REMARK    5  A    between atoms: C_12  and  S_13
REMARK    6  A    between atoms: S_13  and  C_14
REMARK    7  A    between atoms: N_18  and  N_19
REMARK    8  A    between atoms: N_20  and  N_21
REMARK    9  A    between atoms: C_22  and  C_23
REMARK   10  A    between atoms: C_22  and  C_24
REMARK   11  A    between atoms: C_29  and  O_30
REMARK                            x       y       z     vdW  Elec       q    Type
REMARK                         _______ _______ _______ _____ _____    ______ ____
ROOT
ATOM      1  C   UNL     1       4.876  -8.769  -0.073  0.00  0.00    +0.210 A 
ATOM      2  N   UNL     1       5.870  -7.913  -0.068  0.00  0.00    -0.119 NA
ATOM      3  N   UNL     1       7.067  -8.640  -0.080  0.00  0.00    -0.109 NA
ATOM      4  C   UNL     1       6.766  -9.916  -0.092  0.00  0.00    +0.254 A 
ATOM      5  N   UNL     1       5.404 -10.029  -0.082  0.00  0.00    -0.211 N 
ATOM      6  N   UNL     1       7.671 -10.967  -0.107  0.00  0.00    -0.204 N 
ATOM      7  H   UNL     1       7.351 -11.883  -0.116  0.00  0.00    +0.178 HD
ENDROOT
BRANCH   5   8
ATOM      8  N   UNL     1       4.695 -11.197  -0.085  0.00  0.00    -0.294 N 
ATOM      9  H   UNL     1       4.502 -11.501  -1.028  0.00  0.00    +0.163 HD
ATOM     10  H   UNL     1       5.178 -11.914   0.435  0.00  0.00    +0.163 HD
ENDBRANCH   5   8
BRANCH   6  11
ATOM     11  N   UNL     1       9.048 -10.707  -0.111  0.00  0.00    -0.184 NA
ATOM     12  C   UNL     1       9.896 -11.691  -0.125  0.00  0.00    +0.067 C 
ATOM     13  C   UNL     1       9.398 -13.113  -0.138  0.00  0.00    +0.068 C 
BRANCH  12  14
ATOM     14  C   UNL     1      11.343 -11.416  -0.128  0.00  0.00    +0.039 A 
ATOM     15  C   UNL     1      12.258 -12.471  -0.149  0.00  0.00    +0.013 A 
ATOM     16  C   UNL     1      13.612 -12.207  -0.152  0.00  0.00    +0.001 A 
ATOM     17  C   UNL     1      14.068 -10.901  -0.134  0.00  0.00    +0.004 A 
ATOM     18  C   UNL     1      13.173  -9.848  -0.113  0.00  0.00    +0.046 A 
ATOM     19  C   UNL     1      11.810 -10.095  -0.116  0.00  0.00    +0.126 A 
BRANCH  19  20
ATOM     20  O   UNL     1      10.930  -9.060  -0.101  0.00  0.00    -0.506 OA
ATOM     21  H   UNL     1      10.678  -8.770   0.787  0.00  0.00    +0.292 HD
ENDBRANCH  19  20
ENDBRANCH  12  14
ENDBRANCH   6  11
BRANCH   1  22
ATOM     22  S   UNL     1       3.161  -8.365  -0.061  0.00  0.00    -0.075 S 
BRANCH  22  23
ATOM     23  C   UNL     1       3.137  -6.551  -0.051  0.00  0.00    +0.173 C 
BRANCH  23  25
ATOM     24  N   UNL     1       1.447  -4.746  -0.032  0.00  0.00    -0.311 N 
ATOM     25  C   UNL     1       1.710  -6.067  -0.040  0.00  0.00    +0.224 C 
ATOM     26  O   UNL     1       0.799  -6.867  -0.040  0.00  0.00    -0.275 OA
ATOM     27  H   UNL     1       2.176  -4.106  -0.032  0.00  0.00    +0.149 HD
BRANCH  24  28
ATOM     28  C   UNL     1       0.059  -4.275  -0.021  0.00  0.00    +0.139 C 
BRANCH  28  33
ATOM     29  C   UNL     1      -0.018   1.503   0.010  0.00  0.00    +0.044 C 
ATOM     30  C   UNL     1       0.002  -0.004   0.002  0.00  0.00    -0.050 A 
ATOM     31  C   UNL     1       0.006  -0.689  -1.199  0.00  0.00    +0.003 A 
ATOM     32  C   UNL     1       0.025  -2.071  -1.206  0.00  0.00    +0.005 A 
ATOM     33  C   UNL     1       0.040  -2.768  -0.013  0.00  0.00    -0.030 A 
ATOM     34  C   UNL     1       0.037  -2.084   1.188  0.00  0.00    +0.005 A 
ATOM     35  C   UNL     1       0.023  -0.702   1.195  0.00  0.00    +0.003 A 
ENDBRANCH  28  33
ENDBRANCH  24  28
ENDBRANCH  23  25
ENDBRANCH  22  23
ENDBRANCH   1  22
TORSDOF 9
