REMARK  Name = ZINC09124467
REMARK  5 active torsions:
REMARK  status: ('A' for Active; 'I' for Inactive)
REMARK    1  A    between atoms: C_1  and  C_2
REMARK    2  A    between atoms: C_5  and  C_8
REMARK    3  A    between atoms: C_10  and  C_11
REMARK    4  A    between atoms: C_11  and  C_12
REMARK    5  A    between atoms: C_19  and  C_22
REMARK                            x       y       z     vdW  Elec       q    Type
REMARK                         _______ _______ _______ _____ _____    ______ ____
ROOT
ATOM      1  C   UNL     1      -1.073   4.056   0.384  0.00  0.00    +0.152 C 
ATOM      2  C   UNL     1      -2.489   4.587   0.374  0.00  0.00    +0.077 C 
ATOM      3  C   UNL     1      -3.309   3.516   0.760  0.00  0.00    +0.250 C 
ATOM      4  O   UNL     1      -4.522   3.550   0.870  0.00  0.00    -0.282 OA
ATOM      5  C   UNL     1      -2.443   2.334   1.010  0.00  0.00    +0.293 C 
ATOM      6  O   UNL     1      -2.842   1.241   1.359  0.00  0.00    -0.266 OA
ATOM      7  N   UNL     1      -1.157   2.648   0.783  0.00  0.00    -0.232 N 
ATOM      8  C   UNL     1      -0.080   1.783   0.917  0.00  0.00    +0.168 A 
ATOM      9  N   UNL     1       1.202   2.018   0.714  0.00  0.00    -0.233 NA
ATOM     10  C   UNL     1       2.105   1.073   0.884  0.00  0.00    +0.120 A 
ATOM     11  C   UNL     1       1.688  -0.157   1.276  0.00  0.00    +0.068 A 
ATOM     12  S   UNL     1      -0.075   0.112   1.388  0.00  0.00    -0.060 S 
ENDROOT
BRANCH   1  17
ATOM     13  C   UNL     1       2.129   7.006   4.184  0.00  0.00    +0.044 C 
ATOM     14  C   UNL     1       1.294   6.236   3.193  0.00  0.00    -0.050 A 
ATOM     15  C   UNL     1       1.390   6.517   1.843  0.00  0.00    +0.004 A 
ATOM     16  C   UNL     1       0.624   5.811   0.934  0.00  0.00    +0.006 A 
ATOM     17  C   UNL     1      -0.238   4.825   1.375  0.00  0.00    -0.022 A 
ATOM     18  C   UNL     1      -0.338   4.548   2.726  0.00  0.00    +0.006 A 
ATOM     19  C   UNL     1       0.431   5.250   3.634  0.00  0.00    +0.004 A 
ENDBRANCH   1  17
BRANCH   2  20
ATOM     20  C   UNL     1      -2.892   5.868   0.050  0.00  0.00    +0.195 C 
ATOM     21  O   UNL     1      -1.971   6.830  -0.173  0.00  0.00    -0.287 OA
BRANCH  20  22
ATOM     22  C   UNL     1      -4.325   6.183  -0.052  0.00  0.00    +0.023 A 
ATOM     23  C   UNL     1      -4.858   7.279   0.638  0.00  0.00    +0.015 A 
ATOM     24  C   UNL     1      -6.196   7.574   0.539  0.00  0.00    +0.046 A 
ATOM     25  C   UNL     1      -7.038   6.785  -0.248  0.00  0.00    +0.124 A 
ATOM     26  C   UNL     1      -6.505   5.693  -0.927  0.00  0.00    -0.002 A 
ATOM     27  C   UNL     1      -5.168   5.394  -0.844  0.00  0.00    +0.019 A 
ATOM     28  C   UNL     1      -7.649   5.033  -1.673  0.00  0.00    +0.083 C 
ATOM     29  C   UNL     1      -8.883   5.660  -0.983  0.00  0.00    +0.175 C 
ATOM     30  O   UNL     1      -8.371   6.908  -0.486  0.00  0.00    -0.488 OA
ATOM     31  C   UNL     1     -10.007   5.899  -1.994  0.00  0.00    +0.052 C 
ENDBRANCH  20  22
ENDBRANCH   2  20
TORSDOF 3
