REMARK  Name = ZINC33551422
REMARK  7 active torsions:
REMARK  status: ('A' for Active; 'I' for Inactive)
REMARK    1  A    between atoms: C_1  and  C_2
REMARK    2  A    between atoms: C_2  and  O_3
REMARK    3  A    between atoms: O_3  and  C_4
REMARK    4  A    between atoms: C_14  and  C_30
REMARK    5  A    between atoms: C_16  and  C_17
REMARK    6  A    between atoms: C_17  and  C_18
REMARK    7  A    between atoms: C_34  and  O_36
REMARK                            x       y       z     vdW  Elec       q    Type
REMARK                         _______ _______ _______ _____ _____    ______ ____
ROOT
ATOM      1  C   UNL     1      -2.052   3.787   6.682  0.00  0.00    +0.122 A 
ATOM      2  C   UNL     1      -1.121   2.804   6.356  0.00  0.00    +0.048 A 
ATOM      3  C   UNL     1      -1.075   2.250   5.116  0.00  0.00    +0.032 A 
ATOM      4  C   UNL     1      -1.977   2.656   4.104  0.00  0.00    +0.081 A 
ATOM      5  C   UNL     1      -2.910   3.655   4.463  0.00  0.00    +0.044 A 
ATOM      6  C   UNL     1      -2.954   4.211   5.717  0.00  0.00    +0.063 A 
ATOM      7  S   UNL     1      -3.829   3.872   2.958  0.00  0.00    -0.052 S 
ATOM      8  C   UNL     1      -2.947   2.664   1.980  0.00  0.00    +0.169 A 
ATOM      9  N   UNL     1      -2.064   2.203   2.834  0.00  0.00    -0.224 NA
ATOM     10  N   UNL     1      -3.148   2.302   0.659  0.00  0.00    -0.232 N 
ATOM     11  C   UNL     1      -2.376   1.295  -0.075  0.00  0.00    +0.152 C 
ATOM     12  C   UNL     1      -2.951   1.243  -1.472  0.00  0.00    +0.077 C 
ATOM     13  C   UNL     1      -3.994   2.183  -1.500  0.00  0.00    +0.250 C 
ATOM     14  O   UNL     1      -4.703   2.435  -2.457  0.00  0.00    -0.282 OA
ATOM     15  C   UNL     1      -4.083   2.817  -0.158  0.00  0.00    +0.293 C 
ATOM     16  O   UNL     1      -4.883   3.675   0.155  0.00  0.00    -0.266 OA
ENDROOT
BRANCH  11  17
ATOM     17  C   UNL     1      -0.925   1.696  -0.129  0.00  0.00    -0.019 A 
ATOM     18  C   UNL     1      -0.581   3.025  -0.297  0.00  0.00    +0.006 A 
ATOM     19  C   UNL     1       0.750   3.395  -0.353  0.00  0.00    +0.004 A 
ATOM     20  C   UNL     1       1.740   2.439  -0.234  0.00  0.00    +0.045 A 
ATOM     21  C   UNL     1       1.398   1.106  -0.059  0.00  0.00    +0.117 A 
ATOM     22  C   UNL     1       0.061   0.737  -0.004  0.00  0.00    +0.051 A 
BRANCH  21  23
ATOM     23  O   UNL     1       2.369   0.164   0.059  0.00  0.00    -0.507 OA
ATOM     24  H   UNL     1       2.097  -0.893   0.197  0.00  0.00    +0.292 HD
ENDBRANCH  21  23
ENDBRANCH  11  17
BRANCH  12  25
ATOM     25  C   UNL     1      -2.535   0.435  -2.510  0.00  0.00    +0.195 C 
ATOM     26  O   UNL     1      -1.428  -0.325  -2.372  0.00  0.00    -0.287 OA
BRANCH  25  27
ATOM     27  C   UNL     1      -3.298   0.403  -3.769  0.00  0.00    +0.022 A 
ATOM     28  C   UNL     1      -4.679   0.179  -3.748  0.00  0.00    +0.014 A 
ATOM     29  C   UNL     1      -5.388   0.154  -4.929  0.00  0.00    +0.039 A 
ATOM     30  C   UNL     1      -4.734   0.341  -6.138  0.00  0.00    +0.123 A 
ATOM     31  C   UNL     1      -3.364   0.558  -6.166  0.00  0.00    +0.039 A 
ATOM     32  C   UNL     1      -2.644   0.590  -4.992  0.00  0.00    +0.014 A 
ATOM     33  F   UNL     1      -5.434   0.311  -7.293  0.00  0.00    -0.205 F 
ENDBRANCH  25  27
ENDBRANCH  12  25
BRANCH   1  34
ATOM     34  O   UNL     1      -2.077   4.324   7.931  0.00  0.00    -0.492 OA
BRANCH  34  36
ATOM     35  C   UNL     1      -1.297   4.551  10.207  0.00  0.00    +0.048 C 
ATOM     36  C   UNL     1      -1.115   3.834   8.867  0.00  0.00    +0.225 C 
ENDBRANCH  34  36
ENDBRANCH   1  34
TORSDOF 6
