REMARK  Name = ZINC13451092
REMARK  10 active torsions:
REMARK  status: ('A' for Active; 'I' for Inactive)
REMARK    1  A    between atoms: C_1  and  C_2
REMARK    2  A    between atoms: C_3  and  C_24
REMARK    3  A    between atoms: C_7  and  S_9
REMARK    4  A    between atoms: S_9  and  C_10
REMARK    5  A    between atoms: C_10  and  C_12
REMARK    6  A    between atoms: C_10  and  C_13
REMARK    7  A    between atoms: N_18  and  C_19
REMARK    8  A    between atoms: C_24  and  C_25
REMARK    9  A    between atoms: C_25  and  C_26
REMARK   10  A    between atoms: C_26  and  O_28
REMARK                            x       y       z     vdW  Elec       q    Type
REMARK                         _______ _______ _______ _____ _____    ______ ____
ROOT
ATOM      1  S   UNL     1       0.259   2.556  -4.883  0.00  0.00    -0.075 S 
ENDROOT
BRANCH   1   8
ATOM      2  C   UNL     1      -0.013   1.086   0.008  0.00  0.00    +0.066 C 
ATOM      3  C   UNL     1      -0.742   1.585  -1.213  0.00  0.00    +0.049 A 
ATOM      4  C   UNL     1      -2.090   1.794  -1.164  0.00  0.00    +0.038 A 
ATOM      5  C   UNL     1      -2.748   2.260  -2.315  0.00  0.00    +0.256 A 
ATOM      6  O   UNL     1      -3.952   2.457  -2.306  0.00  0.00    -0.267 OA
ATOM      7  N   UNL     1      -2.023   2.485  -3.431  0.00  0.00    -0.302 N 
ATOM      8  C   UNL     1      -0.680   2.259  -3.422  0.00  0.00    +0.170 A 
ATOM      9  N   UNL     1      -0.069   1.827  -2.335  0.00  0.00    -0.228 NA
ATOM     10  H   UNL     1      -2.457   2.806  -4.237  0.00  0.00    +0.171 HD
BRANCH   4  11
ATOM     11  C   UNL     1      -2.860   1.528   0.104  0.00  0.00    +0.053 C 
BRANCH  11  12
ATOM     12  C   UNL     1      -3.002   2.829   0.897  0.00  0.00    +0.125 C 
BRANCH  12  13
ATOM     13  C   UNL     1      -3.772   2.564   2.165  0.00  0.00    +0.305 C 
ATOM     14  O   UNL     1      -4.167   1.448   2.409  0.00  0.00    -0.251 OA
BRANCH  13  15
ATOM     15  O   UNL     1      -4.019   3.566   3.022  0.00  0.00    -0.481 OA
ATOM     16  H   UNL     1      -4.519   3.300   3.806  0.00  0.00    +0.295 HD
ENDBRANCH  13  15
ENDBRANCH  12  13
ENDBRANCH  11  12
ENDBRANCH   4  11
ENDBRANCH   1   8
BRANCH   1  17
ATOM     17  C   UNL     1       1.957   2.127  -4.409  0.00  0.00    +0.137 C 
ATOM     18  C   UNL     1       2.037   0.631  -4.096  0.00  0.00    +0.029 C 
BRANCH  17  19
ATOM     19  C   UNL     1       2.893   2.454  -5.543  0.00  0.00    +0.233 C 
ATOM     20  O   UNL     1       2.461   2.579  -6.669  0.00  0.00    -0.274 OA
ATOM     21  N   UNL     1       4.211   2.609  -5.306  0.00  0.00    -0.239 N 
ATOM     22  C   UNL     1       5.048   2.901  -6.321  0.00  0.00    +0.306 C 
ATOM     23  O   UNL     1       4.615   3.026  -7.449  0.00  0.00    -0.252 OA
ATOM     24  N   UNL     1       6.366   3.055  -6.083  0.00  0.00    -0.296 N 
ATOM     25  H   UNL     1       4.556   2.509  -4.405  0.00  0.00    +0.159 HD
ATOM     26  H   UNL     1       6.712   2.956  -5.183  0.00  0.00    +0.151 HD
BRANCH  24  27
ATOM     27  C   UNL     1       7.276   3.374  -7.186  0.00  0.00    +0.074 C 
ATOM     28  C   UNL     1       7.355   4.902  -7.383  0.00  0.00    +0.022 C 
ATOM     29  C   UNL     1       8.611   5.324  -6.582  0.00  0.00    +0.002 C 
ATOM     30  C   UNL     1       9.595   4.158  -6.850  0.00  0.00    +0.002 C 
ATOM     31  C   UNL     1       8.701   2.901  -6.847  0.00  0.00    +0.022 C 
ENDBRANCH  24  27
ENDBRANCH  17  19
ENDBRANCH   1  17
TORSDOF 8
