REMARK  Name = ZINC03350568
REMARK  13 active torsions:
REMARK  status: ('A' for Active; 'I' for Inactive)
REMARK    1  A    between atoms: C_1  and  C_2
REMARK    2  A    between atoms: C_2  and  C_3
REMARK    3  A    between atoms: C_3  and  C_4
REMARK    4  A    between atoms: C_4  and  C_5
REMARK    5  A    between atoms: C_5  and  C_6
REMARK    6  A    between atoms: C_6  and  C_7
REMARK    7  A    between atoms: C_7  and  C_8
REMARK    8  A    between atoms: C_8  and  N_9
REMARK    9  A    between atoms: C_10  and  C_12
REMARK   10  A    between atoms: C_14  and  C_19
REMARK   11  A    between atoms: C_19  and  C_21
REMARK   12  A    between atoms: C_23  and  C_28
REMARK   13  A    between atoms: C_26  and  O_27
REMARK                            x       y       z     vdW  Elec       q    Type
REMARK                         _______ _______ _______ _____ _____    ______ ____
ROOT
ATOM      1  C   UNL     1       3.862  -8.426  -6.376  0.00  0.00    +0.097 A 
ATOM      2  C   UNL     1       4.215  -7.496  -7.346  0.00  0.00    +0.033 A 
ATOM      3  C   UNL     1       4.653  -7.978  -8.603  0.00  0.00    +0.058 A 
ATOM      4  C   UNL     1       4.529  -9.316  -8.916  0.00  0.00    +0.209 A 
ATOM      5  O   UNL     1       3.948 -10.168  -8.058  0.00  0.00    -0.446 OA
ATOM      6  C   UNL     1       4.012  -9.853  -6.736  0.00  0.00    +0.204 A 
ATOM      7  N   UNL     1       4.193 -10.770  -5.822  0.00  0.00    -0.369 N 
ATOM      8  H   UNL     1       4.314 -10.513  -4.894  0.00  0.00    +0.159 HD
ATOM      9  H   UNL     1       4.206 -11.707  -6.071  0.00  0.00    +0.159 HD
ENDROOT
BRANCH   1  11
ATOM     10  N   UNL     1       3.165  -6.706  -4.790  0.00  0.00    -0.311 N 
ATOM     11  C   UNL     1       3.371  -8.011  -5.054  0.00  0.00    +0.249 C 
ATOM     12  O   UNL     1       3.149  -8.847  -4.198  0.00  0.00    -0.270 OA
ATOM     13  H   UNL     1       3.410  -6.034  -5.446  0.00  0.00    +0.149 HD
BRANCH  10  14
ATOM     14  C   UNL     1       2.573  -6.301  -3.513  0.00  0.00    +0.104 C 
BRANCH  14  15
ATOM     15  C   UNL     1       2.450  -4.776  -3.469  0.00  0.00    +0.019 C 
BRANCH  15  16
ATOM     16  C   UNL     1       1.832  -4.353  -2.135  0.00  0.00    +0.002 C 
BRANCH  16  17
ATOM     17  C   UNL     1       1.709  -2.829  -2.090  0.00  0.00    +0.000 C 
BRANCH  17  18
ATOM     18  C   UNL     1       1.090  -2.406  -0.756  0.00  0.00    -0.000 C 
BRANCH  18  19
ATOM     19  C   UNL     1       0.967  -0.882  -0.712  0.00  0.00    -0.000 C 
BRANCH  19  21
ATOM     20  C   UNL     1       0.225   1.066   0.667  0.00  0.00    +0.004 C 
ATOM     21  C   UNL     1       0.348  -0.459   0.623  0.00  0.00    -0.003 C 
ENDBRANCH  19  21
ENDBRANCH  18  19
ENDBRANCH  17  18
ENDBRANCH  16  17
ENDBRANCH  15  16
ENDBRANCH  14  15
ENDBRANCH  10  14
ENDBRANCH   1  11
BRANCH   3  22
ATOM     22  C   UNL     1       5.244  -7.047  -9.582  0.00  0.00    +0.200 C 
ATOM     23  O   UNL     1       5.530  -7.438 -10.697  0.00  0.00    -0.286 OA
BRANCH  22  24
ATOM     24  C   UNL     1       5.487  -5.641  -9.208  0.00  0.00    +0.064 A 
ATOM     25  C   UNL     1       4.643  -4.632  -9.679  0.00  0.00    +0.018 A 
ATOM     26  C   UNL     1       4.877  -3.321  -9.326  0.00  0.00    -0.050 A 
ATOM     27  C   UNL     1       5.945  -2.997  -8.505  0.00  0.00    +0.007 A 
ATOM     28  C   UNL     1       6.787  -3.984  -8.032  0.00  0.00    +0.046 A 
ATOM     29  C   UNL     1       6.564  -5.310  -8.372  0.00  0.00    +0.128 A 
ATOM     30  C   UNL     1       3.966  -2.233  -9.836  0.00  0.00    +0.044 C 
BRANCH  29  31
ATOM     31  O   UNL     1       7.386  -6.281  -7.903  0.00  0.00    -0.506 OA
ATOM     32  H   UNL     1       8.144  -6.465  -8.475  0.00  0.00    +0.292 HD
ENDBRANCH  29  31
ENDBRANCH  22  24
ENDBRANCH   3  22
TORSDOF 11
