REMARK  Name = ZINC45764404
REMARK  13 active torsions:
REMARK  status: ('A' for Active; 'I' for Inactive)
REMARK    1  A    between atoms: C_1  and  C_2
REMARK    2  A    between atoms: C_2  and  C_3
REMARK    3  A    between atoms: C_3  and  C_4
REMARK    4  A    between atoms: C_4  and  O_5
REMARK    5  A    between atoms: O_5  and  C_6
REMARK    6  A    between atoms: C_9  and  C_14
REMARK    7  A    between atoms: C_11  and  O_12
REMARK    8  A    between atoms: O_12  and  C_13
REMARK    9  A    between atoms: C_14  and  C_16
REMARK   10  A    between atoms: C_14  and  N_17
REMARK   11  A    between atoms: N_20  and  C_21
REMARK   12  A    between atoms: C_26  and  C_27
REMARK   13  A    between atoms: C_27  and  C_28
REMARK                            x       y       z     vdW  Elec       q    Type
REMARK                         _______ _______ _______ _____ _____    ______ ____
ROOT
ATOM      1  N   UNL     1       2.119  -8.699  -1.817  0.00  0.00    -0.293 N 
ATOM      2  C   UNL     1       2.759  -9.884  -1.770  0.00  0.00    +0.304 C 
ATOM      3  O   UNL     1       3.092 -10.437  -2.800  0.00  0.00    -0.252 OA
ATOM      4  N   UNL     1       3.029 -10.457  -0.580  0.00  0.00    -0.269 N 
ATOM      5  H   UNL     1       1.853  -8.258  -0.995  0.00  0.00    +0.151 HD
ATOM      6  H   UNL     1       2.837  -9.980   0.243  0.00  0.00    +0.156 HD
ENDROOT
BRANCH   4   7
ATOM      7  C   UNL     1       3.587 -11.740  -0.531  0.00  0.00    +0.038 A 
ATOM      8  C   UNL     1       3.400 -12.620  -1.589  0.00  0.00    +0.023 A 
ATOM      9  C   UNL     1       3.952 -13.885  -1.538  0.00  0.00    +0.002 A 
ATOM     10  C   UNL     1       4.690 -14.275  -0.435  0.00  0.00    +0.000 A 
ATOM     11  C   UNL     1       4.877 -13.401   0.620  0.00  0.00    +0.006 A 
ATOM     12  C   UNL     1       4.333 -12.133   0.572  0.00  0.00    -0.017 A 
BRANCH  12  13
ATOM     13  C   UNL     1       4.543 -11.178   1.719  0.00  0.00    +0.132 C 
BRANCH  13  14
ATOM     14  C   UNL     1       3.371 -11.262   2.663  0.00  0.00    +0.215 C 
ATOM     15  O   UNL     1       2.456 -12.021   2.428  0.00  0.00    -0.276 OA
ATOM     16  N   UNL     1       3.341 -10.492   3.769  0.00  0.00    -0.329 N 
ATOM     17  H   UNL     1       4.073  -9.884   3.958  0.00  0.00    +0.145 HD
ATOM     18  H   UNL     1       2.587 -10.546   4.377  0.00  0.00    +0.145 HD
ENDBRANCH  13  14
ENDBRANCH  12  13
ENDBRANCH   4   7
BRANCH   1  19
ATOM     19  C   UNL     1       1.825  -8.077  -3.111  0.00  0.00    +0.102 C 
ATOM     20  C   UNL     1       0.514  -8.641  -3.662  0.00  0.00    +0.033 C 
BRANCH  19  24
ATOM     21  C   UNL     1       1.454  -3.847  -2.600  0.00  0.00    +0.162 A 
ATOM     22  C   UNL     1       0.927  -4.711  -1.653  0.00  0.00    +0.050 A 
ATOM     23  C   UNL     1       1.049  -6.078  -1.821  0.00  0.00    +0.009 A 
ATOM     24  C   UNL     1       1.695  -6.586  -2.933  0.00  0.00    -0.024 A 
ATOM     25  C   UNL     1       2.223  -5.730  -3.881  0.00  0.00    +0.054 A 
ATOM     26  C   UNL     1       2.100  -4.359  -3.722  0.00  0.00    +0.162 A 
BRANCH  26  27
ATOM     27  O   UNL     1       2.613  -3.515  -4.657  0.00  0.00    -0.491 OA
ATOM     28  C   UNL     1       3.263  -4.111  -5.782  0.00  0.00    +0.277 C 
ENDBRANCH  26  27
BRANCH  21  29
ATOM     29  O   UNL     1       1.335  -2.502  -2.437  0.00  0.00    -0.488 OA
BRANCH  29  30
ATOM     30  C   UNL     1       0.660  -2.049  -1.262  0.00  0.00    +0.229 C 
BRANCH  30  31
ATOM     31  C   UNL     1       0.625  -0.519  -1.252  0.00  0.00    +0.041 C 
BRANCH  31  33
ATOM     32  C   UNL     1      -0.134   1.496   0.015  0.00  0.00    +0.004 C 
ATOM     33  C   UNL     1      -0.098  -0.034   0.006  0.00  0.00    -0.000 C 
ENDBRANCH  31  33
ENDBRANCH  30  31
ENDBRANCH  29  30
ENDBRANCH  21  29
ENDBRANCH  19  24
ENDBRANCH   1  19
TORSDOF 10
