REMARK  Name = ZINC53457540
REMARK  12 active torsions:
REMARK  status: ('A' for Active; 'I' for Inactive)
REMARK    1  A    between atoms: C_1  and  C_2
REMARK    2  A    between atoms: C_2  and  C_4
REMARK    3  A    between atoms: C_2  and  N_14
REMARK    4  A    between atoms: C_7  and  O_12
REMARK    5  A    between atoms: C_9  and  O_10
REMARK    6  A    between atoms: O_10  and  C_11
REMARK    7  A    between atoms: O_12  and  C_13
REMARK    8  A    between atoms: C_15  and  C_17
REMARK    9  A    between atoms: C_17  and  C_18
REMARK   10  A    between atoms: C_17  and  C_19
REMARK   11  A    between atoms: C_17  and  N_20
REMARK   12  A    between atoms: N_23  and  C_24
REMARK                            x       y       z     vdW  Elec       q    Type
REMARK                         _______ _______ _______ _____ _____    ______ ____
ROOT
ATOM      1  N   UNL     1       0.711  -0.489   1.189  0.00  0.00    -0.307 N 
ATOM      2  C   UNL     1       2.054  -0.600   1.174  0.00  0.00    +0.236 C 
ATOM      3  O   UNL     1       2.676  -0.297   0.177  0.00  0.00    -0.273 OA
ATOM      4  H   UNL     1       0.213  -0.731   1.986  0.00  0.00    +0.149 HD
ENDROOT
BRANCH   2   5
ATOM      5  C   UNL     1       2.783  -1.099   2.395  0.00  0.00    +0.106 C 
ATOM      6  C   UNL     1       2.803  -2.629   2.386  0.00  0.00    +0.041 C 
ATOM      7  C   UNL     1       4.218  -0.569   2.384  0.00  0.00    +0.041 C 
BRANCH   5   8
ATOM      8  N   UNL     1       2.097  -0.627   3.600  0.00  0.00    -0.286 N 
ATOM      9  C   UNL     1       2.573  -0.952   4.818  0.00  0.00    +0.300 C 
ATOM     10  O   UNL     1       3.572  -1.639   4.916  0.00  0.00    -0.253 OA
ATOM     11  N   UNL     1       1.943  -0.518   5.927  0.00  0.00    -0.302 N 
ATOM     12  C   UNL     1       2.461  -0.872   7.250  0.00  0.00    +0.129 C 
ATOM     13  H   UNL     1       1.300  -0.079   3.521  0.00  0.00    +0.151 HD
ATOM     14  H   UNL     1       1.146   0.030   5.848  0.00  0.00    +0.150 HD
ENDBRANCH   5   8
ENDBRANCH   2   5
BRANCH   1  16
ATOM     15  C   UNL     1      -0.019   1.526   0.010  0.00  0.00    +0.033 C 
ATOM     16  C   UNL     1       0.002  -0.004   0.002  0.00  0.00    +0.104 C 
BRANCH  16  17
ATOM     17  C   UNL     1      -1.412  -0.526   0.013  0.00  0.00    +0.014 A 
ATOM     18  C   UNL     1      -2.014  -0.864   1.210  0.00  0.00    +0.012 A 
ATOM     19  C   UNL     1      -3.310  -1.342   1.223  0.00  0.00    +0.046 A 
ATOM     20  C   UNL     1      -4.010  -1.484   0.033  0.00  0.00    +0.124 A 
ATOM     21  C   UNL     1      -3.409  -1.146  -1.169  0.00  0.00    +0.091 A 
ATOM     22  C   UNL     1      -2.110  -0.661  -1.179  0.00  0.00    +0.128 A 
BRANCH  22  23
ATOM     23  O   UNL     1      -1.519  -0.323  -2.355  0.00  0.00    -0.495 OA
ATOM     24  C   UNL     1      -2.297  -0.488  -3.542  0.00  0.00    +0.277 C 
ENDBRANCH  22  23
BRANCH  20  25
ATOM     25  O   UNL     1      -5.285  -1.956   0.047  0.00  0.00    -0.495 OA
ATOM     26  C   UNL     1      -5.841  -2.285   1.321  0.00  0.00    +0.277 C 
ENDBRANCH  20  25
ENDBRANCH  16  17
ENDBRANCH   1  16
TORSDOF 6
