REMARK  Name = ZINC39361823
REMARK  9 active torsions:
REMARK  status: ('A' for Active; 'I' for Inactive)
REMARK    1  A    between atoms: C_1  and  C_2
REMARK    2  A    between atoms: C_2  and  C_3
REMARK    3  A    between atoms: C_3  and  S_4
REMARK    4  A    between atoms: S_4  and  C_5
REMARK    5  A    between atoms: C_8  and  C_19
REMARK    6  A    between atoms: N_10  and  C_11
REMARK    7  A    between atoms: C_13  and  C_18
REMARK    8  A    between atoms: C_16  and  C_17
REMARK    9  A    between atoms: C_19  and  C_20
REMARK                            x       y       z     vdW  Elec       q    Type
REMARK                         _______ _______ _______ _____ _____    ______ ____
ROOT
ATOM      1  C   UNL     1       1.641  -2.747   2.702  0.00  0.00    +0.179 C 
ATOM      2  N   UNL     1       2.113  -1.883   3.536  0.00  0.00    -0.162 NA
ATOM      3  N   UNL     1       2.758  -2.507   4.610  0.00  0.00    -0.246 N 
ATOM      4  C   UNL     1       2.649  -3.956   4.370  0.00  0.00    +0.187 C 
ATOM      5  N   UNL     1       1.901  -4.049   3.105  0.00  0.00    -0.258 N 
ATOM      6  H   UNL     1       3.191  -2.072   5.362  0.00  0.00    +0.170 HD
ENDROOT
BRANCH   5   7
ATOM      7  C   UNL     1       1.528  -5.220   2.439  0.00  0.00    +0.041 A 
ATOM      8  C   UNL     1       2.380  -5.789   1.501  0.00  0.00    +0.027 A 
ATOM      9  C   UNL     1       2.009  -6.946   0.845  0.00  0.00    -0.049 A 
ATOM     10  C   UNL     1       0.790  -7.538   1.121  0.00  0.00    +0.004 A 
ATOM     11  C   UNL     1      -0.061  -6.974   2.054  0.00  0.00    +0.005 A 
ATOM     12  C   UNL     1       0.307  -5.820   2.718  0.00  0.00    -0.029 A 
ATOM     13  C   UNL     1      -0.618  -5.210   3.739  0.00  0.00    +0.045 C 
ATOM     14  C   UNL     1       2.933  -7.565  -0.172  0.00  0.00    +0.044 C 
ENDBRANCH   5   7
BRANCH   1  15
ATOM     15  S   UNL     1       0.767  -2.325   1.232  0.00  0.00    -0.089 S 
BRANCH  15  16
ATOM     16  C   UNL     1       0.742  -0.511   1.242  0.00  0.00    +0.077 C 
BRANCH  16  18
ATOM     17  C   UNL     1      -0.019   1.526   0.010  0.00  0.00    +0.004 C 
ATOM     18  C   UNL     1       0.002  -0.004   0.002  0.00  0.00    +0.008 C 
ENDBRANCH  16  18
ENDBRANCH  15  16
ENDBRANCH   1  15
BRANCH   4  19
ATOM     19  C   UNL     1       4.038  -4.583   4.229  0.00  0.00    +0.097 C 
BRANCH  19  20
ATOM     20  C   UNL     1       4.765  -4.495   5.546  0.00  0.00    +0.029 A 
ATOM     21  N   UNL     1       5.451  -3.359   5.878  0.00  0.00    -0.311 N 
ATOM     22  C   UNL     1       6.103  -3.271   7.052  0.00  0.00    +0.327 A 
ATOM     23  O   UNL     1       6.706  -2.252   7.327  0.00  0.00    -0.247 OA
ATOM     24  N   UNL     1       6.096  -4.294   7.926  0.00  0.00    -0.275 N 
ATOM     25  C   UNL     1       5.431  -5.431   7.636  0.00  0.00    +0.254 A 
ATOM     26  O   UNL     1       5.425  -6.358   8.426  0.00  0.00    -0.268 OA
ATOM     27  C   UNL     1       4.737  -5.536   6.406  0.00  0.00    +0.091 A 
ATOM     28  H   UNL     1       6.571  -4.214   8.768  0.00  0.00    +0.173 HD
ATOM     29  H   UNL     1       5.468  -2.611   5.261  0.00  0.00    +0.170 HD
ENDBRANCH  19  20
ENDBRANCH   4  19
TORSDOF 6
