REMARK  Name = ZINC39656082
REMARK  8 active torsions:
REMARK  status: ('A' for Active; 'I' for Inactive)
REMARK    1  A    between atoms: C_1  and  C_2
REMARK    2  A    between atoms: C_8  and  C_11
REMARK    3  A    between atoms: C_11  and  C_12
REMARK    4  A    between atoms: C_12  and  N_13
REMARK    5  A    between atoms: C_14  and  C_16
REMARK    6  A    between atoms: C_27  and  C_29
REMARK    7  A    between atoms: C_33  and  O_34
REMARK    8  A    between atoms: O_34  and  C_35
REMARK                            x       y       z     vdW  Elec       q    Type
REMARK                         _______ _______ _______ _____ _____    ______ ____
ROOT
ATOM      1  C   UNL     1       4.638  -0.105  -7.501  0.00  0.00    +0.100 C 
ATOM      2  C   UNL     1       5.661   0.310  -6.420  0.00  0.00    +0.121 C 
ATOM      3  N   UNL     1       6.104  -0.968  -5.813  0.00  0.00    -0.296 N 
ATOM      4  C   UNL     1       6.210  -1.903  -6.959  0.00  0.00    +0.115 C 
ATOM      5  C   UNL     1       5.004  -1.557  -7.854  0.00  0.00    -0.004 C 
ATOM      6  C   UNL     1       5.392  -1.660  -9.326  0.00  0.00    -0.010 C 
ATOM      7  C   UNL     1       5.695  -3.122  -9.668  0.00  0.00    -0.082 C 
ATOM      8  N   UNL     1       4.512  -3.946  -9.394  0.00  0.00    +0.379 N 
ATOM      9  C   UNL     1       4.201  -3.915  -7.960  0.00  0.00    -0.082 C 
ATOM     10  C   UNL     1       3.835  -2.487  -7.546  0.00  0.00    -0.010 C 
ATOM     11  C   UNL     1       6.354  -1.222  -4.513  0.00  0.00    +0.251 C 
ATOM     12  O   UNL     1       6.126  -0.372  -3.673  0.00  0.00    -0.270 OA
ATOM     13  H   UNL     1       3.726  -3.587  -9.915  0.00  0.00    -0.086 HD
ATOM     14  H   UNL     1       4.693  -4.897  -9.677  0.00  0.00    -0.086 HD
ENDROOT
BRANCH  11  15
ATOM     15  C   UNL     1       6.902  -2.526  -4.111  0.00  0.00    +0.087 A 
ATOM     16  C   UNL     1       7.792  -3.212  -4.909  0.00  0.00    +0.063 A 
ATOM     17  S   UNL     1       8.124  -4.613  -4.048  0.00  0.00    -0.081 S 
ATOM     18  C   UNL     1       7.107  -4.348  -2.612  0.00  0.00    +0.120 A 
ATOM     19  C   UNL     1       6.536  -3.147  -2.858  0.00  0.00    +0.158 A 
ATOM     20 CL   UNL     1       6.902  -5.377  -1.230  0.00  0.00    -0.072 Cl
BRANCH  19  21
ATOM     21  O   UNL     1       5.670  -2.562  -1.985  0.00  0.00    -0.492 OA
ATOM     22  C   UNL     1       4.284  -2.870  -2.142  0.00  0.00    +0.277 C 
ENDBRANCH  19  21
ENDBRANCH  11  15
BRANCH   1  24
ATOM     23  N   UNL     1       2.205   0.250  -7.769  0.00  0.00    -0.315 N 
ATOM     24  C   UNL     1       3.236  -0.037  -6.951  0.00  0.00    +0.218 C 
ATOM     25  O   UNL     1       3.037  -0.240  -5.772  0.00  0.00    -0.275 OA
ATOM     26  H   UNL     1       2.364   0.412  -8.712  0.00  0.00    +0.149 HD
BRANCH  23  27
ATOM     27  C   UNL     1       0.842   0.316  -7.234  0.00  0.00    +0.109 C 
BRANCH  27  28
ATOM     28  C   UNL     1      -0.133   0.656  -8.364  0.00  0.00    +0.056 C 
BRANCH  28  36
ATOM     29  C   UNL     1      -2.142   5.458  -5.973  0.00  0.00    +0.044 C 
ATOM     30  C   UNL     1      -2.598   4.055  -6.279  0.00  0.00    -0.050 A 
ATOM     31  C   UNL     1      -3.881   3.657  -5.932  0.00  0.00    +0.005 A 
ATOM     32  C   UNL     1      -4.318   2.379  -6.203  0.00  0.00    +0.026 A 
ATOM     33  C   UNL     1      -3.466   1.476  -6.831  0.00  0.00    +0.047 A 
ATOM     34  N   UNL     1      -3.600   0.164  -7.227  0.00  0.00    -0.360 N 
ATOM     35  C   UNL     1      -2.440  -0.267  -7.810  0.00  0.00    +0.087 A 
ATOM     36  C   UNL     1      -1.534   0.724  -7.814  0.00  0.00    -0.021 A 
ATOM     37  C   UNL     1      -2.166   1.885  -7.181  0.00  0.00    +0.003 A 
ATOM     38  C   UNL     1      -1.746   3.186  -6.902  0.00  0.00    +0.013 A 
ATOM     39  H   UNL     1      -4.398  -0.375  -7.109  0.00  0.00    +0.165 HD
ENDBRANCH  28  36
ENDBRANCH  27  28
ENDBRANCH  23  27
ENDBRANCH   1  24
TORSDOF 6
