REMARK  Name = ZINC65523061
REMARK  6 active torsions:
REMARK  status: ('A' for Active; 'I' for Inactive)
REMARK    1  A    between atoms: C_1  and  C_2
REMARK    2  A    between atoms: C_2  and  C_3
REMARK    3  A    between atoms: C_2  and  N_9
REMARK    4  A    between atoms: C_12  and  N_14
REMARK    5  A    between atoms: N_17  and  C_18
REMARK    6  A    between atoms: C_26  and  O_27
REMARK                            x       y       z     vdW  Elec       q    Type
REMARK                         _______ _______ _______ _____ _____    ______ ____
ROOT
ATOM      1  N   UNL     1      -0.604  -1.292   4.450  0.00  0.00    -0.298 N 
ATOM      2  C   UNL     1      -0.338  -1.746   5.691  0.00  0.00    +0.300 C 
ATOM      3  O   UNL     1       0.813  -1.924   6.040  0.00  0.00    -0.253 OA
ATOM      4  N   UNL     1      -1.348  -2.002   6.545  0.00  0.00    -0.290 N 
ATOM      5  H   UNL     1      -1.522  -1.149   4.172  0.00  0.00    +0.150 HD
ATOM      6  H   UNL     1      -2.266  -1.860   6.267  0.00  0.00    +0.151 HD
ENDROOT
BRANCH   4   7
ATOM      7  C   UNL     1      -1.059  -2.496   7.894  0.00  0.00    +0.134 C 
ATOM      8  C   UNL     1      -1.001  -4.009   7.898  0.00  0.00    -0.021 A 
ATOM      9  C   UNL     1       0.004  -4.869   7.487  0.00  0.00    +0.006 A 
ATOM     10  C   UNL     1      -0.168  -6.236   7.586  0.00  0.00    +0.000 A 
ATOM     11  C   UNL     1      -1.346  -6.748   8.096  0.00  0.00    +0.000 A 
ATOM     12  C   UNL     1      -2.349  -5.891   8.507  0.00  0.00    +0.004 A 
ATOM     13  C   UNL     1      -2.179  -4.521   8.409  0.00  0.00    -0.040 A 
ATOM     14  C   UNL     1      -3.110  -3.387   8.783  0.00  0.00    +0.069 C 
ATOM     15  C   UNL     1      -2.212  -2.134   8.855  0.00  0.00    +0.143 C 
BRANCH  15  16
ATOM     16  O   UNL     1      -1.722  -1.936  10.183  0.00  0.00    -0.389 OA
ATOM     17  H   UNL     1      -2.408  -1.706  10.825  0.00  0.00    +0.210 HD
ENDBRANCH  15  16
ENDBRANCH   4   7
BRANCH   1  21
ATOM     18  N   UNL     1       0.713  -0.491   1.192  0.00  0.00    +0.385 N 
ATOM     19  C   UNL     1       0.638  -1.972   1.272  0.00  0.00    -0.076 C 
ATOM     20  C   UNL     1       0.891  -2.295   2.760  0.00  0.00    +0.002 C 
ATOM     21  C   UNL     1       0.495  -1.013   3.522  0.00  0.00    +0.056 C 
ATOM     22  C   UNL     1       0.035  -0.024   2.429  0.00  0.00    -0.056 C 
ATOM     23  H   UNL     1       1.674  -0.184   1.179  0.00  0.00    -0.081 HD
BRANCH  18  25
ATOM     24  C   UNL     1      -0.019   1.526   0.010  0.00  0.00    -0.008 C 
ATOM     25  C   UNL     1       0.002  -0.004   0.002  0.00  0.00    -0.041 C 
BRANCH  25  26
ATOM     26  C   UNL     1       0.707  -0.490  -1.238  0.00  0.00    -0.061 A 
ATOM     27  C   UNL     1       2.089  -0.511  -1.284  0.00  0.00    +0.002 A 
ATOM     28  C   UNL     1       2.736  -0.957  -2.421  0.00  0.00    +0.000 A 
ATOM     29  C   UNL     1       2.002  -1.382  -3.512  0.00  0.00    +0.000 A 
ATOM     30  C   UNL     1       0.620  -1.362  -3.466  0.00  0.00    +0.000 A 
ATOM     31  C   UNL     1      -0.027  -0.920  -2.327  0.00  0.00    +0.002 A 
ENDBRANCH  25  26
ENDBRANCH  18  25
ENDBRANCH   1  21
TORSDOF 5
