REMARK  Name = ZINC00729255
REMARK  7 active torsions:
REMARK  status: ('A' for Active; 'I' for Inactive)
REMARK    1  A    between atoms: C_1  and  C_2
REMARK    2  A    between atoms: C_2  and  C_3
REMARK    3  A    between atoms: C_3  and  N_4
REMARK    4  A    between atoms: C_13  and  C_16
REMARK    5  A    between atoms: N_18  and  N_19
REMARK    6  A    between atoms: N_19  and  S_20
REMARK    7  A    between atoms: S_20  and  C_23
REMARK                            x       y       z     vdW  Elec       q    Type
REMARK                         _______ _______ _______ _____ _____    ______ ____
ROOT
ATOM      1  C   UNL     1      -3.669   6.105   0.070  0.00  0.00    +0.268 C 
ATOM      2  O   UNL     1      -4.190   6.441  -0.977  0.00  0.00    -0.269 OA
ATOM      3  N   UNL     1      -4.223   6.464   1.245  0.00  0.00    -0.228 N 
ATOM      4  H   UNL     1      -3.752   6.160   2.191  0.00  0.00    +0.171 HD
ENDROOT
BRANCH   1  14
ATOM      5  N   UNL     1      -0.039   5.237   0.030  0.00  0.00    -0.307 N 
ATOM      6  C   UNL     1      -0.023   3.856   0.023  0.00  0.00    +0.056 A 
ATOM      7  C   UNL     1       1.182   3.160   0.008  0.00  0.00    +0.026 A 
ATOM      8  C   UNL     1       1.181   1.782   0.000  0.00  0.00    +0.002 A 
ATOM      9  C   UNL     1      -0.013   1.076   0.008  0.00  0.00    +0.001 A 
ATOM     10  C   UNL     1      -1.216   1.745   0.017  0.00  0.00    +0.014 A 
ATOM     11  C   UNL     1      -1.230   3.140   0.031  0.00  0.00    +0.046 A 
ATOM     12  C   UNL     1      -2.502   3.888   0.046  0.00  0.00    +0.205 A 
ATOM     13  O   UNL     1      -3.573   3.307   0.053  0.00  0.00    -0.286 OA
ATOM     14  C   UNL     1      -2.437   5.309   0.053  0.00  0.00    +0.149 A 
ATOM     15  C   UNL     1      -1.195   5.938   0.045  0.00  0.00    +0.268 A 
ATOM     16  O   UNL     1      -1.143   7.284   0.052  0.00  0.00    -0.267 OA
BRANCH   5  17
ATOM     17  C   UNL     1       1.234   5.963   0.022  0.00  0.00    +0.125 C 
BRANCH  17  19
ATOM     18  C   UNL     1       2.992   6.981  -1.432  0.00  0.00    +0.005 C 
ATOM     19  C   UNL     1       1.663   6.223  -1.423  0.00  0.00    +0.018 C 
ENDBRANCH  17  19
ENDBRANCH   5  17
ENDBRANCH   1  14
BRANCH   3  20
ATOM     20  N   UNL     1      -5.400   7.224   1.260  0.00  0.00    -0.108 NA
ATOM     21  H   UNL     1      -5.438   8.068   0.784  0.00  0.00    +0.172 HD
BRANCH  20  22
ATOM     22  S   UNL     1      -6.725   6.682   2.093  0.00  0.00    +0.074 S 
ATOM     23  O   UNL     1      -7.691   7.723   2.041  0.00  0.00    -0.152 OA
ATOM     24  O   UNL     1      -6.993   5.370   1.619  0.00  0.00    -0.152 OA
BRANCH  22  25
ATOM     25  C   UNL     1      -6.249   6.521   3.782  0.00  0.00    +0.107 A 
ATOM     26  C   UNL     1      -5.732   5.324   4.242  0.00  0.00    +0.029 A 
ATOM     27  C   UNL     1      -5.354   5.199   5.566  0.00  0.00    +0.017 A 
ATOM     28  C   UNL     1      -5.503   6.267   6.432  0.00  0.00    +0.018 A 
ATOM     29  C   UNL     1      -6.025   7.462   5.972  0.00  0.00    +0.017 A 
ATOM     30  C   UNL     1      -6.398   7.589   4.647  0.00  0.00    +0.029 A 
ATOM     31 BR   UNL     1      -4.992   6.094   8.244  0.00  0.00    -0.050 Br
ENDBRANCH  22  25
ENDBRANCH  20  22
ENDBRANCH   3  20
TORSDOF 6
