REMARK  Name = ZINC39596036
REMARK  10 active torsions:
REMARK  status: ('A' for Active; 'I' for Inactive)
REMARK    1  A    between atoms: C_1  and  C_2
REMARK    2  A    between atoms: C_2  and  O_3
REMARK    3  A    between atoms: O_3  and  C_4
REMARK    4  A    between atoms: C_9  and  C_10
REMARK    5  A    between atoms: C_14  and  C_23
REMARK    6  A    between atoms: N_25  and  C_26
REMARK    7  A    between atoms: C_26  and  C_27
REMARK    8  A    between atoms: C_27  and  C_29
REMARK    9  A    between atoms: C_27  and  O_30
REMARK   10  A    between atoms: O_30  and  C_31
REMARK                            x       y       z     vdW  Elec       q    Type
REMARK                         _______ _______ _______ _____ _____    ______ ____
ROOT
ATOM      1  C   UNL     1      -3.759  -0.644   1.260  0.00  0.00    +0.250 C 
ATOM      2  O   UNL     1      -3.719   0.531   1.572  0.00  0.00    -0.270 OA
ATOM      3  N   UNL     1      -4.937  -1.218   0.946  0.00  0.00    -0.296 N 
ATOM      4  C   UNL     1      -5.201  -2.645   0.646  0.00  0.00    +0.121 C 
ATOM      5  C   UNL     1      -6.556  -2.942   1.325  0.00  0.00    +0.100 C 
ATOM      6  C   UNL     1      -7.249  -1.574   1.435  0.00  0.00    -0.004 C 
ATOM      7  C   UNL     1      -6.263  -0.565   0.828  0.00  0.00    +0.115 C 
ATOM      8  C   UNL     1      -7.510  -1.230   2.899  0.00  0.00    -0.010 C 
ATOM      9  C   UNL     1      -8.250   0.108   2.980  0.00  0.00    -0.082 C 
ATOM     10  N   UNL     1      -9.517   0.014   2.244  0.00  0.00    +0.379 N 
ATOM     11  C   UNL     1      -9.253  -0.225   0.821  0.00  0.00    -0.082 C 
ATOM     12  C   UNL     1      -8.556  -1.577   0.648  0.00  0.00    -0.010 C 
ATOM     13  H   UNL     1     -10.064  -0.748   2.616  0.00  0.00    -0.086 HD
ATOM     14  H   UNL     1     -10.030   0.876   2.350  0.00  0.00    -0.086 HD
ENDROOT
BRANCH   1  20
ATOM     15  C   UNL     1      -1.493  -1.188   2.148  0.00  0.00    +0.133 A 
ATOM     16  C   UNL     1      -0.333  -1.947   2.110  0.00  0.00    +0.046 A 
ATOM     17  C   UNL     1      -0.187  -2.942   1.164  0.00  0.00    +0.004 A 
ATOM     18  C   UNL     1      -1.195  -3.190   0.247  0.00  0.00    +0.001 A 
ATOM     19  C   UNL     1      -2.354  -2.446   0.270  0.00  0.00    +0.017 A 
ATOM     20  C   UNL     1      -2.518  -1.440   1.226  0.00  0.00    +0.078 A 
BRANCH  15  21
ATOM     21  O   UNL     1      -1.637  -0.210   3.077  0.00  0.00    -0.491 OA
BRANCH  21  23
ATOM     22  C   UNL     1      -0.895   1.125   4.950  0.00  0.00    +0.048 C 
ATOM     23  C   UNL     1      -0.551  -0.011   3.984  0.00  0.00    +0.226 C 
ENDBRANCH  21  23
ENDBRANCH  15  21
ENDBRANCH   1  20
BRANCH   5  24
ATOM     24  C   UNL     1      -6.339  -3.535   2.694  0.00  0.00    +0.218 C 
ATOM     25  O   UNL     1      -5.367  -3.216   3.345  0.00  0.00    -0.275 OA
ATOM     26  N   UNL     1      -7.225  -4.419   3.194  0.00  0.00    -0.312 N 
ATOM     27  H   UNL     1      -8.002  -4.674   2.673  0.00  0.00    +0.149 HD
BRANCH  26  28
ATOM     28  C   UNL     1      -7.014  -4.995   4.524  0.00  0.00    +0.148 C 
BRANCH  28  29
ATOM     29  C   UNL     1      -8.155  -5.961   4.849  0.00  0.00    +0.187 C 
ATOM     30  C   UNL     1      -7.934  -6.562   6.238  0.00  0.00    +0.053 C 
BRANCH  29  31
ATOM     31  O   UNL     1      -9.397  -5.255   4.827  0.00  0.00    -0.488 OA
BRANCH  31  32
ATOM     32  C   UNL     1     -10.518  -5.984   4.579  0.00  0.00    +0.121 A 
ATOM     33  C   UNL     1     -11.740  -5.347   4.423  0.00  0.00    +0.048 A 
ATOM     34  C   UNL     1     -12.877  -6.089   4.170  0.00  0.00    +0.042 A 
ATOM     35  C   UNL     1     -12.798  -7.468   4.073  0.00  0.00    +0.124 A 
ATOM     36  C   UNL     1     -11.579  -8.105   4.229  0.00  0.00    +0.042 A 
ATOM     37  C   UNL     1     -10.438  -7.364   4.475  0.00  0.00    +0.048 A 
ATOM     38  F   UNL     1     -13.911  -8.192   3.827  0.00  0.00    -0.205 F 
ENDBRANCH  31  32
ENDBRANCH  29  31
ENDBRANCH  28  29
ENDBRANCH  26  28
ENDBRANCH   5  24
TORSDOF 8
