REMARK  Name = ZINC34733769
REMARK  4 active torsions:
REMARK  status: ('A' for Active; 'I' for Inactive)
REMARK    1  A    between atoms: C_1  and  N_2
REMARK    2  A    between atoms: N_2  and  C_3
REMARK    3  A    between atoms: N_13  and  C_14
REMARK    4  A    between atoms: C_14  and  C_15
REMARK                            x       y       z     vdW  Elec       q    Type
REMARK                         _______ _______ _______ _____ _____    ______ ____
ROOT
ATOM      1  C   UNL     1      -1.266   0.463   0.569  0.00  0.00    +0.130 C 
ATOM      2  N   UNL     1       0.002  -0.004   0.002  0.00  0.00    -0.321 N 
ATOM      3  C   UNL     1       1.268   0.348   0.650  0.00  0.00    +0.130 C 
ATOM      4  C   UNL     1       0.004  -0.778  -1.144  0.00  0.00    +0.134 A 
ATOM      5  C   UNL     1       0.043  -0.163  -2.427  0.00  0.00    +0.051 A 
ATOM      6  C   UNL     1       0.085   1.263  -2.758  0.00  0.00    -0.025 A 
ATOM      7  C   UNL     1       0.119   1.587  -4.066  0.00  0.00    -0.004 A 
ATOM      8  S   UNL     1       0.098   0.037  -4.927  0.00  0.00    -0.073 S 
ATOM      9  C   UNL     1       0.043  -1.047  -3.524  0.00  0.00    +0.116 A 
ATOM     10  N   UNL     1       0.005  -2.355  -3.358  0.00  0.00    -0.207 NA
ATOM     11  C   UNL     1      -0.032  -2.873  -2.138  0.00  0.00    +0.218 A 
ATOM     12  N   UNL     1      -0.027  -2.097  -1.061  0.00  0.00    -0.199 NA
ATOM     13  N   UNL     1      -0.071  -4.249  -1.984  0.00  0.00    -0.306 N 
ATOM     14  C   UNL     1       0.163   2.962  -4.660  0.00  0.00    +0.043 C 
ATOM     15  C   UNL     1      -0.211   3.974  -3.568  0.00  0.00    +0.005 C 
ATOM     16  C   UNL     1       0.594   3.653  -2.305  0.00  0.00    +0.005 C 
ATOM     17  C   UNL     1       0.089   2.349  -1.685  0.00  0.00    +0.037 C 
ATOM     18  H   UNL     1      -0.099  -4.637  -1.096  0.00  0.00    +0.149 HD
ENDROOT
BRANCH  13  19
ATOM     19  C   UNL     1      -0.071  -5.118  -3.164  0.00  0.00    +0.178 C 
BRANCH  19  20
ATOM     20  C   UNL     1      -0.117  -6.559  -2.726  0.00  0.00    +0.122 A 
ATOM     21  C   UNL     1      -1.231  -7.284  -2.524  0.00  0.00    +0.046 A 
ATOM     22  C   UNL     1      -0.814  -8.575  -2.124  0.00  0.00    +0.041 A 
ATOM     23  C   UNL     1       0.531  -8.560  -2.106  0.00  0.00    +0.195 A 
ATOM     24  O   UNL     1       0.948  -7.339  -2.477  0.00  0.00    -0.466 OA
ENDBRANCH  19  20
ENDBRANCH  13  19
TORSDOF 2
