REMARK  Name = ZINC49975336
REMARK  8 active torsions:
REMARK  status: ('A' for Active; 'I' for Inactive)
REMARK    1  A    between atoms: C_1  and  C_2
REMARK    2  A    between atoms: C_4  and  C_21
REMARK    3  A    between atoms: C_6  and  N_8
REMARK    4  A    between atoms: N_8  and  C_9
REMARK    5  A    between atoms: N_12  and  C_13
REMARK    6  A    between atoms: C_13  and  C_14
REMARK    7  A    between atoms: N_16  and  C_17
REMARK    8  A    between atoms: C_17  and  C_18
REMARK                            x       y       z     vdW  Elec       q    Type
REMARK                         _______ _______ _______ _____ _____    ______ ____
ROOT
ATOM      1  N   UNL     1       0.050  -2.797   2.393  0.00  0.00    -0.259 N 
ATOM      2  C   UNL     1      -0.049  -4.259   2.385  0.00  0.00    +0.140 C 
ATOM      3  C   UNL     1       0.148  -2.135   3.562  0.00  0.00    +0.307 C 
ATOM      4  O   UNL     1       0.133  -0.919   3.575  0.00  0.00    -0.252 OA
ATOM      5  N   UNL     1       0.264  -2.819   4.718  0.00  0.00    -0.290 N 
ATOM      6  H   UNL     1       0.276  -3.789   4.707  0.00  0.00    +0.151 HD
ENDROOT
BRANCH   1  12
ATOM      7  C   UNL     1       2.213  -1.701  -1.884  0.00  0.00    +0.044 C 
ATOM      8  C   UNL     1       1.078  -1.539  -0.906  0.00  0.00    -0.048 A 
ATOM      9  C   UNL     1       0.028  -0.688  -1.200  0.00  0.00    +0.006 A 
ATOM     10  C   UNL     1      -1.015  -0.537  -0.305  0.00  0.00    -0.048 A 
ATOM     11  C   UNL     1      -1.010  -1.234   0.887  0.00  0.00    +0.027 A 
ATOM     12  C   UNL     1       0.042  -2.089   1.186  0.00  0.00    +0.038 A 
ATOM     13  C   UNL     1       1.085  -2.244   0.282  0.00  0.00    +0.027 A 
ATOM     14  C   UNL     1      -2.157   0.391  -0.630  0.00  0.00    +0.044 C 
ENDBRANCH   1  12
BRANCH   5  15
ATOM     15  C   UNL     1       0.370  -2.099   5.989  0.00  0.00    +0.201 C 
BRANCH  15  16
ATOM     16  C   UNL     1       0.488  -3.089   7.119  0.00  0.00    +0.231 C 
ATOM     17  O   UNL     1       0.483  -4.279   6.885  0.00  0.00    -0.274 OA
ATOM     18  N   UNL     1       0.598  -2.652   8.389  0.00  0.00    -0.303 N 
ATOM     19  H   UNL     1       0.602  -1.700   8.575  0.00  0.00    +0.149 HD
BRANCH  18  20
ATOM     20  C   UNL     1       0.712  -3.614   9.488  0.00  0.00    +0.229 C 
BRANCH  20  21
ATOM     21  C   UNL     1       0.822  -2.873  10.795  0.00  0.00    +0.373 C 
ATOM     22  O   UNL     1       0.807  -1.654  10.808  0.00  0.00    -0.245 OA
ATOM     23  O   UNL     1       0.927  -3.492  11.840  0.00  0.00    -0.245 OA
ENDBRANCH  20  21
ENDBRANCH  18  20
ENDBRANCH  15  16
ENDBRANCH   5  15
TORSDOF 5
