REMARK  Name = ZINC64848212
REMARK  6 active torsions:
REMARK  status: ('A' for Active; 'I' for Inactive)
REMARK    1  A    between atoms: C_1  and  C_2
REMARK    2  A    between atoms: C_7  and  C_8
REMARK    3  A    between atoms: N_18  and  S_21
REMARK    4  A    between atoms: S_21  and  C_24
REMARK    5  A    between atoms: C_27  and  C_30
REMARK    6  A    between atoms: C_30  and  C_32
REMARK                            x       y       z     vdW  Elec       q    Type
REMARK                         _______ _______ _______ _____ _____    ______ ____
ROOT
ATOM      1  C   UNL     1       0.546   1.455   0.038  0.00  0.00    +0.044 C 
ATOM      2  C   UNL     1       0.272  -0.026   0.015  0.00  0.00    -0.045 A 
ATOM      3  C   UNL     1       0.276  -0.711  -1.187  0.00  0.00    +0.005 A 
ATOM      4  C   UNL     1       0.015  -2.068  -1.221  0.00  0.00    +0.025 A 
ATOM      5  C   UNL     1      -0.247  -2.751  -0.043  0.00  0.00    +0.052 A 
ATOM      6  C   UNL     1      -0.229  -2.059   1.172  0.00  0.00    +0.070 A 
ATOM      7  C   UNL     1       0.023  -0.701   1.197  0.00  0.00    -0.022 A 
ATOM      8  C   UNL     1       0.022   0.044   2.507  0.00  0.00    +0.046 C 
ATOM      9  N   UNL     1      -0.434  -2.793   2.350  0.00  0.00    -0.316 N 
ATOM     10  C   UNL     1      -0.648  -2.365   3.618  0.00  0.00    +0.092 A 
ATOM     11  C   UNL     1      -0.816  -3.451   4.406  0.00  0.00    +0.020 A 
ATOM     12  C   UNL     1      -0.692  -4.595   3.587  0.00  0.00    +0.025 A 
ATOM     13  C   UNL     1      -0.451  -4.171   2.342  0.00  0.00    +0.047 A 
ATOM     14  C   UNL     1      -0.208  -4.968   1.085  0.00  0.00    +0.075 C 
ATOM     15  N   UNL     1      -0.543  -4.119  -0.067  0.00  0.00    -0.331 N 
ATOM     16  C   UNL     1       1.262  -5.379   1.008  0.00  0.00    +0.049 C 
ATOM     17  C   UNL     1       1.507  -6.148  -0.294  0.00  0.00    +0.112 C 
ATOM     18  N   UNL     1       0.558  -7.267  -0.367  0.00  0.00    -0.176 NA
ATOM     19  C   UNL     1      -0.877  -6.989  -0.220  0.00  0.00    +0.112 C 
ATOM     20  C   UNL     1      -1.097  -6.211   1.081  0.00  0.00    +0.049 C 
ATOM     21  H   UNL     1      -0.972  -4.508  -0.846  0.00  0.00    +0.147 HD
ENDROOT
BRANCH  18  22
ATOM     22  S   UNL     1       1.096  -8.814  -0.610  0.00  0.00    +0.061 S 
ATOM     23  O   UNL     1       0.012  -9.537  -1.178  0.00  0.00    -0.153 OA
ATOM     24  O   UNL     1       2.360  -8.709  -1.251  0.00  0.00    -0.153 OA
BRANCH  22  25
ATOM     25  C   UNL     1       1.393  -9.518   0.978  0.00  0.00    +0.106 A 
ATOM     26  C   UNL     1       2.640  -9.388   1.565  0.00  0.00    +0.029 A 
ATOM     27  C   UNL     1       2.880  -9.937   2.808  0.00  0.00    +0.013 A 
ATOM     28  C   UNL     1       1.861 -10.624   3.474  0.00  0.00    +0.017 A 
ATOM     29  C   UNL     1       0.604 -10.750   2.873  0.00  0.00    +0.013 A 
ATOM     30  C   UNL     1       0.378 -10.192   1.633  0.00  0.00    +0.029 A 
BRANCH  28  31
ATOM     31  C   UNL     1       2.109 -11.213   4.800  0.00  0.00    +0.160 C 
ATOM     32  O   UNL     1       3.200 -11.102   5.317  0.00  0.00    -0.292 OA
ATOM     33  C   UNL     1       1.008 -11.953   5.514  0.00  0.00    +0.091 C 
ENDBRANCH  28  31
ENDBRANCH  22  25
ENDBRANCH  18  22
TORSDOF 3
