REMARK  Name = ZINC19685637
REMARK  12 active torsions:
REMARK  status: ('A' for Active; 'I' for Inactive)
REMARK    1  A    between atoms: C_1  and  C_2
REMARK    2  A    between atoms: C_2  and  N_3
REMARK    3  A    between atoms: N_3  and  C_4
REMARK    4  A    between atoms: N_3  and  S_10
REMARK    5  A    between atoms: C_4  and  C_5
REMARK    6  A    between atoms: C_5  and  C_7
REMARK    7  A    between atoms: C_5  and  O_9
REMARK    8  A    between atoms: C_7  and  N_8
REMARK    9  A    between atoms: S_10  and  C_13
REMARK   10  A    between atoms: C_14  and  C_21
REMARK   11  A    between atoms: C_16  and  C_20
REMARK   12  A    between atoms: C_18  and  C_19
REMARK                            x       y       z     vdW  Elec       q    Type
REMARK                         _______ _______ _______ _____ _____    ______ ____
ROOT
ATOM      1  N   UNL     1      -0.498   2.436  -1.231  0.00  0.00    -0.174 NA
ENDROOT
BRANCH   1   2
ATOM      2  S   UNL     1      -0.029   1.429  -0.002  0.00  0.00    +0.061 S 
ATOM      3  O   UNL     1      -0.479   0.127  -0.351  0.00  0.00    -0.153 OA
ATOM      4  O   UNL     1       1.336   1.719   0.262  0.00  0.00    -0.153 OA
BRANCH   2   5
ATOM      5  C   UNL     1      -0.932   1.906   1.434  0.00  0.00    +0.111 A 
ATOM      6  C   UNL     1      -2.086   1.228   1.782  0.00  0.00    -0.024 A 
ATOM      7  C   UNL     1      -2.792   1.599   2.911  0.00  0.00    +0.008 A 
ATOM      8  C   UNL     1      -2.349   2.654   3.687  0.00  0.00    -0.050 A 
ATOM      9  C   UNL     1      -1.198   3.334   3.337  0.00  0.00    +0.008 A 
ATOM     10  C   UNL     1      -0.489   2.960   2.210  0.00  0.00    -0.024 A 
ATOM     11  C   UNL     1       0.765   3.702   1.828  0.00  0.00    +0.046 C 
ATOM     12  C   UNL     1      -3.121   3.061   4.916  0.00  0.00    +0.044 C 
ATOM     13  C   UNL     1      -2.572   0.083   0.932  0.00  0.00    +0.046 C 
ENDBRANCH   2   5
ENDBRANCH   1   2
BRANCH   1  15
ATOM     14  C   UNL     1      -2.904   2.726  -1.554  0.00  0.00    +0.022 C 
ATOM     15  C   UNL     1      -1.629   2.070  -2.087  0.00  0.00    +0.106 C 
ENDBRANCH   1  15
BRANCH   1  16
ATOM     16  C   UNL     1       0.220   3.692  -1.462  0.00  0.00    +0.138 C 
BRANCH  16  17
ATOM     17  C   UNL     1       1.289   3.478  -2.535  0.00  0.00    +0.113 C 
BRANCH  17  18
ATOM     18  O   UNL     1       2.210   2.477  -2.097  0.00  0.00    -0.392 OA
ATOM     19  H   UNL     1       3.054   2.187  -2.740  0.00  0.00    +0.210 HD
ENDBRANCH  17  18
BRANCH  17  20
ATOM     20  C   UNL     1       2.039   4.790  -2.777  0.00  0.00    -0.053 C 
BRANCH  20  21
ATOM     21  N   UNL     1       2.983   4.617  -3.889  0.00  0.00    +0.380 N 
ATOM     22  H   UNL     1       3.522   5.560  -4.063  0.00  0.00    -0.090 HD
ATOM     23  H   UNL     1       2.431   4.337  -4.799  0.00  0.00    -0.090 HD
ATOM     24  H   UNL     1       3.703   3.824  -3.639  0.00  0.00    -0.090 HD
ENDBRANCH  20  21
ENDBRANCH  17  20
ENDBRANCH  16  17
ENDBRANCH   1  16
TORSDOF 8
