REMARK  Name = ZINC19075315
REMARK  10 active torsions:
REMARK  status: ('A' for Active; 'I' for Inactive)
REMARK    1  A    between atoms: C_1  and  C_2
REMARK    2  A    between atoms: N_9  and  C_10
REMARK    3  A    between atoms: C_10  and  C_11
REMARK    4  A    between atoms: C_10  and  C_12
REMARK    5  A    between atoms: C_10  and  C_13
REMARK    6  A    between atoms: C_17  and  C_19
REMARK    7  A    between atoms: C_19  and  C_20
REMARK    8  A    between atoms: C_19  and  C_21
REMARK    9  A    between atoms: C_19  and  N_22
REMARK   10  A    between atoms: C_29  and  C_30
REMARK                            x       y       z     vdW  Elec       q    Type
REMARK                         _______ _______ _______ _____ _____    ______ ____
ROOT
ATOM      1  C   UNL     1      -1.637  -4.429  -0.094  0.00  0.00    -0.024 A 
ATOM      2  C   UNL     1      -0.269  -4.623  -0.080  0.00  0.00    +0.006 A 
ATOM      3  C   UNL     1       0.247  -5.902   0.017  0.00  0.00    +0.001 A 
ATOM      4  C   UNL     1      -0.606  -6.988   0.091  0.00  0.00    +0.006 A 
ATOM      5  C   UNL     1      -1.974  -6.794   0.073  0.00  0.00    -0.024 A 
ATOM      6  C   UNL     1      -2.490  -5.515  -0.020  0.00  0.00    +0.011 A 
ENDROOT
BRANCH   1   7
ATOM      7  C   UNL     1      -2.200  -3.035  -0.195  0.00  0.00    +0.056 C 
ATOM      8  C   UNL     1      -2.259  -2.614  -1.665  0.00  0.00    +0.036 C 
ATOM      9  C   UNL     1      -1.302  -2.066   0.577  0.00  0.00    +0.036 C 
BRANCH   7  18
ATOM     10  C   UNL     1      -6.032   0.616   0.441  0.00  0.00    +0.086 C 
ATOM     11  C   UNL     1      -6.341  -0.769   0.948  0.00  0.00    +0.114 A 
ATOM     12  N   UNL     1      -7.451  -1.139   1.524  0.00  0.00    -0.240 NA
ATOM     13  C   UNL     1      -7.373  -2.439   1.849  0.00  0.00    +0.131 A 
ATOM     14  C   UNL     1      -6.171  -2.901   1.464  0.00  0.00    +0.117 A 
ATOM     15  N   UNL     1      -5.505  -1.844   0.888  0.00  0.00    -0.258 N 
ATOM     16  C   UNL     1      -4.264  -1.867   0.364  0.00  0.00    +0.320 C 
ATOM     17  O   UNL     1      -3.789  -0.858  -0.117  0.00  0.00    -0.249 OA
ATOM     18  N   UNL     1      -3.549  -3.010   0.374  0.00  0.00    -0.288 N 
ATOM     19  H   UNL     1      -3.928  -3.816   0.759  0.00  0.00    +0.151 HD
ENDBRANCH   7  18
ENDBRANCH   1   7
BRANCH   5  20
ATOM     20  C   UNL     1      -2.904  -7.977   0.153  0.00  0.00    +0.056 C 
ATOM     21  C   UNL     1      -3.331  -8.193   1.607  0.00  0.00    +0.036 C 
ATOM     22  C   UNL     1      -4.141  -7.713  -0.708  0.00  0.00    +0.036 C 
BRANCH  20  23
ATOM     23  N   UNL     1      -2.215  -9.174  -0.336  0.00  0.00    -0.288 N 
ATOM     24  C   UNL     1      -2.851 -10.362  -0.343  0.00  0.00    +0.320 C 
ATOM     25  O   UNL     1      -3.995 -10.441   0.058  0.00  0.00    -0.249 OA
ATOM     26  N   UNL     1      -2.217 -11.463  -0.793  0.00  0.00    -0.258 N 
ATOM     27  C   UNL     1      -0.932 -11.527  -1.279  0.00  0.00    +0.117 A 
ATOM     28  C   UNL     1      -0.706 -12.810  -1.612  0.00  0.00    +0.131 A 
ATOM     29  N   UNL     1      -1.817 -13.516  -1.349  0.00  0.00    -0.240 NA
ATOM     30  C   UNL     1      -2.729 -12.725  -0.859  0.00  0.00    +0.114 A 
ATOM     31  C   UNL     1      -4.116 -13.135  -0.436  0.00  0.00    +0.086 C 
ATOM     32  H   UNL     1      -1.302  -9.111  -0.656  0.00  0.00    +0.151 HD
ENDBRANCH  20  23
ENDBRANCH   5  20
TORSDOF 4
