REMARK  Name = ZINC10490864
REMARK  7 active torsions:
REMARK  status: ('A' for Active; 'I' for Inactive)
REMARK    1  A    between atoms: C_9  and  C_12
REMARK    2  A    between atoms: C_10  and  O_11
REMARK    3  A    between atoms: C_12  and  O_14
REMARK    4  A    between atoms: O_14  and  C_15
REMARK    5  A    between atoms: C_15  and  C_16
REMARK    6  A    between atoms: N_18  and  N_19
REMARK    7  A    between atoms: C_20  and  C_22
REMARK                            x       y       z     vdW  Elec       q    Type
REMARK                         _______ _______ _______ _____ _____    ______ ____
ROOT
ATOM      1  C   UNL     1       6.086  -6.207  -0.084  0.00  0.00    +0.267 C 
ATOM      2  O   UNL     1       4.971  -6.684  -0.076  0.00  0.00    -0.271 OA
ATOM      3  N   UNL     1       7.164  -7.014  -0.098  0.00  0.00    -0.231 N 
ATOM      4  H   UNL     1       8.056  -6.633  -0.105  0.00  0.00    +0.173 HD
ENDROOT
BRANCH   3   5
ATOM      5  N   UNL     1       6.998  -8.406  -0.103  0.00  0.00    -0.231 N 
ATOM      6  C   UNL     1       8.077  -9.213  -0.116  0.00  0.00    +0.273 C 
ATOM      7  O   UNL     1       9.192  -8.736  -0.124  0.00  0.00    -0.270 OA
ATOM      8  H   UNL     1       6.106  -8.787  -0.096  0.00  0.00    +0.173 HD
BRANCH   6   9
ATOM      9  C   UNL     1       7.897 -10.710  -0.121  0.00  0.00    +0.297 C 
ATOM     10  C   UNL     1       7.255 -11.158   1.198  0.00  0.00    +0.283 C 
ATOM     11  O   UNL     1       7.113 -12.583   1.166  0.00  0.00    -0.484 OA
ATOM     12  C   UNL     1       8.192 -13.296   0.743  0.00  0.00    +0.162 A 
ATOM     13  C   UNL     1       8.263 -14.652   1.022  0.00  0.00    +0.049 A 
ATOM     14  C   UNL     1       9.351 -15.391   0.597  0.00  0.00    +0.004 A 
ATOM     15  C   UNL     1      10.372 -14.779  -0.108  0.00  0.00    +0.004 A 
ATOM     16  C   UNL     1      10.307 -13.427  -0.388  0.00  0.00    +0.049 A 
ATOM     17  C   UNL     1       9.219 -12.680   0.037  0.00  0.00    +0.163 A 
ATOM     18  O   UNL     1       9.173 -11.348  -0.240  0.00  0.00    -0.472 OA
ENDBRANCH   6   9
ENDBRANCH   3   5
BRANCH   1  19
ATOM     19  C   UNL     1       6.265  -4.710  -0.080  0.00  0.00    +0.329 C 
BRANCH  19  20
ATOM     20  O   UNL     1       4.984  -4.077  -0.065  0.00  0.00    -0.452 OA
BRANCH  20  21
ATOM     21  C   UNL     1       4.967  -2.730  -0.059  0.00  0.00    +0.343 C 
ATOM     22  O   UNL     1       6.012  -2.109  -0.066  0.00  0.00    -0.245 OA
BRANCH  21  31
ATOM     23  C   UNL     1      -0.016   1.358   0.009  0.00  0.00    +0.001 A 
ATOM     24  C   UNL     1       1.168   2.091   0.002  0.00  0.00    +0.001 A 
ATOM     25  C   UNL     1       2.378   1.465  -0.013  0.00  0.00    +0.012 A 
ATOM     26  C   UNL     1       2.435   0.062  -0.021  0.00  0.00    +0.024 A 
ATOM     27  C   UNL     1       1.231  -0.684  -0.013  0.00  0.00    -0.014 A 
ATOM     28  C   UNL     1       0.002  -0.004   0.002  0.00  0.00    +0.008 A 
ATOM     29  C   UNL     1       1.281  -2.091  -0.021  0.00  0.00    +0.009 A 
ATOM     30  C   UNL     1       2.476  -2.732  -0.035  0.00  0.00    +0.019 A 
ATOM     31  C   UNL     1       3.684  -2.009  -0.043  0.00  0.00    +0.101 A 
ATOM     32  C   UNL     1       3.671  -0.616  -0.037  0.00  0.00    +0.138 A 
BRANCH  32  33
ATOM     33  O   UNL     1       4.833   0.080  -0.045  0.00  0.00    -0.505 OA
ATOM     34  H   UNL     1       5.179   0.277   0.836  0.00  0.00    +0.292 HD
ENDBRANCH  32  33
ENDBRANCH  21  31
ENDBRANCH  20  21
ENDBRANCH  19  20
ENDBRANCH   1  19
TORSDOF 7
