REMARK  Name = ZINC36071852
REMARK  13 active torsions:
REMARK  status: ('A' for Active; 'I' for Inactive)
REMARK    1  A    between atoms: C_1  and  C_2
REMARK    2  A    between atoms: C_2  and  O_3
REMARK    3  A    between atoms: O_3  and  C_4
REMARK    4  A    between atoms: C_4  and  C_6
REMARK    5  A    between atoms: N_9  and  C_12
REMARK    6  A    between atoms: C_14  and  C_15
REMARK    7  A    between atoms: C_20  and  C_36
REMARK    8  A    between atoms: C_21  and  C_30
REMARK    9  A    between atoms: C_22  and  C_25
REMARK   10  A    between atoms: C_30  and  O_32
REMARK   11  A    between atoms: O_32  and  C_33
REMARK   12  A    between atoms: C_33  and  C_34
REMARK   13  A    between atoms: C_33  and  C_35
REMARK                            x       y       z     vdW  Elec       q    Type
REMARK                         _______ _______ _______ _____ _____    ______ ____
ROOT
ATOM      1  C   UNL     1      -6.316  -7.013  -2.623  0.00  0.00    +0.048 C 
ATOM      2  C   UNL     1      -6.285  -8.348  -2.419  0.00  0.00    +0.072 C 
ATOM      3  S   UNL     1      -7.361  -8.943  -3.710  0.00  0.00    -0.060 S 
ATOM      4  C   UNL     1      -7.766  -7.470  -4.405  0.00  0.00    +0.166 C 
ATOM      5  N   UNL     1      -8.542  -7.172  -5.427  0.00  0.00    -0.230 NA
ATOM      6  C   UNL     1      -8.771  -5.946  -5.868  0.00  0.00    +0.053 C 
ATOM      7  C   UNL     1      -8.180  -4.858  -5.254  0.00  0.00    +0.083 C 
ATOM      8  C   UNL     1      -7.274  -5.123  -4.072  0.00  0.00    +0.150 C 
ATOM      9  N   UNL     1      -7.095  -6.541  -3.660  0.00  0.00    -0.267 N 
ATOM     10  C   UNL     1      -9.682  -5.734  -7.050  0.00  0.00    +0.066 C 
ENDROOT
BRANCH   8  11
ATOM     11  C   UNL     1      -7.822  -4.368  -2.889  0.00  0.00    -0.015 A 
ATOM     12  C   UNL     1      -7.188  -3.229  -2.428  0.00  0.00    +0.013 A 
ATOM     13  C   UNL     1      -7.707  -2.574  -1.361  0.00  0.00    +0.045 A 
ATOM     14  S   UNL     1      -9.136  -3.571  -0.974  0.00  0.00    -0.105 S 
ATOM     15  C   UNL     1      -8.948  -4.791  -2.264  0.00  0.00    +0.051 A 
ENDBRANCH   8  11
BRANCH   1  18
ATOM     16  C   UNL     1      -4.684  -6.585  -0.860  0.00  0.00    +0.241 C 
ATOM     17  O   UNL     1      -4.422  -7.914  -0.822  0.00  0.00    -0.271 OA
ATOM     18  C   UNL     1      -5.551  -6.095  -1.767  0.00  0.00    +0.091 C 
BRANCH  16  22
ATOM     19  C   UNL     1      -3.334  -4.641   2.542  0.00  0.00    +0.101 C 
ATOM     20  C   UNL     1      -2.784  -5.998   2.096  0.00  0.00    +0.033 C 
ATOM     21  C   UNL     1      -2.728  -6.045   0.566  0.00  0.00    +0.109 C 
ATOM     22  N   UNL     1      -4.061  -5.730   0.035  0.00  0.00    -0.298 N 
ATOM     23  C   UNL     1      -4.721  -4.491   0.470  0.00  0.00    +0.109 C 
ATOM     24  C   UNL     1      -4.754  -4.462   2.001  0.00  0.00    +0.033 C 
BRANCH  19  25
ATOM     25  C   UNL     1      -3.358  -4.579   4.047  0.00  0.00    +0.310 C 
ATOM     26  O   UNL     1      -4.404  -4.408   4.628  0.00  0.00    -0.251 OA
BRANCH  25  27
ATOM     27  O   UNL     1      -2.218  -4.712   4.743  0.00  0.00    -0.465 OA
BRANCH  27  29
ATOM     28  C   UNL     1      -0.924  -4.814   6.782  0.00  0.00    +0.048 C 
ATOM     29  C   UNL     1      -2.315  -4.643   6.167  0.00  0.00    +0.229 C 
ENDBRANCH  27  29
ENDBRANCH  25  27
ENDBRANCH  19  25
ENDBRANCH  16  22
ENDBRANCH   1  18
BRANCH   7  30
ATOM     30  C   UNL     1      -8.412  -3.555  -5.710  0.00  0.00    +0.339 C 
ATOM     31  O   UNL     1      -9.146  -3.365  -6.664  0.00  0.00    -0.245 OA
BRANCH  30  32
ATOM     32  O   UNL     1      -7.823  -2.508  -5.092  0.00  0.00    -0.459 OA
BRANCH  32  33
ATOM     33  C   UNL     1      -8.104  -1.206  -5.610  0.00  0.00    +0.171 C 
ATOM     34  C   UNL     1      -8.033  -0.180  -4.478  0.00  0.00    +0.052 C 
ATOM     35  C   UNL     1      -7.075  -0.852  -6.685  0.00  0.00    +0.052 C 
ENDBRANCH  32  33
ENDBRANCH  30  32
ENDBRANCH   7  30
TORSDOF 9
