REMARK  Name = ZINC12941143
REMARK  10 active torsions:
REMARK  status: ('A' for Active; 'I' for Inactive)
REMARK    1  A    between atoms: C_1  and  C_2
REMARK    2  A    between atoms: C_6  and  C_29
REMARK    3  A    between atoms: C_7  and  N_8
REMARK    4  A    between atoms: C_9  and  C_11
REMARK    5  A    between atoms: C_11  and  N_12
REMARK    6  A    between atoms: N_12  and  C_13
REMARK    7  A    between atoms: N_12  and  C_14
REMARK    8  A    between atoms: C_14  and  C_15
REMARK    9  A    between atoms: N_17  and  C_18
REMARK   10  A    between atoms: C_19  and  C_26
REMARK                            x       y       z     vdW  Elec       q    Type
REMARK                         _______ _______ _______ _____ _____    ______ ____
ROOT
ATOM      1  C   UNL     1      -0.505  -0.293   7.265  0.00  0.00    +0.019 C 
ENDROOT
BRANCH   1   2
ATOM      2  C   UNL     1      -0.613  -1.305   8.376  0.00  0.00    +0.201 C 
ATOM      3  O   UNL     1      -0.769  -2.479   8.113  0.00  0.00    -0.278 OA
ATOM      4  N   UNL     1      -0.536  -0.906   9.661  0.00  0.00    -0.281 N 
ATOM      5  H   UNL     1      -0.411   0.032   9.871  0.00  0.00    +0.155 HD
BRANCH   4   6
ATOM      6  C   UNL     1      -0.635  -1.838  10.683  0.00  0.00    +0.084 A 
ATOM      7  C   UNL     1      -0.585  -1.613  12.046  0.00  0.00    +0.068 A 
ATOM      8  C   UNL     1      -0.716  -2.776  12.922  0.00  0.00    -0.023 A 
ATOM      9  C   UNL     1      -0.871  -3.941  12.268  0.00  0.00    -0.004 A 
ATOM     10  S   UNL     1      -0.852  -3.496  10.550  0.00  0.00    -0.077 S 
ATOM     11  C   UNL     1      -0.997  -5.104  13.215  0.00  0.00    +0.043 C 
ATOM     12  C   UNL     1      -0.471  -4.567  14.564  0.00  0.00    +0.010 C 
ATOM     13  C   UNL     1      -0.730  -3.054  14.424  0.00  0.00    +0.037 C 
BRANCH   7  14
ATOM     14  C   UNL     1      -0.406  -0.264  12.591  0.00  0.00    +0.244 C 
ATOM     15  O   UNL     1      -1.378   0.427  12.835  0.00  0.00    -0.270 OA
ATOM     16  N   UNL     1       0.834   0.211  12.822  0.00  0.00    -0.325 N 
ATOM     17  H   UNL     1       1.608  -0.340  12.628  0.00  0.00    +0.145 HD
ATOM     18  H   UNL     1       0.952   1.104  13.183  0.00  0.00    +0.145 HD
ENDBRANCH   7  14
ENDBRANCH   4   6
ENDBRANCH   1   2
BRANCH   1  19
ATOM     19  N   UNL     1      -0.618  -0.974   5.969  0.00  0.00    +0.389 N 
ATOM     20  C   UNL     1      -1.961  -1.554   5.836  0.00  0.00    -0.095 C 
ATOM     21  H   UNL     1       0.072  -1.708   5.913  0.00  0.00    -0.081 HD
BRANCH  19  22
ATOM     22  C   UNL     1      -0.394  -0.007   4.886  0.00  0.00    +0.019 C 
BRANCH  22  24
ATOM     23  N   UNL     1      -0.198  -0.037   2.420  0.00  0.00    -0.287 N 
ATOM     24  C   UNL     1      -0.388  -0.727   3.562  0.00  0.00    +0.201 C 
ATOM     25  O   UNL     1      -0.555  -1.928   3.524  0.00  0.00    -0.278 OA
ATOM     26  H   UNL     1      -0.117   0.929   2.445  0.00  0.00    +0.155 HD
BRANCH  23  33
ATOM     27  C   UNL     1       1.718  -2.126   2.165  0.00  0.00    +0.045 C 
ATOM     28  C   UNL     1       0.803  -1.740   1.031  0.00  0.00    -0.029 A 
ATOM     29  C   UNL     1       0.876  -2.411  -0.174  0.00  0.00    +0.005 A 
ATOM     30  C   UNL     1       0.037  -2.058  -1.215  0.00  0.00    +0.001 A 
ATOM     31  C   UNL     1      -0.877  -1.033  -1.054  0.00  0.00    +0.005 A 
ATOM     32  C   UNL     1      -0.955  -0.359   0.149  0.00  0.00    -0.029 A 
ATOM     33  C   UNL     1      -0.118  -0.715   1.198  0.00  0.00    +0.039 A 
ATOM     34  C   UNL     1      -1.951   0.759   0.324  0.00  0.00    +0.045 C 
ENDBRANCH  23  33
ENDBRANCH  22  24
ENDBRANCH  19  22
ENDBRANCH   1  19
TORSDOF 7
