REMARK  Name = ZINC36630025
REMARK  2 active torsions:
REMARK  status: ('A' for Active; 'I' for Inactive)
REMARK    1  A    between atoms: C_9  and  C_12
REMARK    2  A    between atoms: C_18  and  C_20
REMARK                            x       y       z     vdW  Elec       q    Type
REMARK                         _______ _______ _______ _____ _____    ______ ____
ROOT
ATOM      1  C   UNL     1       4.898  -2.639  -0.050  0.00  0.00    +0.265 C 
ATOM      2  O   UNL     1       5.739  -2.006   0.552  0.00  0.00    -0.271 OA
ATOM      3  N   UNL     1       5.136  -3.921  -0.391  0.00  0.00    -0.235 N 
ATOM      4  C   UNL     1       6.344  -4.516  -0.054  0.00  0.00    +0.315 A 
ATOM      5  N   UNL     1       7.330  -3.952   0.596  0.00  0.00    -0.092 NA
ATOM      6  N   UNL     1       8.292  -4.795   0.734  0.00  0.00    -0.106 NA
ATOM      7  C   UNL     1       7.956  -5.934   0.175  0.00  0.00    +0.252 A 
ATOM      8  O   UNL     1       6.713  -5.782  -0.331  0.00  0.00    -0.405 OA
ATOM      9  H   UNL     1       4.464  -4.428  -0.873  0.00  0.00    +0.159 HD
ENDROOT
BRANCH   1  18
ATOM     10  C   UNL     1      -0.017   1.378   0.010  0.00  0.00    +0.004 A 
ATOM     11  C   UNL     1       1.170   2.088   0.002  0.00  0.00    +0.004 A 
ATOM     12  C   UNL     1       2.378   1.418  -0.012  0.00  0.00    +0.049 A 
ATOM     13  C   UNL     1       2.404   0.031  -0.019  0.00  0.00    +0.163 A 
ATOM     14  C   UNL     1       1.212  -0.683  -0.014  0.00  0.00    +0.162 A 
ATOM     15  C   UNL     1       0.002  -0.004   0.002  0.00  0.00    +0.049 A 
ATOM     16  O   UNL     1       1.214  -2.043  -0.029  0.00  0.00    -0.484 OA
ATOM     17  C   UNL     1       2.441  -2.689   0.331  0.00  0.00    +0.283 C 
ATOM     18  C   UNL     1       3.587  -1.993  -0.416  0.00  0.00    +0.296 C 
ATOM     19  O   UNL     1       3.602  -0.615  -0.029  0.00  0.00    -0.472 OA
ENDBRANCH   1  18
BRANCH   7  20
ATOM     20  C   UNL     1       8.781  -7.157   0.116  0.00  0.00    +0.065 A 
ATOM     21  C   UNL     1      10.093  -7.200   0.705  0.00  0.00    +0.042 A 
ATOM     22  C   UNL     1      10.795  -8.350   0.616  0.00  0.00    +0.080 A 
ATOM     23  S   UNL     1       9.687  -9.422  -0.280  0.00  0.00    -0.064 S 
ATOM     24  C   UNL     1       8.324  -8.293  -0.497  0.00  0.00    +0.092 A 
ATOM     25 CL   UNL     1       6.802  -8.565  -1.286  0.00  0.00    -0.075 Cl
ATOM     26 CL   UNL     1      12.384  -8.699   1.223  0.00  0.00    -0.076 Cl
ENDBRANCH   7  20
TORSDOF 2
