REMARK  Name = ZINC39696685
REMARK  8 active torsions:
REMARK  status: ('A' for Active; 'I' for Inactive)
REMARK    1  A    between atoms: C_1  and  C_2
REMARK    2  A    between atoms: C_2  and  C_3
REMARK    3  A    between atoms: C_3  and  C_5
REMARK    4  A    between atoms: C_3  and  C_6
REMARK    5  A    between atoms: C_10  and  C_19
REMARK    6  A    between atoms: N_21  and  C_22
REMARK    7  A    between atoms: C_22  and  C_23
REMARK    8  A    between atoms: N_26  and  C_30
REMARK                            x       y       z     vdW  Elec       q    Type
REMARK                         _______ _______ _______ _____ _____    ______ ____
ROOT
ATOM      1  C   UNL     1       0.814  -2.158  -1.185  0.00  0.00    +0.218 C 
ATOM      2  O   UNL     1       0.434  -2.792  -0.224  0.00  0.00    -0.275 OA
ATOM      3  N   UNL     1       1.452  -2.782  -2.196  0.00  0.00    -0.300 N 
ATOM      4  C   UNL     1       1.991  -2.181  -3.438  0.00  0.00    +0.121 C 
ATOM      5  C   UNL     1       3.329  -2.915  -3.678  0.00  0.00    +0.100 C 
ATOM      6  C   UNL     1       3.179  -4.256  -2.940  0.00  0.00    -0.004 C 
ATOM      7  C   UNL     1       1.779  -4.223  -2.311  0.00  0.00    +0.115 C 
ATOM      8  C   UNL     1       4.238  -4.379  -1.848  0.00  0.00    -0.010 C 
ATOM      9  C   UNL     1       4.105  -5.744  -1.166  0.00  0.00    -0.082 C 
ATOM     10  N   UNL     1       4.273  -6.809  -2.162  0.00  0.00    +0.379 N 
ATOM     11  C   UNL     1       3.196  -6.739  -3.157  0.00  0.00    -0.082 C 
ATOM     12  C   UNL     1       3.291  -5.417  -3.923  0.00  0.00    -0.010 C 
ATOM     13  H   UNL     1       5.164  -6.698  -2.624  0.00  0.00    -0.086 HD
ATOM     14  H   UNL     1       4.246  -7.706  -1.701  0.00  0.00    -0.086 HD
ENDROOT
BRANCH   5  15
ATOM     15  C   UNL     1       3.544  -3.147  -5.152  0.00  0.00    +0.218 C 
ATOM     16  O   UNL     1       2.591  -3.304  -5.886  0.00  0.00    -0.275 OA
ATOM     17  N   UNL     1       4.794  -3.179  -5.654  0.00  0.00    -0.313 N 
ATOM     18  H   UNL     1       5.556  -3.053  -5.067  0.00  0.00    +0.149 HD
BRANCH  17  19
ATOM     19  C   UNL     1       5.003  -3.404  -7.086  0.00  0.00    +0.137 C 
BRANCH  19  20
ATOM     20  C   UNL     1       6.502  -3.394  -7.391  0.00  0.00    +0.149 C 
ATOM     21  C   UNL     1       6.717  -3.506  -8.903  0.00  0.00    +0.117 C 
ATOM     22  N   UNL     1       8.159  -3.574  -9.183  0.00  0.00    -0.301 NA
ATOM     23  C   UNL     1       8.769  -4.724  -8.501  0.00  0.00    +0.112 C 
ATOM     24  C   UNL     1       8.533  -4.600  -6.993  0.00  0.00    +0.175 C 
ATOM     25  O   UNL     1       7.129  -4.503  -6.741  0.00  0.00    -0.372 OA
ATOM     26  C   UNL     1       8.412  -3.625 -10.630  0.00  0.00    +0.105 C 
ENDBRANCH  19  20
ENDBRANCH  17  19
ENDBRANCH   5  15
BRANCH   1  27
ATOM     27  C   UNL     1       0.572  -0.672  -1.251  0.00  0.00    +0.072 C 
ATOM     28  C   UNL     1      -0.277  -0.347  -2.481  0.00  0.00    +0.017 C 
BRANCH  27  30
ATOM     29  C   UNL     1      -0.300   1.305   0.004  0.00  0.00    +0.004 C 
ATOM     30  C   UNL     1      -0.165  -0.219   0.011  0.00  0.00    +0.009 C 
ENDBRANCH  27  30
ENDBRANCH   1  27
TORSDOF 5
