REMARK  Name = ZINC39711659
REMARK  11 active torsions:
REMARK  status: ('A' for Active; 'I' for Inactive)
REMARK    1  A    between atoms: C_1  and  O_2
REMARK    2  A    between atoms: O_2  and  C_3
REMARK    3  A    between atoms: C_3  and  C_4
REMARK    4  A    between atoms: C_4  and  N_5
REMARK    5  A    between atoms: C_6  and  C_10
REMARK    6  A    between atoms: C_10  and  C_12
REMARK    7  A    between atoms: C_10  and  N_27
REMARK    8  A    between atoms: N_27  and  C_28
REMARK    9  A    between atoms: N_27  and  C_35
REMARK   10  A    between atoms: C_28  and  C_29
REMARK   11  A    between atoms: C_35  and  C_36
REMARK                            x       y       z     vdW  Elec       q    Type
REMARK                         _______ _______ _______ _____ _____    ______ ____
ROOT
ATOM      1  C   UNL     1       4.321  -2.244   1.905  0.00  0.00    +0.019 C 
ENDROOT
BRANCH   1   2
ATOM      2  C   UNL     1       4.333  -3.522   1.065  0.00  0.00    +0.092 C 
ATOM      3  C   UNL     1       2.934  -3.733   0.519  0.00  0.00    -0.006 C 
ATOM      4  C   UNL     1       2.311  -4.901   0.831  0.00  0.00    -0.003 A 
ATOM      5  C   UNL     1       0.959  -5.181   0.344  0.00  0.00    +0.059 A 
ATOM      6  C   UNL     1       0.364  -6.356   0.674  0.00  0.00    +0.167 A 
ATOM      7  C   UNL     1       1.026  -7.311   1.476  0.00  0.00    +0.168 A 
ATOM      8  C   UNL     1       2.300  -7.096   1.958  0.00  0.00    +0.073 A 
ATOM      9  C   UNL     1       2.987  -5.910   1.667  0.00  0.00    +0.044 A 
ATOM     10  N   UNL     1       4.219  -5.721   2.145  0.00  0.00    -0.284 N 
ATOM     11  C   UNL     1       4.922  -4.628   1.911  0.00  0.00    +0.223 C 
ATOM     12  O   UNL     1       6.042  -4.512   2.374  0.00  0.00    -0.275 OA
ATOM     13  O   UNL     1       0.194  -8.380   1.639  0.00  0.00    -0.453 OA
ATOM     14  C   UNL     1      -1.120  -7.906   1.294  0.00  0.00    +0.466 C 
ATOM     15  O   UNL     1      -0.871  -6.847   0.352  0.00  0.00    -0.453 OA
ATOM     16  H   UNL     1       4.616  -6.419   2.690  0.00  0.00    +0.155 HD
ENDBRANCH   1   2
BRANCH   1  18
ATOM     17  N   UNL     1       2.509  -1.993   3.683  0.00  0.00    -0.229 N 
ATOM     18  C   UNL     1       3.663  -2.521   3.232  0.00  0.00    +0.139 A 
ATOM     19  N   UNL     1       4.101  -3.323   4.171  0.00  0.00    -0.115 NA
ATOM     20  N   UNL     1       3.261  -3.289   5.148  0.00  0.00    -0.023 NA
ATOM     21  N   UNL     1       2.301  -2.483   4.858  0.00  0.00    -0.044 NA
BRANCH  17  22
ATOM     22  C   UNL     1       1.654  -1.038   2.974  0.00  0.00    +0.175 C 
BRANCH  22  23
ATOM     23  C   UNL     1       2.092   0.388   3.313  0.00  0.00    +0.183 C 
BRANCH  23  25
ATOM     24  C   UNL     1       1.585   2.689   2.872  0.00  0.00    +0.194 C 
ATOM     25  O   UNL     1       1.258   1.320   2.622  0.00  0.00    -0.381 OA
ENDBRANCH  23  25
ENDBRANCH  22  23
ENDBRANCH  17  22
ENDBRANCH   1  18
BRANCH   1  26
ATOM     26  N   UNL     1       5.701  -1.792   2.128  0.00  0.00    +0.394 N 
ATOM     27  H   UNL     1       6.188  -2.467   2.699  0.00  0.00    -0.080 HD
BRANCH  26  28
ATOM     28  C   UNL     1       6.387  -1.657   0.836  0.00  0.00    -0.041 C 
BRANCH  28  29
ATOM     29  C   UNL     1       7.206  -2.893   0.571  0.00  0.00    -0.064 A 
ATOM     30  C   UNL     1       8.214  -3.255   1.445  0.00  0.00    +0.002 A 
ATOM     31  C   UNL     1       8.966  -4.389   1.202  0.00  0.00    +0.000 A 
ATOM     32  C   UNL     1       8.710  -5.162   0.085  0.00  0.00    +0.000 A 
ATOM     33  C   UNL     1       7.702  -4.800  -0.789  0.00  0.00    +0.000 A 
ATOM     34  C   UNL     1       6.947  -3.668  -0.544  0.00  0.00    +0.002 A 
ENDBRANCH  28  29
ENDBRANCH  26  28
BRANCH  26  35
ATOM     35  C   UNL     1       5.686  -0.492   2.813  0.00  0.00    -0.002 C 
BRANCH  35  36
ATOM     36  C   UNL     1       5.582  -0.709   4.301  0.00  0.00    +0.089 A 
ATOM     37  C   UNL     1       6.605  -0.984   5.129  0.00  0.00    +0.042 A 
ATOM     38  C   UNL     1       6.059  -1.109   6.427  0.00  0.00    +0.041 A 
ATOM     39  C   UNL     1       4.734  -0.903   6.314  0.00  0.00    +0.195 A 
ATOM     40  O   UNL     1       4.452  -0.656   5.025  0.00  0.00    -0.470 OA
ENDBRANCH  35  36
ENDBRANCH  26  35
ENDBRANCH   1  26
TORSDOF 10
