REMARK  Name = ZINC54060580
REMARK  4 active torsions:
REMARK  status: ('A' for Active; 'I' for Inactive)
REMARK    1  A    between atoms: C_1  and  C_2
REMARK    2  A    between atoms: C_5  and  N_8
REMARK    3  A    between atoms: N_13  and  C_14
REMARK    4  A    between atoms: C_14  and  C_15
REMARK                            x       y       z     vdW  Elec       q    Type
REMARK                         _______ _______ _______ _____ _____    ______ ____
ROOT
ATOM      1  C   UNL     1       2.829  -4.937   3.913  0.00  0.00    -0.014 A 
ATOM      2  C   UNL     1       4.158  -4.575   3.728  0.00  0.00    +0.010 A 
ATOM      3  C   UNL     1       4.823  -3.952   4.768  0.00  0.00    +0.042 A 
ATOM      4  C   UNL     1       4.143  -3.709   5.958  0.00  0.00    +0.099 A 
ATOM      5  N   UNL     1       2.876  -4.070   6.095  0.00  0.00    -0.349 N 
ATOM      6  C   UNL     1       2.215  -4.661   5.118  0.00  0.00    +0.089 A 
ATOM      7  N   UNL     1       4.799  -3.084   7.012  0.00  0.00    -0.312 N 
ATOM      8  C   UNL     1       6.239  -2.786   6.947  0.00  0.00    +0.111 C 
ATOM      9  C   UNL     1       6.406  -1.268   6.977  0.00  0.00    +0.054 C 
ATOM     10  C   UNL     1       5.573  -0.658   8.073  0.00  0.00    -0.041 A 
ATOM     11  C   UNL     1       5.919   0.614   8.514  0.00  0.00    +0.004 A 
ATOM     12  C   UNL     1       5.191   1.234   9.508  0.00  0.00    +0.000 A 
ATOM     13  C   UNL     1       4.106   0.588  10.071  0.00  0.00    +0.000 A 
ATOM     14  C   UNL     1       3.762  -0.676   9.637  0.00  0.00    +0.005 A 
ATOM     15  C   UNL     1       4.498  -1.303   8.641  0.00  0.00    -0.027 A 
ATOM     16  C   UNL     1       4.083  -2.689   8.229  0.00  0.00    +0.141 C 
ATOM     17  H   UNL     1       2.421  -3.891   6.933  0.00  0.00    +0.167 HD
ENDROOT
BRANCH   1  18
ATOM     18  C   UNL     1       2.065  -5.619   2.807  0.00  0.00    +0.141 C 
BRANCH  18  24
ATOM     19  N   UNL     1       0.007  -4.179   0.015  0.00  0.00    -0.181 N 
ATOM     20  C   UNL     1       0.659  -4.998   0.878  0.00  0.00    +0.240 A 
ATOM     21  N   UNL     1       0.429  -6.232   0.486  0.00  0.00    -0.092 NA
ATOM     22  N   UNL     1      -0.318  -6.242  -0.558  0.00  0.00    -0.021 NA
ATOM     23  N   UNL     1      -0.622  -5.038  -0.904  0.00  0.00    -0.038 NA
ATOM     24  N   UNL     1       1.421  -4.608   1.965  0.00  0.00    -0.308 N 
ATOM     25  H   UNL     1       1.529  -3.666   2.168  0.00  0.00    +0.149 HD
BRANCH  19  30
ATOM     26  C   UNL     1      -0.163   1.494   0.106  0.00  0.00    +0.044 C 
ATOM     27  C   UNL     1      -0.118  -0.013   0.082  0.00  0.00    -0.050 A 
ATOM     28  C   UNL     1      -0.115  -0.683  -1.127  0.00  0.00    +0.005 A 
ATOM     29  C   UNL     1      -0.073  -2.064  -1.153  0.00  0.00    +0.028 A 
ATOM     30  C   UNL     1      -0.034  -2.778   0.037  0.00  0.00    +0.071 A 
ATOM     31  C   UNL     1      -0.037  -2.101   1.250  0.00  0.00    +0.028 A 
ATOM     32  C   UNL     1      -0.074  -0.721   1.269  0.00  0.00    +0.005 A 
ENDBRANCH  19  30
ENDBRANCH  18  24
ENDBRANCH   1  18
TORSDOF 3
