REMARK  Name = ZINC10402932
REMARK  7 active torsions:
REMARK  status: ('A' for Active; 'I' for Inactive)
REMARK    1  A    between atoms: C_1  and  C_2
REMARK    2  A    between atoms: C_2  and  O_3
REMARK    3  A    between atoms: O_3  and  C_4
REMARK    4  A    between atoms: C_7  and  C_10
REMARK    5  A    between atoms: C_10  and  N_11
REMARK    6  A    between atoms: N_11  and  C_12
REMARK    7  A    between atoms: N_15  and  N_16
REMARK                            x       y       z     vdW  Elec       q    Type
REMARK                         _______ _______ _______ _____ _____    ______ ____
ROOT
ATOM      1  N   UNL     1       1.218  -2.668  -1.405  0.00  0.00    -0.283 N 
ATOM      2  C   UNL     1       2.482  -2.894  -2.109  0.00  0.00    +0.134 C 
ATOM      3  C   UNL     1       0.047  -2.903  -2.030  0.00  0.00    +0.321 C 
ATOM      4  O   UNL     1      -1.002  -2.716  -1.445  0.00  0.00    -0.251 OA
ATOM      5  N   UNL     1       0.040  -3.346  -3.303  0.00  0.00    -0.205 N 
ATOM      6  H   UNL     1       0.877  -3.496  -3.769  0.00  0.00    +0.177 HD
ENDROOT
BRANCH   5   7
ATOM      7  N   UNL     1      -1.177  -3.591  -3.953  0.00  0.00    -0.245 N 
ATOM      8  C   UNL     1      -2.420  -3.431  -3.423  0.00  0.00    +0.219 A 
ATOM      9  N   UNL     1      -3.325  -3.746  -4.303  0.00  0.00    -0.234 NA
ATOM     10  C   UNL     1      -2.723  -4.137  -5.456  0.00  0.00    +0.091 A 
ATOM     11  C   UNL     1      -1.337  -4.043  -5.247  0.00  0.00    +0.088 A 
ATOM     12  C   UNL     1      -0.460  -4.384  -6.267  0.00  0.00    +0.030 A 
ATOM     13  C   UNL     1      -0.956  -4.814  -7.480  0.00  0.00    +0.002 A 
ATOM     14  C   UNL     1      -2.325  -4.907  -7.686  0.00  0.00    +0.002 A 
ATOM     15  C   UNL     1      -3.204  -4.575  -6.693  0.00  0.00    +0.030 A 
ENDBRANCH   5   7
BRANCH   1  16
ATOM     16  C   UNL     1       1.226  -2.187  -0.021  0.00  0.00    +0.144 C 
BRANCH  16  20
ATOM     17  C   UNL     1       1.176   2.086   0.002  0.00  0.00    +0.121 A 
ATOM     18  C   UNL     1      -0.017   1.377   0.010  0.00  0.00    +0.046 A 
ATOM     19  C   UNL     1       0.002  -0.004   0.002  0.00  0.00    +0.009 A 
ATOM     20  C   UNL     1       1.208  -0.680  -0.013  0.00  0.00    -0.030 A 
ATOM     21  C   UNL     1       2.398   0.024  -0.021  0.00  0.00    +0.009 A 
ATOM     22  C   UNL     1       2.385   1.405  -0.013  0.00  0.00    +0.046 A 
BRANCH  17  23
ATOM     23  O   UNL     1       1.160   3.445   0.009  0.00  0.00    -0.492 OA
BRANCH  23  25
ATOM     24  C   UNL     1       2.208   5.623   0.010  0.00  0.00    +0.048 C 
ATOM     25  C   UNL     1       2.426   4.108   0.001  0.00  0.00    +0.225 C 
ENDBRANCH  23  25
ENDBRANCH  17  23
ENDBRANCH  16  20
ENDBRANCH   1  16
TORSDOF 5
