REMARK  Name = ZINC06392055
REMARK  9 active torsions:
REMARK  status: ('A' for Active; 'I' for Inactive)
REMARK    1  A    between atoms: C_1  and  C_2
REMARK    2  A    between atoms: C_2  and  C_3
REMARK    3  A    between atoms: C_3  and  C_5
REMARK    4  A    between atoms: C_3  and  C_6
REMARK    5  A    between atoms: C_11  and  O_12
REMARK    6  A    between atoms: O_12  and  C_13
REMARK    7  A    between atoms: C_13  and  C_14
REMARK    8  A    between atoms: N_16  and  N_17
REMARK    9  A    between atoms: C_18  and  C_19
REMARK                            x       y       z     vdW  Elec       q    Type
REMARK                         _______ _______ _______ _____ _____    ______ ____
ROOT
ATOM      1  C   UNL     1      -0.742   1.585  -1.213  0.00  0.00    +0.270 C 
ATOM      2  O   UNL     1      -1.736   2.268  -1.088  0.00  0.00    -0.270 OA
ATOM      3  N   UNL     1      -0.288   1.272  -2.443  0.00  0.00    -0.204 N 
ATOM      4  H   UNL     1       0.507   0.726  -2.543  0.00  0.00    +0.177 HD
ENDROOT
BRANCH   3   5
ATOM      5  N   UNL     1      -0.966   1.736  -3.578  0.00  0.00    -0.188 NA
ATOM      6  C   UNL     1      -0.530   1.435  -4.763  0.00  0.00    +0.141 C 
BRANCH   6   7
ATOM      7  C   UNL     1      -1.243   1.924  -5.957  0.00  0.00    +0.031 A 
ATOM      8  C   UNL     1      -2.393   2.707  -5.818  0.00  0.00    +0.051 A 
ATOM      9  C   UNL     1      -3.052   3.164  -6.941  0.00  0.00    +0.021 A 
ATOM     10  C   UNL     1      -2.584   2.841  -8.202  0.00  0.00    +0.003 A 
ATOM     11  C   UNL     1      -1.450   2.062  -8.348  0.00  0.00    +0.021 A 
ATOM     12  C   UNL     1      -0.776   1.601  -7.235  0.00  0.00    +0.051 A 
ATOM     13 CL   UNL     1       0.647   0.624  -7.421  0.00  0.00    -0.083 Cl
ATOM     14 CL   UNL     1      -2.986   3.108  -4.236  0.00  0.00    -0.083 Cl
ENDBRANCH   6   7
ENDBRANCH   3   5
BRANCH   1  15
ATOM     15  C   UNL     1      -0.013   1.086   0.008  0.00  0.00    +0.326 C 
BRANCH  15  16
ATOM     16  O   UNL     1      -0.682   1.547   1.184  0.00  0.00    -0.482 OA
BRANCH  16  22
ATOM     17  C   UNL     1      -0.744   1.599   3.561  0.00  0.00    -0.003 A 
ATOM     18  C   UNL     1      -0.203   1.223   4.776  0.00  0.00    +0.007 A 
ATOM     19  C   UNL     1       0.936   0.440   4.814  0.00  0.00    +0.001 A 
ATOM     20  C   UNL     1       1.534   0.028   3.637  0.00  0.00    +0.004 A 
ATOM     21  C   UNL     1       0.994   0.397   2.421  0.00  0.00    +0.046 A 
ATOM     22  C   UNL     1      -0.149   1.182   2.380  0.00  0.00    +0.125 A 
BRANCH  17  23
ATOM     23  C   UNL     1      -1.982   2.457   3.520  0.00  0.00    +0.019 C 
ATOM     24  C   UNL     1      -1.704   3.787   4.223  0.00  0.00    +0.012 C 
BRANCH  23  26
ATOM     25  C   UNL     1      -4.415   2.547   4.082  0.00  0.00    +0.004 C 
ATOM     26  C   UNL     1      -3.127   1.734   4.231  0.00  0.00    +0.004 C 
ENDBRANCH  23  26
ENDBRANCH  17  23
ENDBRANCH  16  22
ENDBRANCH  15  16
ENDBRANCH   1  15
TORSDOF 7
