REMARK  Name = ZINC61963617
REMARK  10 active torsions:
REMARK  status: ('A' for Active; 'I' for Inactive)
REMARK    1  A    between atoms: C_1  and  N_2
REMARK    2  A    between atoms: N_2  and  C_3
REMARK    3  A    between atoms: N_2  and  C_4
REMARK    4  A    between atoms: C_4  and  C_5
REMARK    5  A    between atoms: C_9  and  C_11
REMARK    6  A    between atoms: C_11  and  N_12
REMARK    7  A    between atoms: N_15  and  C_16
REMARK    8  A    between atoms: C_16  and  C_17
REMARK    9  A    between atoms: C_17  and  C_18
REMARK   10  A    between atoms: C_17  and  O_25
REMARK                            x       y       z     vdW  Elec       q    Type
REMARK                         _______ _______ _______ _____ _____    ______ ____
ROOT
ATOM      1  N   UNL     1      -4.066  -1.252   4.025  0.00  0.00    -0.295 N 
ATOM      2  C   UNL     1      -5.153  -1.968   4.374  0.00  0.00    +0.300 C 
ATOM      3  O   UNL     1      -5.056  -2.862   5.191  0.00  0.00    -0.253 OA
ATOM      4  N   UNL     1      -6.349  -1.691   3.817  0.00  0.00    -0.297 N 
ATOM      5  H   UNL     1      -4.143  -0.538   3.372  0.00  0.00    +0.151 HD
ATOM      6  H   UNL     1      -6.427  -0.977   3.165  0.00  0.00    +0.150 HD
ENDROOT
BRANCH   1   7
ATOM      7  C   UNL     1      -2.766  -1.553   4.630  0.00  0.00    +0.141 C 
BRANCH   7  12
ATOM      8  C   UNL     1      -0.059  -0.109   2.429  0.00  0.00    -0.064 A 
ATOM      9  C   UNL     1       0.188   1.099   3.053  0.00  0.00    +0.002 A 
ATOM     10  C   UNL     1      -0.520   1.449   4.187  0.00  0.00    +0.001 A 
ATOM     11  C   UNL     1      -1.476   0.591   4.698  0.00  0.00    +0.005 A 
ATOM     12  C   UNL     1      -1.724  -0.617   4.073  0.00  0.00    -0.030 A 
ATOM     13  C   UNL     1      -1.019  -0.965   2.936  0.00  0.00    +0.007 A 
BRANCH   8  14
ATOM     14  C   UNL     1       0.713  -0.491   1.192  0.00  0.00    -0.044 C 
BRANCH  14  16
ATOM     15  C   UNL     1      -0.018   1.465   0.010  0.00  0.00    -0.096 C 
ATOM     16  N   UNL     1       0.002  -0.004   0.002  0.00  0.00    +0.379 N 
ATOM     17  C   UNL     1       0.690  -0.478  -1.207  0.00  0.00    -0.096 C 
ATOM     18  H   UNL     1      -0.945  -0.353   0.009  0.00  0.00    -0.082 HD
ENDBRANCH  14  16
ENDBRANCH   8  14
ENDBRANCH   7  12
ENDBRANCH   1   7
BRANCH   4  19
ATOM     19  C   UNL     1      -7.531  -2.468   4.197  0.00  0.00    +0.142 C 
BRANCH  19  20
ATOM     20  C   UNL     1      -8.748  -1.955   3.425  0.00  0.00    +0.164 C 
BRANCH  20  21
ATOM     21  C   UNL     1      -9.965  -2.755   3.815  0.00  0.00    +0.018 A 
ATOM     22  C   UNL     1     -10.813  -2.287   4.801  0.00  0.00    +0.009 A 
ATOM     23  C   UNL     1     -11.928  -3.020   5.160  0.00  0.00    +0.001 A 
ATOM     24  C   UNL     1     -12.197  -4.223   4.532  0.00  0.00    +0.003 A 
ATOM     25  C   UNL     1     -11.351  -4.692   3.546  0.00  0.00    +0.039 A 
ATOM     26  C   UNL     1     -10.236  -3.956   3.183  0.00  0.00    +0.129 A 
ATOM     27  F   UNL     1      -9.411  -4.412   2.215  0.00  0.00    -0.205 F 
ENDBRANCH  20  21
BRANCH  20  28
ATOM     28  O   UNL     1      -8.964  -0.577   3.737  0.00  0.00    -0.386 OA
ATOM     29  H   UNL     1      -9.128  -0.407   4.674  0.00  0.00    +0.210 HD
ENDBRANCH  20  28
ENDBRANCH  19  20
ENDBRANCH   4  19
TORSDOF 8
