REMARK  Name = ZINC08938566
REMARK  6 active torsions:
REMARK  status: ('A' for Active; 'I' for Inactive)
REMARK    1  A    between atoms: C_1  and  C_2
REMARK    2  A    between atoms: C_6  and  O_8
REMARK    3  A    between atoms: O_8  and  C_9
REMARK    4  A    between atoms: C_9  and  C_10
REMARK    5  A    between atoms: C_10  and  N_11
REMARK    6  A    between atoms: C_19  and  C_21
REMARK                            x       y       z     vdW  Elec       q    Type
REMARK                         _______ _______ _______ _____ _____    ______ ____
ROOT
ATOM      1  N   UNL     1      -0.545   7.775  -1.200  0.00  0.00    -0.221 N 
ATOM      2  C   UNL     1      -1.230   8.117  -2.311  0.00  0.00    +0.247 C 
ATOM      3  O   UNL     1      -2.433   8.130  -2.456  0.00  0.00    -0.273 OA
ATOM      4  C   UNL     1      -0.180   8.478  -3.337  0.00  0.00    +0.115 C 
ATOM      5  C   UNL     1      -0.270   7.547  -4.540  0.00  0.00    +0.035 C 
ATOM      6  C   UNL     1      -1.620   7.739  -5.236  0.00  0.00    +0.003 C 
ATOM      7  C   UNL     1      -1.758   9.195  -5.685  0.00  0.00    +0.000 C 
ATOM      8  C   UNL     1      -1.687  10.117  -4.466  0.00  0.00    +0.006 C 
ATOM      9  C   UNL     1      -0.337   9.933  -3.767  0.00  0.00    +0.018 C 
ATOM     10  C   UNL     1      -0.273  10.838  -2.536  0.00  0.00    +0.010 C 
ATOM     11  N   UNL     1       1.092   8.285  -2.629  0.00  0.00    -0.285 N 
ATOM     12  C   UNL     1       0.777   7.878  -1.385  0.00  0.00    +0.309 C 
ATOM     13  O   UNL     1       1.601   7.628  -0.526  0.00  0.00    -0.252 OA
ATOM     14  H   UNL     1       1.982   8.425  -2.987  0.00  0.00    +0.151 HD
ENDROOT
BRANCH   1  15
ATOM     15  C   UNL     1      -1.171   7.351   0.055  0.00  0.00    +0.159 C 
BRANCH  15  16
ATOM     16  C   UNL     1      -1.350   5.832   0.048  0.00  0.00    +0.248 C 
BRANCH  16  17
ATOM     17  O   UNL     1      -0.069   5.201   0.032  0.00  0.00    -0.490 OA
BRANCH  17  23
ATOM     18  C   UNL     1       2.490   1.045  -0.016  0.00  0.00    +0.044 C 
ATOM     19  C   UNL     1       1.176   1.782   0.000  0.00  0.00    -0.047 A 
ATOM     20  C   UNL     1      -0.013   1.076   0.008  0.00  0.00    +0.003 A 
ATOM     21  C   UNL     1      -1.220   1.750   0.017  0.00  0.00    +0.004 A 
ATOM     22  C   UNL     1      -1.241   3.131   0.031  0.00  0.00    +0.045 A 
ATOM     23  C   UNL     1      -0.050   3.842   0.024  0.00  0.00    +0.121 A 
ATOM     24  C   UNL     1       1.160   3.163   0.008  0.00  0.00    +0.049 A 
ENDBRANCH  17  23
ENDBRANCH  16  17
ENDBRANCH  15  16
ENDBRANCH   1  15
TORSDOF 4
