REMARK  Name = ZINC39695854
REMARK  8 active torsions:
REMARK  status: ('A' for Active; 'I' for Inactive)
REMARK    1  A    between atoms: C_1  and  C_2
REMARK    2  A    between atoms: C_9  and  C_11
REMARK    3  A    between atoms: C_11  and  C_13
REMARK    4  A    between atoms: C_11  and  N_14
REMARK    5  A    between atoms: C_15  and  C_17
REMARK    6  A    between atoms: C_28  and  C_30
REMARK    7  A    between atoms: C_31  and  C_36
REMARK    8  A    between atoms: C_34  and  C_35
REMARK                            x       y       z     vdW  Elec       q    Type
REMARK                         _______ _______ _______ _____ _____    ______ ____
ROOT
ATOM      1  C   UNL     1       1.878  -8.733   0.984  0.00  0.00    +0.100 C 
ATOM      2  C   UNL     1       0.776  -9.459   0.179  0.00  0.00    +0.121 C 
ATOM      3  N   UNL     1       1.233 -10.867   0.104  0.00  0.00    -0.296 N 
ATOM      4  C   UNL     1       1.812 -11.138   1.442  0.00  0.00    +0.115 C 
ATOM      5  C   UNL     1       2.554  -9.839   1.812  0.00  0.00    -0.004 C 
ATOM      6  C   UNL     1       2.402  -9.551   3.303  0.00  0.00    -0.010 C 
ATOM      7  C   UNL     1       3.133 -10.632   4.104  0.00  0.00    -0.082 C 
ATOM      8  N   UNL     1       4.552 -10.645   3.730  0.00  0.00    +0.379 N 
ATOM      9  C   UNL     1       4.695 -11.014   2.317  0.00  0.00    -0.082 C 
ATOM     10  C   UNL     1       4.030  -9.949   1.440  0.00  0.00    -0.010 C 
ATOM     11  C   UNL     1       1.142 -11.710  -0.943  0.00  0.00    +0.252 C 
ATOM     12  O   UNL     1       1.566 -12.846  -0.848  0.00  0.00    -0.270 OA
ATOM     13  H   UNL     1       4.946  -9.728   3.878  0.00  0.00    -0.086 HD
ATOM     14  H   UNL     1       5.043 -11.315   4.303  0.00  0.00    -0.086 HD
ENDROOT
BRANCH  11  15
ATOM     15  C   UNL     1       0.529 -11.256  -2.204  0.00  0.00    +0.101 A 
ATOM     16  C   UNL     1       1.218 -10.632  -3.334  0.00  0.00    +0.093 A 
ATOM     17  N   UNL     1       0.320 -10.384  -4.242  0.00  0.00    -0.083 NA
ATOM     18  O   UNL     1      -0.938 -10.817  -3.764  0.00  0.00    -0.359 OA
ATOM     19  C   UNL     1      -0.791 -11.341  -2.545  0.00  0.00    +0.147 A 
ATOM     20  C   UNL     1      -1.889 -11.922  -1.692  0.00  0.00    +0.090 C 
ATOM     21  C   UNL     1       2.692 -10.331  -3.429  0.00  0.00    +0.070 C 
ENDBRANCH  11  15
BRANCH   1  23
ATOM     22  N   UNL     1       1.974  -6.601   2.233  0.00  0.00    -0.305 N 
ATOM     23  C   UNL     1       1.268  -7.697   1.892  0.00  0.00    +0.219 C 
ATOM     24  O   UNL     1       0.141  -7.848   2.315  0.00  0.00    -0.275 OA
ATOM     25  H   UNL     1       2.875  -6.479   1.895  0.00  0.00    +0.149 HD
BRANCH  22  26
ATOM     26  C   UNL     1       1.381  -5.593   3.116  0.00  0.00    +0.136 C 
ATOM     27  C   UNL     1       0.546  -4.616   2.286  0.00  0.00    +0.036 C 
BRANCH  26  36
ATOM     28  C   UNL     1       5.863  -1.643   7.554  0.00  0.00    +0.044 C 
ATOM     29  C   UNL     1       5.346  -2.462   6.400  0.00  0.00    -0.048 A 
ATOM     30  C   UNL     1       6.194  -2.787   5.351  0.00  0.00    +0.005 A 
ATOM     31  C   UNL     1       5.745  -3.530   4.296  0.00  0.00    +0.030 A 
ATOM     32  C   UNL     1       4.418  -3.969   4.268  0.00  0.00    +0.089 A 
ATOM     33  C   UNL     1       3.559  -3.640   5.330  0.00  0.00    +0.067 A 
ATOM     34  C   UNL     1       4.035  -2.889   6.396  0.00  0.00    +0.031 A 
ATOM     35  N   UNL     1       2.338  -4.206   5.021  0.00  0.00    -0.340 N 
ATOM     36  C   UNL     1       2.477  -4.840   3.826  0.00  0.00    +0.128 A 
ATOM     37  N   UNL     1       3.693  -4.702   3.385  0.00  0.00    -0.231 NA
ATOM     38  H   UNL     1       1.531  -4.159   5.557  0.00  0.00    +0.167 HD
ENDBRANCH  26  36
ENDBRANCH  22  26
ENDBRANCH   1  23
TORSDOF 4
