REMARK  Name = ZINC09298376
REMARK  10 active torsions:
REMARK  status: ('A' for Active; 'I' for Inactive)
REMARK    1  A    between atoms: C_1  and  C_2
REMARK    2  A    between atoms: C_2  and  O_3
REMARK    3  A    between atoms: O_3  and  C_4
REMARK    4  A    between atoms: C_7  and  C_9
REMARK    5  A    between atoms: C_13  and  N_14
REMARK    6  A    between atoms: C_15  and  C_17
REMARK    7  A    between atoms: C_17  and  C_18
REMARK    8  A    between atoms: C_18  and  S_19
REMARK    9  A    between atoms: S_19  and  C_22
REMARK   10  A    between atoms: C_30  and  C_34
REMARK                            x       y       z     vdW  Elec       q    Type
REMARK                         _______ _______ _______ _____ _____    ______ ____
ROOT
ATOM      1  C   UNL     1      -2.505   1.114   0.020  0.00  0.00    +0.069 A 
ATOM      2  C   UNL     1      -3.616   2.051   0.030  0.00  0.00    -0.023 A 
ATOM      3  C   UNL     1      -3.268   3.356   0.035  0.00  0.00    -0.004 A 
ATOM      4  S   UNL     1      -1.498   3.353   0.035  0.00  0.00    -0.077 S 
ATOM      5  C   UNL     1      -1.221   1.643   0.017  0.00  0.00    +0.084 A 
ATOM      6  C   UNL     1      -4.190   4.537   0.046  0.00  0.00    +0.046 C 
ATOM      7  C   UNL     1      -5.598   4.053  -0.329  0.00  0.00    -0.009 C 
ATOM      8  C   UNL     1      -5.931   2.811   0.503  0.00  0.00    +0.008 C 
ATOM      9  C   UNL     1      -5.080   1.629   0.036  0.00  0.00    +0.037 C 
ATOM     10  C   UNL     1      -6.615   5.159  -0.035  0.00  0.00    +0.008 C 
ENDROOT
BRANCH   1  14
ATOM     11  C   UNL     1      -3.049  -2.324  -1.164  0.00  0.00    +0.407 C 
ATOM     12  O   UNL     1      -3.138  -2.930  -0.115  0.00  0.00    -0.226 OA
ATOM     13  N   UNL     1      -2.841  -0.992  -1.158  0.00  0.00    -0.217 N 
ATOM     14  C   UNL     1      -2.731  -0.333   0.013  0.00  0.00    +0.255 C 
ATOM     15  O   UNL     1      -2.821  -0.940   1.064  0.00  0.00    -0.270 OA
ATOM     16  H   UNL     1      -2.769  -0.508  -1.995  0.00  0.00    +0.161 HD
BRANCH  11  17
ATOM     17  O   UNL     1      -3.158  -2.982  -2.333  0.00  0.00    -0.450 OA
BRANCH  17  19
ATOM     18  C   UNL     1      -3.478  -4.985  -3.681  0.00  0.00    +0.048 C 
ATOM     19  C   UNL     1      -3.382  -4.415  -2.264  0.00  0.00    +0.230 C 
ENDBRANCH  17  19
ENDBRANCH  11  17
ENDBRANCH   1  14
BRANCH   5  20
ATOM     20  N   UNL     1      -0.011   0.966   0.007  0.00  0.00    -0.279 N 
ATOM     21  C   UNL     1       1.147   1.655   0.000  0.00  0.00    +0.219 C 
ATOM     22  O   UNL     1       1.130   2.868   0.007  0.00  0.00    -0.275 OA
ATOM     23  H   UNL     1       0.002  -0.004   0.002  0.00  0.00    +0.155 HD
BRANCH  21  24
ATOM     24  C   UNL     1       2.462   0.920  -0.017  0.00  0.00    +0.119 C 
BRANCH  24  25
ATOM     25  C   UNL     1       3.611   1.930  -0.022  0.00  0.00    +0.181 C 
BRANCH  25  26
ATOM     26  S   UNL     1       5.194   1.044  -0.042  0.00  0.00    -0.003 S 
ATOM     27  O   UNL     1       5.386   0.358   1.187  0.00  0.00    -0.169 OA
ATOM     28  O   UNL     1       5.363   0.371  -1.282  0.00  0.00    -0.169 OA
BRANCH  26  29
ATOM     29  C   UNL     1       6.421   2.309  -0.047  0.00  0.00    +0.088 A 
ATOM     30  C   UNL     1       6.894   2.808  -1.246  0.00  0.00    +0.028 A 
ATOM     31  C   UNL     1       7.852   3.804  -1.251  0.00  0.00    +0.022 A 
ATOM     32  C   UNL     1       8.345   4.295  -0.055  0.00  0.00    +0.041 A 
ATOM     33  C   UNL     1       7.875   3.791   1.145  0.00  0.00    +0.022 A 
ATOM     34  C   UNL     1       6.913   2.799   1.149  0.00  0.00    +0.028 A 
ATOM     35 CL   UNL     1       9.553   5.542  -0.059  0.00  0.00    -0.084 Cl
ENDBRANCH  26  29
ENDBRANCH  25  26
ENDBRANCH  24  25
ENDBRANCH  21  24
ENDBRANCH   5  20
TORSDOF 8
