REMARK  Name = ZINC13124413
REMARK  1 active torsions:
REMARK  status: ('A' for Active; 'I' for Inactive)
REMARK    1  A    between atoms: C_10  and  C_16
REMARK                            x       y       z     vdW  Elec       q    Type
REMARK                         _______ _______ _______ _____ _____    ______ ____
ROOT
ATOM      1  C   UNL     1      -0.017   1.373   0.010  0.00  0.00    +0.002 A 
ATOM      2  C   UNL     1       1.170   2.091   0.002  0.00  0.00    +0.002 A 
ATOM      3  C   UNL     1       2.384   1.436  -0.013  0.00  0.00    +0.028 A 
ATOM      4  C   UNL     1       2.425   0.049  -0.021  0.00  0.00    +0.072 A 
ATOM      5  C   UNL     1       1.223  -0.684  -0.014  0.00  0.00    +0.091 A 
ATOM      6  C   UNL     1       0.002  -0.004   0.002  0.00  0.00    +0.030 A 
ATOM      7  N   UNL     1       1.550  -2.004  -0.026  0.00  0.00    -0.212 NA
ATOM      8  C   UNL     1       2.850  -2.135  -0.051  0.00  0.00    +0.213 A 
ATOM      9  N   UNL     1       3.434  -0.883  -0.033  0.00  0.00    -0.287 N 
ATOM     10  C   UNL     1       4.891  -0.705  -0.021  0.00  0.00    +0.209 C 
ATOM     11  N   UNL     1       5.471  -1.938  -0.584  0.00  0.00    -0.294 N 
ATOM     12  C   UNL     1       4.897  -3.150  -0.308  0.00  0.00    +0.160 C 
ATOM     13  N   UNL     1       3.600  -3.262  -0.075  0.00  0.00    -0.302 N 
ATOM     14  N   UNL     1       5.682  -4.270  -0.272  0.00  0.00    -0.332 N 
ATOM     15  H   UNL     1       6.257  -1.890  -1.150  0.00  0.00    +0.151 HD
ATOM     16  H   UNL     1       6.635  -4.199  -0.442  0.00  0.00    +0.145 HD
ATOM     17  H   UNL     1       5.287  -5.134  -0.077  0.00  0.00    +0.145 HD
ATOM     18  H   UNL     1       3.196  -4.131   0.075  0.00  0.00    +0.171 HD
ENDROOT
BRANCH  10  19
ATOM     19  C   UNL     1       5.374  -0.504   1.392  0.00  0.00    -0.007 A 
ATOM     20  C   UNL     1       5.547  -1.593   2.225  0.00  0.00    +0.008 A 
ATOM     21  C   UNL     1       5.990  -1.410   3.521  0.00  0.00    +0.015 A 
ATOM     22  C   UNL     1       6.261  -0.135   3.985  0.00  0.00    +0.018 A 
ATOM     23  C   UNL     1       6.088   0.955   3.151  0.00  0.00    +0.015 A 
ATOM     24  C   UNL     1       5.650   0.770   1.854  0.00  0.00    +0.008 A 
ATOM     25 BR   UNL     1       6.868   0.117   5.758  0.00  0.00    -0.050 Br
ENDBRANCH  10  19
TORSDOF 1
