REMARK  Name = ZINC67011979
REMARK  5 active torsions:
REMARK  status: ('A' for Active; 'I' for Inactive)
REMARK    1  A    between atoms: C_4  and  C_6
REMARK    2  A    between atoms: C_6  and  N_7
REMARK    3  A    between atoms: C_13  and  C_16
REMARK    4  A    between atoms: C_16  and  C_17
REMARK    5  A    between atoms: C_17  and  N_18
REMARK                            x       y       z     vdW  Elec       q    Type
REMARK                         _______ _______ _______ _____ _____    ______ ____
ROOT
ATOM      1  N   UNL     1       0.519  -2.528  -1.526  0.00  0.00    -0.299 N 
ATOM      2  C   UNL     1       0.227  -3.421  -2.492  0.00  0.00    +0.302 C 
ATOM      3  O   UNL     1       0.382  -3.123  -3.661  0.00  0.00    -0.253 OA
ATOM      4  N   UNL     1      -0.239  -4.642  -2.163  0.00  0.00    -0.286 N 
ATOM      5  C   UNL     1      -0.542  -4.976  -0.765  0.00  0.00    +0.109 C 
ATOM      6  C   UNL     1       0.211  -6.256  -0.390  0.00  0.00    +0.022 C 
ATOM      7  C   UNL     1      -0.139  -7.361  -1.390  0.00  0.00    -0.007 C 
ATOM      8  C   UNL     1       0.299  -6.937  -2.794  0.00  0.00    +0.022 C 
ATOM      9  C   UNL     1      -0.458  -5.663  -3.197  0.00  0.00    +0.109 C 
ATOM     10  H   UNL     1       0.327  -2.737  -0.598  0.00  0.00    +0.150 HD
ENDROOT
BRANCH   1  11
ATOM     11  C   UNL     1       1.129  -1.243  -1.875  0.00  0.00    +0.109 C 
BRANCH  11  15
ATOM     12  C   UNL     1      -0.014   1.539   0.011  0.00  0.00    +0.000 C 
ATOM     13  C   UNL     1       1.483   1.937  -0.002  0.00  0.00    +0.000 C 
ATOM     14  C   UNL     1       2.111   0.879  -0.942  0.00  0.00    +0.005 C 
ATOM     15  C   UNL     1       1.357  -0.423  -0.604  0.00  0.00    +0.006 C 
ATOM     16  C   UNL     1       0.006  -0.004   0.002  0.00  0.00    +0.005 C 
ENDBRANCH  11  15
ENDBRANCH   1  11
BRANCH   7  17
ATOM     17  C   UNL     1       0.585  -8.651  -0.998  0.00  0.00    +0.019 C 
BRANCH  17  18
ATOM     18  C   UNL     1       0.140  -9.786  -1.922  0.00  0.00    +0.085 C 
BRANCH  18  19
ATOM     19  N   UNL     1       0.834 -11.024  -1.546  0.00  0.00    -0.298 NA
ATOM     20  C   UNL     1       2.278 -10.918  -1.803  0.00  0.00    +0.112 C 
ATOM     21  C   UNL     1       2.969 -12.204  -1.343  0.00  0.00    +0.175 C 
ATOM     22  O   UNL     1       2.380 -13.322  -2.013  0.00  0.00    -0.377 OA
ATOM     23  C   UNL     1       0.975 -13.456  -1.784  0.00  0.00    +0.175 C 
ATOM     24  C   UNL     1       0.263 -12.183  -2.249  0.00  0.00    +0.112 C 
ENDBRANCH  18  19
ENDBRANCH  17  18
ENDBRANCH   7  17
TORSDOF 5
