REMARK  Name = ZINC67561575
REMARK  7 active torsions:
REMARK  status: ('A' for Active; 'I' for Inactive)
REMARK    1  A    between atoms: C_1  and  C_2
REMARK    2  A    between atoms: C_2  and  C_3
REMARK    3  A    between atoms: C_3  and  C_4
REMARK    4  A    between atoms: C_12  and  C_14
REMARK    5  A    between atoms: N_16  and  C_17
REMARK    6  A    between atoms: C_20  and  C_26
REMARK    7  A    between atoms: C_21  and  C_23
REMARK                            x       y       z     vdW  Elec       q    Type
REMARK                         _______ _______ _______ _____ _____    ______ ____
ROOT
ATOM      1  C   UNL     1      -1.719  -4.356  -3.869  0.00  0.00    +0.303 C 
ATOM      2  O   UNL     1      -0.773  -3.614  -3.701  0.00  0.00    -0.265 OA
ATOM      3  N   UNL     1      -2.072  -4.726  -5.115  0.00  0.00    -0.278 N 
ATOM      4  H   UNL     1      -2.863  -5.270  -5.254  0.00  0.00    +0.155 HD
ENDROOT
BRANCH   1  12
ATOM      5  C   UNL     1      -1.675  -1.953  -0.052  0.00  0.00    -0.009 C 
ATOM      6  C   UNL     1      -3.079  -2.521   0.133  0.00  0.00    +0.005 C 
ATOM      7  C   UNL     1      -2.987  -3.883   0.776  0.00  0.00    +0.019 C 
ATOM      8  C   UNL     1      -2.926  -4.976  -0.306  0.00  0.00    +0.108 C 
ATOM      9  N   UNL     1      -2.069  -4.587  -1.443  0.00  0.00    -0.294 N 
ATOM     10  C   UNL     1      -0.795  -3.925  -1.270  0.00  0.00    +0.108 C 
ATOM     11  C   UNL     1      -1.005  -2.390  -1.286  0.00  0.00    +0.022 C 
ATOM     12  C   UNL     1      -2.491  -4.860  -2.693  0.00  0.00    +0.302 C 
ATOM     13  O   UNL     1      -3.498  -5.515  -2.864  0.00  0.00    -0.265 OA
BRANCH   5  14
ATOM     14  C   UNL     1      -1.766  -0.426  -0.063  0.00  0.00    +0.003 C 
BRANCH  14  16
ATOM     15  C   UNL     1      -0.447   1.696  -0.074  0.00  0.00    +0.004 C 
ATOM     16  C   UNL     1      -0.356   0.169  -0.063  0.00  0.00    -0.003 C 
ENDBRANCH  14  16
ENDBRANCH   5  14
ENDBRANCH   1  12
BRANCH   3  17
ATOM     17  C   UNL     1      -1.299  -4.326  -6.208  0.00  0.00    +0.035 A 
ATOM     18  C   UNL     1       0.083  -4.235  -6.086  0.00  0.00    +0.023 A 
ATOM     19  C   UNL     1       0.852  -3.839  -7.164  0.00  0.00    +0.006 A 
ATOM     20  C   UNL     1       0.254  -3.532  -8.369  0.00  0.00    -0.038 A 
ATOM     21  C   UNL     1      -1.133  -3.620  -8.503  0.00  0.00    +0.041 A 
ATOM     22  C   UNL     1      -1.909  -4.026  -7.417  0.00  0.00    +0.036 A 
ATOM     23  C   UNL     1       1.097  -3.101  -9.541  0.00  0.00    +0.044 C 
BRANCH  21  24
ATOM     24  C   UNL     1      -1.776  -3.291  -9.793  0.00  0.00    +0.242 C 
ATOM     25  O   UNL     1      -1.093  -3.062 -10.771  0.00  0.00    -0.270 OA
ATOM     26  N   UNL     1      -3.120  -3.246  -9.883  0.00  0.00    -0.325 N 
ATOM     27  H   UNL     1      -3.665  -3.430  -9.102  0.00  0.00    +0.145 HD
ATOM     28  H   UNL     1      -3.543  -3.030 -10.729  0.00  0.00    +0.145 HD
ENDBRANCH  21  24
ENDBRANCH   3  17
TORSDOF 5
