REMARK  Name = ZINC36644566
REMARK  11 active torsions:
REMARK  status: ('A' for Active; 'I' for Inactive)
REMARK    1  A    between atoms: C_1  and  C_2
REMARK    2  A    between atoms: C_2  and  C_3
REMARK    3  A    between atoms: C_3  and  C_4
REMARK    4  A    between atoms: C_4  and  N_5
REMARK    5  A    between atoms: C_6  and  N_33
REMARK    6  A    between atoms: C_7  and  N_14
REMARK    7  A    between atoms: N_14  and  C_15
REMARK    8  A    between atoms: C_15  and  C_16
REMARK    9  A    between atoms: C_16  and  C_17
REMARK   10  A    between atoms: C_16  and  C_18
REMARK   11  A    between atoms: C_19  and  C_21
REMARK                            x       y       z     vdW  Elec       q    Type
REMARK                         _______ _______ _______ _____ _____    ______ ____
ROOT
ATOM      1  N   UNL     1       5.658  -3.874   3.140  0.00  0.00    -0.263 N 
ATOM      2  C   UNL     1       6.423  -3.074   2.369  0.00  0.00    +0.228 C 
ATOM      3  O   UNL     1       7.562  -2.821   2.699  0.00  0.00    -0.275 OA
ENDROOT
BRANCH   2   4
ATOM      4  C   UNL     1       5.861  -2.493   1.096  0.00  0.00    +0.116 C 
ATOM      5  C   UNL     1       5.143  -1.180   1.410  0.00  0.00    +0.113 C 
ATOM      6  C   UNL     1       6.149  -0.114   1.753  0.00  0.00    +0.218 C 
ATOM      7  O   UNL     1       5.877   0.718   2.593  0.00  0.00    -0.275 OA
ATOM      8  N   UNL     1       7.346  -0.074   1.140  0.00  0.00    -0.285 N 
ATOM      9  C   UNL     1       7.684  -1.035   0.182  0.00  0.00    +0.037 A 
ATOM     10  C   UNL     1       6.983  -2.233   0.125  0.00  0.00    -0.014 A 
ATOM     11  C   UNL     1       7.316  -3.182  -0.821  0.00  0.00    +0.006 A 
ATOM     12  C   UNL     1       8.347  -2.940  -1.711  0.00  0.00    +0.000 A 
ATOM     13  C   UNL     1       9.046  -1.749  -1.656  0.00  0.00    +0.002 A 
ATOM     14  C   UNL     1       8.718  -0.795  -0.713  0.00  0.00    +0.023 A 
ATOM     15  H   UNL     1       7.979   0.626   1.364  0.00  0.00    +0.155 HD
ENDBRANCH   2   4
BRANCH   1  18
ATOM     16  N   UNL     1       1.988  -3.708   3.148  0.00  0.00    -0.280 N 
ATOM     17  C   UNL     1       3.296  -3.471   3.501  0.00  0.00    +0.127 A 
ATOM     18  C   UNL     1       4.306  -4.098   2.802  0.00  0.00    +0.140 A 
ATOM     19  C   UNL     1       3.966  -4.963   1.745  0.00  0.00    +0.277 A 
ATOM     20  O   UNL     1       4.840  -5.530   1.111  0.00  0.00    -0.266 OA
ATOM     21  N   UNL     1       2.669  -5.161   1.440  0.00  0.00    -0.273 N 
ATOM     22  H   UNL     1       2.433  -5.758   0.712  0.00  0.00    +0.173 HD
ATOM     23  C   UNL     1       1.697  -4.546   2.136  0.00  0.00    +0.331 A 
ATOM     24  O   UNL     1       0.534  -4.746   1.843  0.00  0.00    -0.246 OA
BRANCH  17  25
ATOM     25  N   UNL     1       3.592  -2.619   4.538  0.00  0.00    -0.343 N 
ATOM     26  H   UNL     1       2.880  -2.144   4.995  0.00  0.00    +0.144 HD
ATOM     27  H   UNL     1       4.514  -2.493   4.814  0.00  0.00    +0.144 HD
ENDBRANCH  17  25
BRANCH  16  28
ATOM     28  C   UNL     1       0.904  -3.050   3.882  0.00  0.00    +0.128 C 
BRANCH  28  29
ATOM     29  C   UNL     1       0.483  -3.925   5.065  0.00  0.00    +0.021 C 
BRANCH  29  31
ATOM     30  C   UNL     1      -1.069  -4.112   7.013  0.00  0.00    +0.004 C 
ATOM     31  C   UNL     1      -0.648  -3.237   5.831  0.00  0.00    -0.002 C 
ENDBRANCH  29  31
ENDBRANCH  28  29
ENDBRANCH  16  28
ENDBRANCH   1  18
BRANCH   1  32
ATOM     32  C   UNL     1       6.231  -4.512   4.327  0.00  0.00    +0.117 C 
BRANCH  32  33
ATOM     33  C   UNL     1       6.748  -5.904   3.960  0.00  0.00    +0.001 C 
ATOM     34  C   UNL     1       7.923  -5.772   2.988  0.00  0.00    +0.009 C 
ATOM     35  C   UNL     1       7.213  -6.627   5.226  0.00  0.00    +0.009 C 
ENDBRANCH  32  33
ENDBRANCH   1  32
TORSDOF 8
