REMARK  Name = ZINC39143264
REMARK  4 active torsions:
REMARK  status: ('A' for Active; 'I' for Inactive)
REMARK    1  A    between atoms: C_1  and  C_2
REMARK    2  A    between atoms: C_5  and  N_11
REMARK    3  A    between atoms: C_7  and  C_8
REMARK    4  A    between atoms: C_15  and  C_16
REMARK                            x       y       z     vdW  Elec       q    Type
REMARK                         _______ _______ _______ _____ _____    ______ ____
ROOT
ATOM      1  N   UNL     1       0.247  -4.094   0.666  0.00  0.00    -0.224 N 
ATOM      2  C   UNL     1       0.156  -5.003  -0.291  0.00  0.00    +0.262 C 
ATOM      3  O   UNL     1      -0.024  -4.693  -1.453  0.00  0.00    -0.269 OA
ATOM      4  C   UNL     1       0.284  -6.420   0.130  0.00  0.00    +0.077 C 
ATOM      5  C   UNL     1       0.234  -7.537  -0.606  0.00  0.00    +0.039 C 
ATOM      6  S   UNL     1       0.524  -6.225   1.891  0.00  0.00    -0.061 S 
ATOM      7  C   UNL     1       0.452  -4.442   1.952  0.00  0.00    +0.125 C 
ATOM      8  S   UNL     1       0.603  -3.420   3.317  0.00  0.00    -0.027 S 
ENDROOT
BRANCH   5   9
ATOM      9  C   UNL     1       0.019  -7.449  -2.095  0.00  0.00    +0.200 C 
ATOM     10  N   UNL     1       1.120  -8.114  -2.803  0.00  0.00    -0.360 N 
ATOM     11  C   UNL     1       0.606  -9.087  -3.498  0.00  0.00    +0.060 A 
ATOM     12  C   UNL     1       1.192 -10.092  -4.396  0.00  0.00    +0.027 A 
ATOM     13  C   UNL     1       0.392 -10.999  -4.992  0.00  0.00    +0.002 A 
ATOM     14  C   UNL     1      -1.000 -11.029  -4.792  0.00  0.00    +0.002 A 
ATOM     15  C   UNL     1      -1.638 -10.154  -3.990  0.00  0.00    +0.027 A 
ATOM     16  C   UNL     1      -0.867  -9.119  -3.287  0.00  0.00    +0.060 A 
ATOM     17  N   UNL     1      -1.207  -8.165  -2.470  0.00  0.00    -0.360 N 
ATOM     18  H   UNL     1       2.059  -7.872  -2.761  0.00  0.00    +0.162 HD
ATOM     19  H   UNL     1      -2.105  -7.963  -2.164  0.00  0.00    +0.162 HD
ENDBRANCH   5   9
BRANCH   1  24
ATOM     20  C   UNL     1      -0.183   1.409  -0.700  0.00  0.00    +0.044 C 
ATOM     21  C   UNL     1      -0.072  -0.050  -0.336  0.00  0.00    -0.036 A 
ATOM     22  C   UNL     1       1.012  -0.787  -0.764  0.00  0.00    +0.006 A 
ATOM     23  C   UNL     1       1.119  -2.125  -0.433  0.00  0.00    +0.024 A 
ATOM     24  C   UNL     1       0.134  -2.737   0.334  0.00  0.00    +0.043 A 
ATOM     25  C   UNL     1      -0.959  -2.006   0.769  0.00  0.00    +0.039 A 
ATOM     26  C   UNL     1      -1.065  -0.653   0.440  0.00  0.00    +0.068 A 
BRANCH  26  27
ATOM     27  C   UNL     1      -2.223   0.134   0.905  0.00  0.00    +0.387 C 
ATOM     28  O   UNL     1      -2.047   1.147   1.568  0.00  0.00    -0.241 OA
ATOM     29  O   UNL     1      -3.358  -0.226   0.628  0.00  0.00    -0.241 OA
ENDBRANCH  26  27
ENDBRANCH   1  24
TORSDOF 3
