REMARK  Name = ZINC39670251
REMARK  6 active torsions:
REMARK  status: ('A' for Active; 'I' for Inactive)
REMARK    1  A    between atoms: C_1  and  C_2
REMARK    2  A    between atoms: C_7  and  C_11
REMARK    3  A    between atoms: C_11  and  N_12
REMARK    4  A    between atoms: C_13  and  C_15
REMARK    5  A    between atoms: C_26  and  C_28
REMARK    6  A    between atoms: C_31  and  C_33
REMARK                            x       y       z     vdW  Elec       q    Type
REMARK                         _______ _______ _______ _____ _____    ______ ____
ROOT
ATOM      1  C   UNL     1       3.154  -7.368   3.688  0.00  0.00    +0.100 C 
ATOM      2  C   UNL     1       3.796  -6.243   4.529  0.00  0.00    +0.121 C 
ATOM      3  N   UNL     1       3.604  -6.670   5.935  0.00  0.00    -0.294 N 
ATOM      4  C   UNL     1       3.838  -8.134   5.911  0.00  0.00    +0.115 C 
ATOM      5  C   UNL     1       3.187  -8.609   4.596  0.00  0.00    -0.004 C 
ATOM      6  C   UNL     1       4.028  -9.710   3.958  0.00  0.00    -0.010 C 
ATOM      7  C   UNL     1       3.998 -10.953   4.851  0.00  0.00    -0.082 C 
ATOM      8  N   UNL     1       2.611 -11.404   5.019  0.00  0.00    +0.379 N 
ATOM      9  C   UNL     1       1.831 -10.375   5.718  0.00  0.00    -0.082 C 
ATOM     10  C   UNL     1       1.770  -9.108   4.861  0.00  0.00    -0.010 C 
ATOM     11  C   UNL     1       3.288  -5.902   6.997  0.00  0.00    +0.282 C 
ATOM     12  O   UNL     1       3.164  -6.406   8.098  0.00  0.00    -0.267 OA
ATOM     13  H   UNL     1       2.202 -11.575   4.112  0.00  0.00    -0.086 HD
ATOM     14  H   UNL     1       2.599 -12.257   5.557  0.00  0.00    -0.086 HD
ENDROOT
BRANCH  11  15
ATOM     15  C   UNL     1       3.093  -4.460   6.825  0.00  0.00    +0.190 A 
ATOM     16  C   UNL     1       2.775  -3.563   7.821  0.00  0.00    +0.055 A 
ATOM     17  C   UNL     1       2.686  -2.305   7.217  0.00  0.00    +0.050 A 
ATOM     18  C   UNL     1       2.951  -2.478   5.888  0.00  0.00    +0.136 A 
ATOM     19  O   UNL     1       3.200  -3.779   5.665  0.00  0.00    -0.450 OA
BRANCH  18  20
ATOM     20  C   UNL     1       2.966  -1.410   4.868  0.00  0.00    +0.017 A 
ATOM     21  C   UNL     1       2.700  -0.088   5.232  0.00  0.00    +0.014 A 
ATOM     22  C   UNL     1       2.716   0.904   4.275  0.00  0.00    +0.039 A 
ATOM     23  C   UNL     1       2.995   0.592   2.954  0.00  0.00    +0.123 A 
ATOM     24  C   UNL     1       3.260  -0.719   2.586  0.00  0.00    +0.039 A 
ATOM     25  C   UNL     1       3.252  -1.718   3.536  0.00  0.00    +0.014 A 
ATOM     26  F   UNL     1       3.009   1.568   2.020  0.00  0.00    -0.205 F 
ENDBRANCH  18  20
ENDBRANCH  11  15
BRANCH   1  28
ATOM     27  N   UNL     1       1.177  -7.499   2.207  0.00  0.00    -0.309 N 
ATOM     28  C   UNL     1       1.732  -7.014   3.335  0.00  0.00    +0.219 C 
ATOM     29  O   UNL     1       1.088  -6.292   4.067  0.00  0.00    -0.275 OA
ATOM     30  H   UNL     1       1.692  -8.076   1.622  0.00  0.00    +0.149 HD
BRANCH  27  31
ATOM     31  C   UNL     1      -0.205  -7.154   1.864  0.00  0.00    +0.159 C 
BRANCH  31  38
ATOM     32  C   UNL     1      -1.402  -9.188  -5.156  0.00  0.00    +0.044 C 
ATOM     33  C   UNL     1      -1.383  -9.194  -3.649  0.00  0.00    -0.046 A 
ATOM     34  C   UNL     1      -1.951 -10.266  -2.941  0.00  0.00    +0.021 A 
ATOM     35  C   UNL     1      -1.935 -10.275  -1.591  0.00  0.00    +0.093 A 
ATOM     36  N   UNL     1      -1.370  -9.245  -0.896  0.00  0.00    -0.308 N 
ATOM     37  C   UNL     1      -1.221  -9.003   0.443  0.00  0.00    +0.115 A 
ATOM     38  C   UNL     1      -0.582  -7.819   0.566  0.00  0.00    +0.051 A 
ATOM     39  N   UNL     1      -0.339  -7.337  -0.655  0.00  0.00    -0.342 N 
ATOM     40  C   UNL     1      -0.809  -8.185  -1.560  0.00  0.00    +0.116 A 
ATOM     41  C   UNL     1      -0.812  -8.164  -2.969  0.00  0.00    +0.048 A 
ATOM     42  H   UNL     1       0.109  -6.499  -0.850  0.00  0.00    +0.167 HD
ENDBRANCH  31  38
ENDBRANCH  27  31
ENDBRANCH   1  28
TORSDOF 5
