REMARK  Name = ZINC09586256
REMARK  4 active torsions:
REMARK  status: ('A' for Active; 'I' for Inactive)
REMARK    1  A    between atoms: C_12  and  C_13
REMARK    2  A    between atoms: C_12  and  N_52
REMARK    3  A    between atoms: N_15  and  C_16
REMARK    4  A    between atoms: C_17  and  C_24
REMARK                            x       y       z     vdW  Elec       q    Type
REMARK                         _______ _______ _______ _____ _____    ______ ____
ROOT
ATOM      1  C   UNL     1      -3.406   5.050  -1.206  0.00  0.00    +0.201 C 
ATOM      2  O   UNL     1      -2.901   5.628  -0.267  0.00  0.00    -0.278 OA
ATOM      3  N   UNL     1      -3.877   5.752  -2.256  0.00  0.00    -0.281 N 
ATOM      4  H   UNL     1      -4.281   5.289  -3.006  0.00  0.00    +0.155 HD
ENDROOT
BRANCH   3   5
ATOM      5  C   UNL     1      -3.782   7.135  -2.263  0.00  0.00    +0.084 A 
ATOM      6  C   UNL     1      -4.198   8.021  -3.242  0.00  0.00    +0.068 A 
ATOM      7  C   UNL     1      -3.984   9.447  -3.001  0.00  0.00    -0.023 A 
ATOM      8  C   UNL     1      -3.385   9.745  -1.834  0.00  0.00    -0.004 A 
ATOM      9  S   UNL     1      -3.109   8.174  -1.053  0.00  0.00    -0.077 S 
ATOM     10  C   UNL     1      -3.197  11.228  -1.659  0.00  0.00    +0.043 C 
ATOM     11  C   UNL     1      -4.153  11.866  -2.691  0.00  0.00    +0.010 C 
ATOM     12  C   UNL     1      -4.261  10.751  -3.751  0.00  0.00    +0.037 C 
BRANCH   6  13
ATOM     13  C   UNL     1      -4.835   7.546  -4.475  0.00  0.00    +0.244 C 
ATOM     14  O   UNL     1      -6.044   7.416  -4.525  0.00  0.00    -0.270 OA
ATOM     15  N   UNL     1      -4.081   7.253  -5.553  0.00  0.00    -0.325 N 
ATOM     16  H   UNL     1      -3.117   7.357  -5.513  0.00  0.00    +0.145 HD
ATOM     17  H   UNL     1      -4.502   6.939  -6.369  0.00  0.00    +0.145 HD
ENDBRANCH   6  13
ENDBRANCH   3   5
BRANCH   1  18
ATOM     18  C   UNL     1      -3.509   3.546  -1.198  0.00  0.00    +0.019 C 
BRANCH  18  28
ATOM     19  C   UNL     1       0.256   1.570   0.087  0.00  0.00    +0.000 C 
ATOM     20  C   UNL     1      -0.479   2.052  -1.166  0.00  0.00    -0.002 C 
ATOM     21  C   UNL     1      -1.809   1.306  -1.294  0.00  0.00    -0.015 C 
ATOM     22  C   UNL     1      -2.670   1.582  -0.060  0.00  0.00    -0.065 C 
ATOM     23  C   UNL     1      -1.935   1.101   1.194  0.00  0.00    -0.025 C 
ATOM     24  C   UNL     1      -0.604   1.846   1.321  0.00  0.00    +0.002 C 
ATOM     25  C   UNL     1      -2.797   1.391   2.426  0.00  0.00    +0.000 C 
ATOM     26  C   UNL     1      -3.095   2.892   2.488  0.00  0.00    -0.018 C 
ATOM     27  C   UNL     1      -3.793   3.323   1.196  0.00  0.00    -0.078 C 
ATOM     28  N   UNL     1      -2.904   3.037   0.050  0.00  0.00    +0.387 N 
ATOM     29  H   UNL     1      -2.004   3.509   0.201  0.00  0.00    -0.081 HD
ENDBRANCH  18  28
ENDBRANCH   1  18
TORSDOF 4
