REMARK  Name = ZINC19339151
REMARK  1 active torsions:
REMARK  status: ('A' for Active; 'I' for Inactive)
REMARK    1  A    between atoms: C_1  and  N_2
REMARK                            x       y       z     vdW  Elec       q    Type
REMARK                         _______ _______ _______ _____ _____    ______ ____
ROOT
ATOM      1  C   UNL     1      -0.271   1.389  -0.046  0.00  0.00    +0.138 C 
ATOM      2  N   UNL     1      -0.175  -0.073  -0.028  0.00  0.00    -0.270 N 
ATOM      3  C   UNL     1      -1.280  -0.924   0.018  0.00  0.00    +0.044 A 
ATOM      4  C   UNL     1      -2.644  -0.645   0.057  0.00  0.00    +0.024 A 
ATOM      5  C   UNL     1      -3.561  -1.675   0.099  0.00  0.00    +0.002 A 
ATOM      6  C   UNL     1      -3.135  -2.991   0.103  0.00  0.00    +0.001 A 
ATOM      7  C   UNL     1      -1.781  -3.276   0.065  0.00  0.00    +0.010 A 
ATOM      8  C   UNL     1      -0.864  -2.250   0.024  0.00  0.00    +0.032 A 
ATOM      9  C   UNL     1       0.645  -2.221  -0.020  0.00  0.00    +0.260 C 
ATOM     10  C   UNL     1       0.987  -0.748  -0.059  0.00  0.00    +0.275 C 
ATOM     11  O   UNL     1       2.099  -0.267  -0.108  0.00  0.00    -0.270 OA
ATOM     12  N   UNL     1       1.193  -2.833   1.184  0.00  0.00    -0.212 NA
ATOM     13  C   UNL     1       1.740  -4.010   1.170  0.00  0.00    +0.182 C 
ATOM     14  N   UNL     1       1.831  -4.718  -0.011  0.00  0.00    -0.260 N 
ATOM     15  C   UNL     1       1.673  -4.050  -1.209  0.00  0.00    +0.192 C 
ATOM     16  N   UNL     1       1.125  -2.873  -1.232  0.00  0.00    -0.211 NA
ATOM     17  N   UNL     1       2.098  -4.632  -2.381  0.00  0.00    -0.273 N 
ATOM     18  C   UNL     1       3.317  -5.452  -2.409  0.00  0.00    +0.114 C 
ATOM     19  C   UNL     1       4.126  -5.047  -3.648  0.00  0.00    +0.024 C 
ATOM     20  C   UNL     1       3.312  -5.376  -4.899  0.00  0.00    +0.038 C 
ATOM     21  C   UNL     1       1.926  -4.797  -4.793  0.00  0.00    -0.026 A 
ATOM     22  C   UNL     1       1.372  -4.458  -3.567  0.00  0.00    +0.039 A 
ATOM     23  C   UNL     1       0.086  -3.935  -3.503  0.00  0.00    +0.024 A 
ATOM     24  C   UNL     1      -0.644  -3.753  -4.660  0.00  0.00    +0.002 A 
ATOM     25  C   UNL     1      -0.095  -4.092  -5.883  0.00  0.00    +0.000 A 
ATOM     26  C   UNL     1       1.190  -4.605  -5.950  0.00  0.00    +0.005 A 
ATOM     27  N   UNL     1       2.231  -4.553   2.334  0.00  0.00    -0.331 N 
ATOM     28  H   UNL     1       2.168  -4.056   3.165  0.00  0.00    +0.145 HD
ATOM     29  H   UNL     1       2.640  -5.432   2.324  0.00  0.00    +0.145 HD
ATOM     30  H   UNL     1       2.003  -5.672  -0.000  0.00  0.00    +0.157 HD
ENDROOT
TORSDOF 0
