REMARK  Name = ZINC40704886
REMARK  5 active torsions:
REMARK  status: ('A' for Active; 'I' for Inactive)
REMARK    1  A    between atoms: C_1  and  C_2
REMARK    2  A    between atoms: C_7  and  N_8
REMARK    3  A    between atoms: C_10  and  N_26
REMARK    4  A    between atoms: C_11  and  N_15
REMARK    5  A    between atoms: N_15  and  C_16
REMARK                            x       y       z     vdW  Elec       q    Type
REMARK                         _______ _______ _______ _____ _____    ______ ____
ROOT
ATOM      1  N   UNL     1      -0.757  -0.044   2.416  0.00  0.00    -0.298 N 
ATOM      2  C   UNL     1      -0.616  -0.736   3.613  0.00  0.00    +0.149 A 
ATOM      3  C   UNL     1      -0.562  -0.049   4.828  0.00  0.00    +0.106 A 
ATOM      4  C   UNL     1      -0.419  -0.794   6.000  0.00  0.00    +0.149 A 
ATOM      5  N   UNL     1      -0.341  -2.120   5.917  0.00  0.00    -0.219 NA
ATOM      6  C   UNL     1      -0.396  -2.729   4.750  0.00  0.00    +0.225 A 
ATOM      7  N   UNL     1      -0.535  -2.065   3.620  0.00  0.00    -0.219 NA
ATOM      8  H   UNL     1      -0.920   0.913   2.425  0.00  0.00    +0.154 HD
ENDROOT
BRANCH   1  15
ATOM      9  C   UNL     1      -2.143   1.023   0.172  0.00  0.00    +0.045 C 
ATOM     10  C   UNL     1      -1.325  -0.240   0.078  0.00  0.00    -0.029 A 
ATOM     11  C   UNL     1      -1.228  -0.912  -1.125  0.00  0.00    +0.006 A 
ATOM     12  C   UNL     1      -0.478  -2.070  -1.212  0.00  0.00    +0.020 A 
ATOM     13  C   UNL     1       0.177  -2.561  -0.095  0.00  0.00    +0.043 A 
ATOM     14  C   UNL     1       0.083  -1.893   1.111  0.00  0.00    +0.043 A 
ATOM     15  C   UNL     1      -0.665  -0.725   1.200  0.00  0.00    +0.037 A 
ATOM     16 CL   UNL     1       1.116  -4.016  -0.210  0.00  0.00    -0.083 Cl
ENDBRANCH   1  15
BRANCH   3  17
ATOM     17  N   UNL     1      -0.648   1.351   4.869  0.00  0.00    -0.353 N 
ATOM     18  H   UNL     1      -0.746   1.855   4.046  0.00  0.00    +0.143 HD
ATOM     19  H   UNL     1      -0.609   1.815   5.720  0.00  0.00    +0.143 HD
ENDBRANCH   3  17
BRANCH   4  20
ATOM     20  N   UNL     1      -0.360  -0.160   7.236  0.00  0.00    -0.296 N 
ATOM     21  H   UNL     1      -0.335   0.809   7.284  0.00  0.00    +0.154 HD
BRANCH  20  22
ATOM     22  C   UNL     1      -0.336  -0.916   8.408  0.00  0.00    +0.059 A 
ATOM     23  C   UNL     1      -0.904  -2.172   8.436  0.00  0.00    +0.025 A 
ATOM     24  C   UNL     1      -0.887  -2.937   9.598  0.00  0.00    +0.003 A 
ATOM     25  C   UNL     1      -0.308  -2.467  10.738  0.00  0.00    +0.010 A 
ATOM     26  C   UNL     1       0.282  -1.193  10.750  0.00  0.00    +0.002 A 
ATOM     27  C   UNL     1       0.277  -0.405   9.573  0.00  0.00    +0.092 A 
ATOM     28  N   UNL     1       0.841   0.806   9.580  0.00  0.00    -0.253 NA
ATOM     29  C   UNL     1       1.411   1.286  10.658  0.00  0.00    +0.111 A 
ATOM     30  C   UNL     1       1.456   0.562  11.848  0.00  0.00    +0.020 A 
ATOM     31  C   UNL     1       0.888  -0.679  11.912  0.00  0.00    +0.011 A 
ENDBRANCH  20  22
ENDBRANCH   4  20
TORSDOF 4
