REMARK  Name = ZINC39675423
REMARK  14 active torsions:
REMARK  status: ('A' for Active; 'I' for Inactive)
REMARK    1  A    between atoms: C_1  and  C_2
REMARK    2  A    between atoms: C_2  and  C_3
REMARK    3  A    between atoms: C_3  and  C_4
REMARK    4  A    between atoms: C_4  and  C_5
REMARK    5  A    between atoms: C_5  and  C_7
REMARK    6  A    between atoms: C_5  and  C_8
REMARK    7  A    between atoms: C_12  and  C_21
REMARK    8  A    between atoms: N_23  and  C_24
REMARK    9  A    between atoms: C_24  and  C_26
REMARK   10  A    between atoms: C_24  and  C_27
REMARK   11  A    between atoms: C_27  and  C_28
REMARK   12  A    between atoms: C_28  and  C_29
REMARK   13  A    between atoms: C_32  and  O_35
REMARK   14  A    between atoms: O_35  and  C_36
REMARK                            x       y       z     vdW  Elec       q    Type
REMARK                         _______ _______ _______ _____ _____    ______ ____
ROOT
ATOM      1  C   UNL     1      -2.798  -4.228  -0.100  0.00  0.00    +0.218 C 
ATOM      2  O   UNL     1      -1.757  -4.834  -0.240  0.00  0.00    -0.275 OA
ATOM      3  N   UNL     1      -3.973  -4.887  -0.140  0.00  0.00    -0.300 N 
ATOM      4  C   UNL     1      -5.336  -4.324   0.003  0.00  0.00    +0.121 C 
ATOM      5  C   UNL     1      -6.189  -5.099  -1.027  0.00  0.00    +0.100 C 
ATOM      6  C   UNL     1      -5.434  -6.421  -1.245  0.00  0.00    -0.004 C 
ATOM      7  C   UNL     1      -4.193  -6.339  -0.345  0.00  0.00    +0.115 C 
ATOM      8  C   UNL     1      -5.011  -6.554  -2.705  0.00  0.00    -0.010 C 
ATOM      9  C   UNL     1      -4.314  -7.902  -2.909  0.00  0.00    -0.082 C 
ATOM     10  N   UNL     1      -5.229  -8.989  -2.543  0.00  0.00    +0.379 N 
ATOM     11  C   UNL     1      -5.558  -8.908  -1.115  0.00  0.00    -0.082 C 
ATOM     12  C   UNL     1      -6.308  -7.603  -0.835  0.00  0.00    -0.010 C 
ATOM     13  H   UNL     1      -6.076  -8.911  -3.087  0.00  0.00    -0.086 HD
ATOM     14  H   UNL     1      -4.790  -9.876  -2.736  0.00  0.00    -0.086 HD
ENDROOT
BRANCH   5  15
ATOM     15  C   UNL     1      -7.566  -5.363  -0.475  0.00  0.00    +0.218 C 
ATOM     16  O   UNL     1      -7.722  -5.520   0.718  0.00  0.00    -0.275 OA
ATOM     17  N   UNL     1      -8.624  -5.425  -1.307  0.00  0.00    -0.312 N 
ATOM     18  H   UNL     1      -8.500  -5.300  -2.261  0.00  0.00    +0.149 HD
BRANCH  17  19
ATOM     19  C   UNL     1      -9.963  -5.681  -0.771  0.00  0.00    +0.070 C 
ATOM     20  C   UNL     1     -10.589  -4.364  -0.309  0.00  0.00    +0.028 C 
BRANCH  19  21
ATOM     21  C   UNL     1     -10.838  -6.307  -1.859  0.00  0.00    +0.026 C 
BRANCH  21  22
ATOM     22  C   UNL     1     -10.281  -7.683  -2.233  0.00  0.00    +0.037 C 
BRANCH  22  23
ATOM     23  C   UNL     1     -11.142  -8.299  -3.305  0.00  0.00    -0.047 A 
ATOM     24  C   UNL     1     -12.225  -9.083  -2.954  0.00  0.00    +0.007 A 
ATOM     25  C   UNL     1     -13.016  -9.649  -3.935  0.00  0.00    +0.046 A 
ATOM     26  C   UNL     1     -12.722  -9.431  -5.273  0.00  0.00    +0.120 A 
ATOM     27  C   UNL     1     -11.634  -8.644  -5.623  0.00  0.00    +0.046 A 
ATOM     28  C   UNL     1     -10.850  -8.075  -4.638  0.00  0.00    +0.007 A 
BRANCH  26  29
ATOM     29  O   UNL     1     -13.498  -9.988  -6.240  0.00  0.00    -0.495 OA
ATOM     30  C   UNL     1     -13.136  -9.720  -7.597  0.00  0.00    +0.277 C 
ENDBRANCH  26  29
ENDBRANCH  22  23
ENDBRANCH  21  22
ENDBRANCH  19  21
ENDBRANCH  17  19
ENDBRANCH   5  15
BRANCH   1  31
ATOM     31  C   UNL     1      -2.778  -2.737   0.120  0.00  0.00    +0.072 C 
ATOM     32  C   UNL     1      -3.432  -2.411   1.465  0.00  0.00    +0.017 C 
BRANCH  31  33
ATOM     33  C   UNL     1      -1.331  -2.241   0.123  0.00  0.00    +0.012 C 
BRANCH  33  34
ATOM     34  C   UNL     1      -1.315  -0.714   0.222  0.00  0.00    +0.000 C 
BRANCH  34  36
ATOM     35  C   UNL     1       0.148   1.308   0.323  0.00  0.00    +0.004 C 
ATOM     36  C   UNL     1       0.132  -0.218   0.225  0.00  0.00    -0.003 C 
ENDBRANCH  34  36
ENDBRANCH  33  34
ENDBRANCH  31  33
ENDBRANCH   1  31
TORSDOF 10
