REMARK  Name = ZINC39995168
REMARK  7 active torsions:
REMARK  status: ('A' for Active; 'I' for Inactive)
REMARK    1  A    between atoms: C_1  and  C_2
REMARK    2  A    between atoms: C_6  and  N_12
REMARK    3  A    between atoms: C_9  and  C_11
REMARK    4  A    between atoms: C_13  and  C_15
REMARK    5  A    between atoms: C_15  and  S_16
REMARK    6  A    between atoms: S_16  and  C_17
REMARK    7  A    between atoms: N_22  and  C_23
REMARK                            x       y       z     vdW  Elec       q    Type
REMARK                         _______ _______ _______ _____ _____    ______ ____
ROOT
ATOM      1  S   UNL     1      -6.589  -5.339   2.792  0.00  0.00    -0.108 S 
ENDROOT
BRANCH   1   2
ATOM      2  C   UNL     1      -7.200  -5.563   4.486  0.00  0.00    +0.240 C 
ATOM      3  N   UNL     1      -7.657  -4.279   5.045  0.00  0.00    -0.259 N 
ATOM      4  N   UNL     1      -6.849  -4.031   6.161  0.00  0.00    -0.283 N 
ATOM      5  C   UNL     1      -5.989  -4.974   6.341  0.00  0.00    +0.183 C 
ATOM      6  N   UNL     1      -6.104  -5.972   5.381  0.00  0.00    -0.244 N 
ATOM      7  N   UNL     1      -5.059  -4.992   7.372  0.00  0.00    -0.303 N 
ATOM      8  C   UNL     1      -3.651  -4.660   7.116  0.00  0.00    +0.108 C 
ATOM      9  C   UNL     1      -3.221  -3.553   8.084  0.00  0.00    +0.019 C 
ATOM     10  C   UNL     1      -3.512  -3.995   9.520  0.00  0.00    +0.003 C 
ATOM     11  C   UNL     1      -5.014  -4.228   9.690  0.00  0.00    +0.019 C 
ATOM     12  C   UNL     1      -5.465  -5.337   8.741  0.00  0.00    +0.108 C 
ATOM     13  H   UNL     1      -8.373  -3.718   4.707  0.00  0.00    +0.169 HD
ATOM     14  H   UNL     1      -6.927  -3.247   6.728  0.00  0.00    +0.187 HD
BRANCH   6  15
ATOM     15  C   UNL     1      -5.334  -7.134   5.282  0.00  0.00    +0.039 A 
ATOM     16  C   UNL     1      -4.420  -7.450   6.279  0.00  0.00    +0.023 A 
ATOM     17  C   UNL     1      -3.661  -8.600   6.178  0.00  0.00    +0.002 A 
ATOM     18  C   UNL     1      -3.810  -9.435   5.086  0.00  0.00    +0.000 A 
ATOM     19  C   UNL     1      -4.719  -9.123   4.091  0.00  0.00    +0.002 A 
ATOM     20  C   UNL     1      -5.485  -7.978   4.189  0.00  0.00    +0.023 A 
ENDBRANCH   6  15
ENDBRANCH   1   2
BRANCH   1  21
ATOM     21  C   UNL     1      -5.289  -4.085   2.957  0.00  0.00    +0.168 C 
BRANCH  21  23
ATOM     22  N   UNL     1      -3.699  -2.896   1.482  0.00  0.00    -0.285 N 
ATOM     23  C   UNL     1      -4.690  -3.801   1.604  0.00  0.00    +0.225 C 
ATOM     24  O   UNL     1      -5.100  -4.388   0.625  0.00  0.00    -0.275 OA
ATOM     25  H   UNL     1      -3.372  -2.427   2.265  0.00  0.00    +0.151 HD
BRANCH  22  30
ATOM     26  C   UNL     1       0.262   0.549  -0.666  0.00  0.00    +0.030 C 
ATOM     27  C   UNL     1       0.177  -0.973  -0.543  0.00  0.00    +0.099 C 
ATOM     28  C   UNL     1      -1.265  -1.392  -0.452  0.00  0.00    -0.011 C 
ATOM     29  C   UNL     1      -1.635  -2.457   0.282  0.00  0.00    +0.065 C 
ATOM     30  C   UNL     1      -3.116  -2.620   0.166  0.00  0.00    +0.243 C 
ATOM     31  O   UNL     1      -3.610  -1.364  -0.346  0.00  0.00    -0.347 OA
ATOM     32  C   UNL     1      -2.495  -0.807  -1.076  0.00  0.00    +0.146 C 
ATOM     33  C   UNL     1      -2.578  -1.204  -2.551  0.00  0.00    +0.043 C 
ATOM     34  C   UNL     1      -0.624  -3.223   1.028  0.00  0.00    +0.258 C 
ATOM     35  O   UNL     1      -0.888  -4.272   1.583  0.00  0.00    -0.269 OA
ATOM     36  N   UNL     1       0.621  -2.686   1.058  0.00  0.00    -0.247 N 
ATOM     37  N   UNL     1       0.878  -1.409   0.671  0.00  0.00    -0.233 NA
ATOM     38  H   UNL     1       1.359  -3.236   1.366  0.00  0.00    +0.169 HD
ATOM     39  H   UNL     1       0.720  -0.765   1.431  0.00  0.00    +0.145 HD
ENDBRANCH  22  30
ENDBRANCH  21  23
ENDBRANCH   1  21
TORSDOF 5
