REMARK  Name = ZINC05339786
REMARK  7 active torsions:
REMARK  status: ('A' for Active; 'I' for Inactive)
REMARK    1  A    between atoms: C_1  and  C_2
REMARK    2  A    between atoms: C_5  and  N_8
REMARK    3  A    between atoms: C_12  and  N_13
REMARK    4  A    between atoms: N_13  and  N_14
REMARK    5  A    between atoms: C_15  and  C_17
REMARK    6  A    between atoms: C_22  and  N_23
REMARK    7  A    between atoms: C_26  and  C_28
REMARK                            x       y       z     vdW  Elec       q    Type
REMARK                         _______ _______ _______ _____ _____    ______ ____
ROOT
ATOM      1  N   UNL     1      -1.027  -3.236   1.265  0.00  0.00    -0.156 N 
ATOM      2  C   UNL     1      -0.793  -4.181   2.198  0.00  0.00    +0.273 C 
ATOM      3  O   UNL     1      -0.443  -4.000   3.353  0.00  0.00    -0.268 OA
ATOM      4  C   UNL     1      -1.046  -5.470   1.544  0.00  0.00    +0.076 C 
ATOM      5  C   UNL     1      -0.939  -6.733   2.100  0.00  0.00    +0.102 C 
ATOM      6  C   UNL     1      -1.438  -5.127   0.169  0.00  0.00    +0.070 C 
ATOM      7  N   UNL     1      -1.417  -3.834   0.066  0.00  0.00    -0.176 NA
ATOM      8  C   UNL     1      -1.806  -6.101  -0.921  0.00  0.00    +0.068 C 
ENDROOT
BRANCH   1  13
ATOM      9  C   UNL     1      -0.528   2.354   2.099  0.00  0.00    +0.044 C 
ATOM     10  C   UNL     1      -0.660   0.870   1.877  0.00  0.00    -0.050 A 
ATOM     11  C   UNL     1      -1.054   0.389   0.642  0.00  0.00    +0.005 A 
ATOM     12  C   UNL     1      -1.177  -0.972   0.436  0.00  0.00    +0.026 A 
ATOM     13  C   UNL     1      -0.903  -1.857   1.470  0.00  0.00    +0.060 A 
ATOM     14  C   UNL     1      -0.508  -1.370   2.710  0.00  0.00    +0.026 A 
ATOM     15  C   UNL     1      -0.382  -0.009   2.908  0.00  0.00    +0.005 A 
ENDBRANCH   1  13
BRANCH   5  16
ATOM     16  N   UNL     1      -0.563  -6.873   3.388  0.00  0.00    -0.271 N 
ATOM     17  H   UNL     1      -0.368  -6.089   3.924  0.00  0.00    +0.169 HD
BRANCH  16  18
ATOM     18  N   UNL     1      -0.455  -8.152   3.951  0.00  0.00    -0.233 N 
ATOM     19  C   UNL     1      -0.079  -8.292   5.238  0.00  0.00    +0.262 C 
ATOM     20  O   UNL     1       0.165  -7.309   5.910  0.00  0.00    -0.269 OA
ATOM     21  H   UNL     1      -0.650  -8.936   3.414  0.00  0.00    +0.173 HD
BRANCH  19  22
ATOM     22  C   UNL     1       0.035  -9.641   5.832  0.00  0.00    +0.068 A 
ATOM     23  C   UNL     1      -1.048 -10.520   5.787  0.00  0.00    +0.015 A 
ATOM     24  C   UNL     1      -0.935 -11.778   6.343  0.00  0.00    +0.001 A 
ATOM     25  C   UNL     1       0.249 -12.168   6.944  0.00  0.00    +0.002 A 
ATOM     26  C   UNL     1       1.326 -11.301   6.991  0.00  0.00    +0.033 A 
ATOM     27  C   UNL     1       1.228 -10.043   6.434  0.00  0.00    +0.138 A 
BRANCH  27  28
ATOM     28  N   UNL     1       2.384  -9.119   6.480  0.00  0.00    +0.057 N 
ATOM     29  O   UNL     1       3.373  -9.418   7.107  0.00  0.00    -0.126 OA
ATOM     30  O   UNL     1       2.338  -8.064   5.890  0.00  0.00    -0.126 OA
ENDBRANCH  27  28
ENDBRANCH  19  22
ENDBRANCH  16  18
ENDBRANCH   5  16
TORSDOF 5
