REMARK  Name = ZINC20990044
REMARK  8 active torsions:
REMARK  status: ('A' for Active; 'I' for Inactive)
REMARK    1  A    between atoms: C_1  and  C_2
REMARK    2  A    between atoms: C_8  and  N_10
REMARK    3  A    between atoms: C_11  and  C_13
REMARK    4  A    between atoms: C_13  and  C_15
REMARK    5  A    between atoms: C_13  and  O_16
REMARK    6  A    between atoms: O_16  and  C_17
REMARK    7  A    between atoms: C_17  and  C_19
REMARK    8  A    between atoms: C_21  and  N_27
REMARK                            x       y       z     vdW  Elec       q    Type
REMARK                         _______ _______ _______ _____ _____    ______ ____
ROOT
ATOM      1  O   UNL     1      -2.445  -0.090   0.024  0.00  0.00    -0.448 OA
ENDROOT
BRANCH   1   2
ATOM      2  C   UNL     1      -3.656  -0.891   0.031  0.00  0.00    +0.259 C 
ATOM      3  C   UNL     1      -4.095  -1.165  -1.409  0.00  0.00    +0.062 C 
BRANCH   2   5
ATOM      4  N   UNL     1      -5.937  -0.738   0.975  0.00  0.00    -0.309 N 
ATOM      5  C   UNL     1      -4.747  -0.145   0.755  0.00  0.00    +0.254 C 
ATOM      6  O   UNL     1      -4.554   0.988   1.141  0.00  0.00    -0.272 OA
ATOM      7  H   UNL     1      -6.112  -1.767   0.625  0.00  0.00    +0.149 HD
BRANCH   4  14
ATOM      8  C   UNL     1      -8.551  -0.427  -0.234  0.00  0.00    +0.009 C 
ATOM      9  C   UNL     1      -8.359  -0.583   1.276  0.00  0.00    +0.006 C 
ATOM     10  C   UNL     1      -8.422  -2.066   1.647  0.00  0.00    +0.005 C 
ATOM     11  C   UNL     1      -8.231  -2.223   3.157  0.00  0.00    +0.000 C 
ATOM     12  C   UNL     1      -6.869  -1.653   3.560  0.00  0.00    +0.002 C 
ATOM     13  C   UNL     1      -6.807  -0.170   3.189  0.00  0.00    +0.022 C 
ATOM     14  C   UNL     1      -6.998  -0.014   1.679  0.00  0.00    +0.076 C 
ENDBRANCH   4  14
ENDBRANCH   2   5
ENDBRANCH   1   2
BRANCH   1  15
ATOM     15  C   UNL     1      -1.273  -0.754   0.010  0.00  0.00    +0.360 C 
ATOM     16  O   UNL     1      -1.263  -1.969   0.003  0.00  0.00    -0.243 OA
BRANCH  15  17
ATOM     17  C   UNL     1       0.002  -0.004   0.002  0.00  0.00    +0.169 A 
ATOM     18  C   UNL     1       1.210  -0.697  -0.013  0.00  0.00    +0.095 A 
ATOM     19  C   UNL     1       2.403   0.026  -0.021  0.00  0.00    +0.067 A 
ATOM     20  C   UNL     1       2.334   1.418  -0.013  0.00  0.00    +0.100 A 
ATOM     21  C   UNL     1       1.093   2.035   0.003  0.00  0.00    +0.150 A 
ATOM     22  N   UNL     1      -0.016   1.325   0.009  0.00  0.00    -0.226 NA
ATOM     23 CL   UNL     1       1.000   3.768   0.012  0.00  0.00    -0.060 Cl
ATOM     24 CL   UNL     1       3.787   2.369  -0.022  0.00  0.00    -0.078 Cl
ATOM     25 CL   UNL     1       1.230  -2.433  -0.023  0.00  0.00    -0.079 Cl
BRANCH  19  26
ATOM     26  N   UNL     1       3.634  -0.628  -0.036  0.00  0.00    -0.356 N 
ATOM     27  H   UNL     1       4.566  -0.045  -0.041  0.00  0.00    +0.142 HD
ATOM     28  H   UNL     1       3.672  -1.727  -0.041  0.00  0.00    +0.142 HD
ENDBRANCH  19  26
ENDBRANCH  15  17
ENDBRANCH   1  15
TORSDOF 6
