REMARK  Name = ZINC67474507
REMARK  9 active torsions:
REMARK  status: ('A' for Active; 'I' for Inactive)
REMARK    1  A    between atoms: C_1  and  C_2
REMARK    2  A    between atoms: C_2  and  C_3
REMARK    3  A    between atoms: C_3  and  C_5
REMARK    4  A    between atoms: C_3  and  C_6
REMARK    5  A    between atoms: C_6  and  C_8
REMARK    6  A    between atoms: C_6  and  N_25
REMARK    7  A    between atoms: N_10  and  C_11
REMARK    8  A    between atoms: C_14  and  O_17
REMARK    9  A    between atoms: O_17  and  C_18
REMARK                            x       y       z     vdW  Elec       q    Type
REMARK                         _______ _______ _______ _____ _____    ______ ____
ROOT
ATOM      1  C   UNL     1       1.439  -2.607   2.449  0.00  0.00    +0.238 C 
ATOM      2  O   UNL     1       0.806  -2.874   3.448  0.00  0.00    -0.273 OA
ATOM      3  N   UNL     1       2.781  -2.723   2.450  0.00  0.00    -0.283 N 
ATOM      4  H   UNL     1       3.282  -2.569   1.634  0.00  0.00    +0.155 HD
ENDROOT
BRANCH   3   5
ATOM      5  C   UNL     1       3.454  -3.067   3.630  0.00  0.00    +0.052 A 
ATOM      6  C   UNL     1       2.876  -3.951   4.540  0.00  0.00    +0.030 A 
ATOM      7  C   UNL     1       3.576  -4.261   5.692  0.00  0.00    +0.069 A 
ATOM      8  C   UNL     1       4.823  -3.686   5.903  0.00  0.00    +0.221 A 
ATOM      9  N   UNL     1       5.341  -2.851   5.018  0.00  0.00    -0.219 NA
ATOM     10  C   UNL     1       4.705  -2.536   3.906  0.00  0.00    +0.138 A 
BRANCH   8  11
ATOM     11  O   UNL     1       5.517  -3.984   7.030  0.00  0.00    -0.438 OA
BRANCH  11  12
ATOM     12  C   UNL     1       6.683  -3.322   7.256  0.00  0.00    +0.130 A 
ATOM     13  C   UNL     1       6.669  -1.958   7.510  0.00  0.00    +0.048 A 
ATOM     14  C   UNL     1       7.854  -1.288   7.739  0.00  0.00    +0.023 A 
ATOM     15  C   UNL     1       9.055  -1.975   7.715  0.00  0.00    +0.041 A 
ATOM     16  C   UNL     1       9.071  -3.335   7.462  0.00  0.00    +0.023 A 
ATOM     17  C   UNL     1       7.887  -4.011   7.238  0.00  0.00    +0.048 A 
ATOM     18 CL   UNL     1      10.544  -1.129   8.002  0.00  0.00    -0.084 Cl
ENDBRANCH  11  12
ENDBRANCH   8  11
ENDBRANCH   3   5
BRANCH   1  19
ATOM     19  C   UNL     1       0.723  -2.146   1.205  0.00  0.00    +0.163 C 
BRANCH  19  20
ATOM     20  N   UNL     1      -0.684  -2.545   1.275  0.00  0.00    -0.288 N 
ATOM     21  C   UNL     1      -1.462  -2.099   2.281  0.00  0.00    +0.298 C 
ATOM     22  O   UNL     1      -0.995  -1.367   3.132  0.00  0.00    -0.253 OA
ATOM     23  N   UNL     1      -2.757  -2.466   2.346  0.00  0.00    -0.313 N 
ATOM     24  H   UNL     1      -1.057  -3.129   0.596  0.00  0.00    +0.151 HD
ATOM     25  H   UNL     1      -3.130  -3.051   1.667  0.00  0.00    +0.146 HD
ATOM     26  H   UNL     1      -3.317  -2.146   3.070  0.00  0.00    +0.146 HD
ENDBRANCH  19  20
BRANCH  19  27
ATOM     27  C   UNL     1       0.817  -0.622   1.098  0.00  0.00    +0.015 C 
ATOM     28  C   UNL     1       2.288  -0.206   1.025  0.00  0.00    +0.010 C 
BRANCH  27  30
ATOM     29  C   UNL     1       0.077   1.375  -0.207  0.00  0.00    +0.004 C 
ATOM     30  C   UNL     1       0.091  -0.154  -0.165  0.00  0.00    +0.002 C 
ENDBRANCH  27  30
ENDBRANCH  19  27
ENDBRANCH   1  19
TORSDOF 7
