REMARK  Name = ZINC59272898
REMARK  7 active torsions:
REMARK  status: ('A' for Active; 'I' for Inactive)
REMARK    1  A    between atoms: C_1  and  C_2
REMARK    2  A    between atoms: C_5  and  N_19
REMARK    3  A    between atoms: C_7  and  C_8
REMARK    4  A    between atoms: C_11  and  C_13
REMARK    5  A    between atoms: N_14  and  N_15
REMARK    6  A    between atoms: N_15  and  C_16
REMARK    7  A    between atoms: C_16  and  N_18
REMARK                            x       y       z     vdW  Elec       q    Type
REMARK                         _______ _______ _______ _____ _____    ______ ____
ROOT
ATOM      1  C   UNL     1       0.026  -0.004   2.489  0.00  0.00    +0.136 A 
ATOM      2  C   UNL     1      -0.842  -0.268   3.575  0.00  0.00    +0.050 A 
ATOM      3  C   UNL     1      -0.528   0.602   4.571  0.00  0.00    +0.051 A 
ATOM      4  C   UNL     1       0.577   1.428   4.065  0.00  0.00    +0.148 A 
ATOM      5  O   UNL     1       0.856   1.002   2.813  0.00  0.00    -0.454 OA
ENDROOT
BRANCH   1  12
ATOM      6  C   UNL     1      -0.018   1.503   0.010  0.00  0.00    +0.044 C 
ATOM      7  C   UNL     1       0.002  -0.004   0.002  0.00  0.00    -0.040 A 
ATOM      8  C   UNL     1       0.006  -0.690  -1.192  0.00  0.00    +0.006 A 
ATOM      9  C   UNL     1       0.025  -2.076  -1.198  0.00  0.00    +0.033 A 
ATOM     10  C   UNL     1       0.039  -2.785  -0.005  0.00  0.00    +0.127 A 
ATOM     11  C   UNL     1       0.036  -2.125   1.190  0.00  0.00    +0.044 A 
ATOM     12  C   UNL     1       0.023  -0.718   1.214  0.00  0.00    +0.022 A 
BRANCH  10  13
ATOM     13  N   UNL     1       0.058  -4.265  -0.029  0.00  0.00    +0.056 N 
ATOM     14  O   UNL     1       0.061  -4.905  -1.180  0.00  0.00    -0.126 OA
ATOM     15  O   UNL     1       0.072  -4.941   1.101  0.00  0.00    -0.126 OA
ENDBRANCH  10  13
ENDBRANCH   1  12
BRANCH   4  16
ATOM     16  C   UNL     1       1.218   2.451   4.748  0.00  0.00    +0.176 C 
ATOM     17  N   UNL     1       2.208   3.120   4.166  0.00  0.00    -0.185 NA
BRANCH  17  18
ATOM     18  N   UNL     1       2.804   4.071   4.801  0.00  0.00    -0.218 N 
ATOM     19  H   UNL     1       2.530   4.299   5.703  0.00  0.00    +0.176 HD
BRANCH  18  20
ATOM     20  C   UNL     1       3.809   4.749   4.211  0.00  0.00    +0.147 C 
ATOM     21  S   UNL     1       4.600   6.012   5.053  0.00  0.00    -0.017 S 
BRANCH  20  22
ATOM     22  N   UNL     1       4.190   4.433   2.958  0.00  0.00    -0.339 N 
ATOM     23  H   UNL     1       3.742   3.717   2.480  0.00  0.00    +0.144 HD
ATOM     24  H   UNL     1       4.913   4.921   2.533  0.00  0.00    +0.144 HD
ENDBRANCH  20  22
ENDBRANCH  18  20
ENDBRANCH  17  18
ENDBRANCH   4  16
TORSDOF 6
