REMARK  Name = ZINC39671215
REMARK  6 active torsions:
REMARK  status: ('A' for Active; 'I' for Inactive)
REMARK    1  A    between atoms: C_1  and  C_2
REMARK    2  A    between atoms: C_5  and  C_7
REMARK    3  A    between atoms: C_7  and  N_8
REMARK    4  A    between atoms: C_9  and  C_11
REMARK    5  A    between atoms: C_22  and  C_24
REMARK    6  A    between atoms: C_24  and  C_30
REMARK                            x       y       z     vdW  Elec       q    Type
REMARK                         _______ _______ _______ _____ _____    ______ ____
ROOT
ATOM      1  C   UNL     1       3.730  -5.100   2.667  0.00  0.00    +0.100 C 
ATOM      2  C   UNL     1       4.174  -3.857   3.470  0.00  0.00    +0.121 C 
ATOM      3  N   UNL     1       4.036  -4.259   4.889  0.00  0.00    -0.300 N 
ATOM      4  C   UNL     1       4.501  -5.667   4.921  0.00  0.00    +0.115 C 
ATOM      5  C   UNL     1       3.949  -6.286   3.622  0.00  0.00    -0.004 C 
ATOM      6  C   UNL     1       4.963  -7.261   3.029  0.00  0.00    -0.010 C 
ATOM      7  C   UNL     1       5.120  -8.460   3.969  0.00  0.00    -0.082 C 
ATOM      8  N   UNL     1       3.821  -9.120   4.145  0.00  0.00    +0.379 N 
ATOM      9  C   UNL     1       2.879  -8.205   4.800  0.00  0.00    -0.082 C 
ATOM     10  C   UNL     1       2.627  -6.995   3.896  0.00  0.00    -0.010 C 
ATOM     11  C   UNL     1       3.589  -3.514   5.919  0.00  0.00    +0.222 C 
ATOM     12  O   UNL     1       3.168  -2.394   5.719  0.00  0.00    -0.275 OA
ATOM     13  H   UNL     1       3.456  -9.387   3.243  0.00  0.00    -0.086 HD
ATOM     14  H   UNL     1       3.939  -9.944   4.715  0.00  0.00    -0.086 HD
ENDROOT
BRANCH  11  15
ATOM     15  C   UNL     1       3.613  -4.071   7.319  0.00  0.00    +0.044 C 
ATOM     16  C   UNL     1       2.626  -5.236   7.421  0.00  0.00    +0.016 C 
ATOM     17  C   UNL     1       1.216  -4.740   7.094  0.00  0.00    +0.001 C 
ATOM     18  C   UNL     1       0.817  -3.645   8.085  0.00  0.00    +0.000 C 
ATOM     19  C   UNL     1       1.804  -2.480   7.983  0.00  0.00    +0.001 C 
ATOM     20  C   UNL     1       3.214  -2.976   8.311  0.00  0.00    +0.016 C 
ATOM     21  C   UNL     1       5.023  -4.567   7.647  0.00  0.00    +0.021 C 
ENDBRANCH  11  15
BRANCH   1  23
ATOM     22  N   UNL     1       1.821  -5.580   1.169  0.00  0.00    -0.306 N 
ATOM     23  C   UNL     1       2.274  -4.990   2.293  0.00  0.00    +0.219 C 
ATOM     24  O   UNL     1       1.510  -4.372   3.003  0.00  0.00    -0.275 OA
ATOM     25  H   UNL     1       2.432  -6.075   0.601  0.00  0.00    +0.149 HD
BRANCH  22  26
ATOM     26  C   UNL     1       0.406  -5.473   0.805  0.00  0.00    +0.202 C 
BRANCH  26  31
ATOM     27  C   UNL     1      -0.088  -6.621  -4.072  0.00  0.00    +0.111 C 
ATOM     28  C   UNL     1      -0.050  -6.705  -2.568  0.00  0.00    +0.214 A 
ATOM     29  N   UNL     1      -0.296  -7.762  -1.848  0.00  0.00    -0.113 NA
ATOM     30  N   UNL     1      -0.170  -7.468  -0.602  0.00  0.00    -0.111 NA
ATOM     31  C   UNL     1       0.161  -6.214  -0.484  0.00  0.00    +0.234 A 
ATOM     32  O   UNL     1       0.249  -5.703  -1.724  0.00  0.00    -0.423 OA
ENDBRANCH  26  31
ENDBRANCH  22  26
ENDBRANCH   1  23
TORSDOF 4
