REMARK  Name = ZINC49036070
REMARK  5 active torsions:
REMARK  status: ('A' for Active; 'I' for Inactive)
REMARK    1  A    between atoms: C_3  and  C_32
REMARK    2  A    between atoms: C_6  and  S_7
REMARK    3  A    between atoms: S_7  and  N_10
REMARK    4  A    between atoms: C_11  and  C_29
REMARK    5  A    between atoms: C_21  and  C_23
REMARK                            x       y       z     vdW  Elec       q    Type
REMARK                         _______ _______ _______ _____ _____    ______ ____
ROOT
ATOM      1  N   UNL     1      -1.985  -1.034  -1.576  0.00  0.00    -0.158 NA
ATOM      2  C   UNL     1      -2.797   0.040  -2.176  0.00  0.00    +0.117 C 
ATOM      3  C   UNL     1      -2.246   0.332  -3.544  0.00  0.00    +0.020 A 
ATOM      4  C   UNL     1      -2.454   1.397  -4.398  0.00  0.00    +0.140 A 
ATOM      5  N   UNL     1      -1.742   1.183  -5.483  0.00  0.00    -0.181 NA
ATOM      6  N   UNL     1      -1.092   0.071  -5.400  0.00  0.00    -0.274 N 
ATOM      7  H   UNL     1      -0.504  -0.289  -6.083  0.00  0.00    +0.189 HD
ATOM      8  C   UNL     1      -1.360  -0.513  -4.211  0.00  0.00    +0.107 A 
ATOM      9  C   UNL     1      -0.890  -1.766  -3.611  0.00  0.00    +0.200 C 
ATOM     10  O   UNL     1       0.042  -2.394  -4.068  0.00  0.00    -0.289 OA
ATOM     11  C   UNL     1      -1.647  -2.222  -2.376  0.00  0.00    +0.156 C 
ENDROOT
BRANCH  11  12
ATOM     12  C   UNL     1      -2.929  -2.944  -2.797  0.00  0.00    +0.020 C 
ATOM     13  C   UNL     1      -3.700  -3.388  -1.550  0.00  0.00    +0.033 C 
ATOM     14  C   UNL     1      -4.939  -4.176  -1.981  0.00  0.00    +0.160 C 
ATOM     15  O   UNL     1      -4.539  -5.294  -2.777  0.00  0.00    -0.380 OA
ATOM     16  C   UNL     1      -3.854  -4.938  -3.979  0.00  0.00    +0.160 C 
ATOM     17  C   UNL     1      -2.571  -4.179  -3.630  0.00  0.00    +0.033 C 
ENDBRANCH  11  12
BRANCH   1  18
ATOM     18  S   UNL     1      -1.451  -0.902  -0.014  0.00  0.00    +0.063 S 
ATOM     19  O   UNL     1      -1.204  -2.224   0.444  0.00  0.00    -0.153 OA
ATOM     20  O   UNL     1      -2.348  -0.022   0.649  0.00  0.00    -0.153 OA
BRANCH  18  26
ATOM     21  C   UNL     1       0.200   1.274   0.189  0.00  0.00    +0.032 A 
ATOM     22  C   UNL     1       1.449   1.873   0.138  0.00  0.00    +0.034 A 
ATOM     23  C   UNL     1       2.555   1.101  -0.160  0.00  0.00    +0.144 A 
ATOM     24  N   UNL     1       2.432  -0.191  -0.396  0.00  0.00    -0.249 NA
ATOM     25  C   UNL     1       1.260  -0.794  -0.357  0.00  0.00    +0.139 A 
ATOM     26  C   UNL     1       0.110  -0.086  -0.065  0.00  0.00    +0.124 A 
BRANCH  23  27
ATOM     27  C   UNL     1       3.918   1.742  -0.218  0.00  0.00    +0.434 C 
ATOM     28  F   UNL     1       4.511   1.690   1.048  0.00  0.00    -0.164 F 
ATOM     29  F   UNL     1       4.718   1.055  -1.136  0.00  0.00    -0.164 F 
ATOM     30  F   UNL     1       3.789   3.076  -0.618  0.00  0.00    -0.164 F 
ENDBRANCH  23  27
ENDBRANCH  18  26
ENDBRANCH   1  18
BRANCH   2  31
ATOM     31  C   UNL     1      -2.716   1.295  -1.305  0.00  0.00    +0.012 C 
ATOM     32  C   UNL     1      -3.956   1.672  -0.492  0.00  0.00    +0.006 C 
ATOM     33  C   UNL     1      -3.566   2.498  -1.720  0.00  0.00    +0.006 C 
ENDBRANCH   2  31
TORSDOF 5
