REMARK  Name = ZINC03528615
REMARK  13 active torsions:
REMARK  status: ('A' for Active; 'I' for Inactive)
REMARK    1  A    between atoms: C_1  and  C_2
REMARK    2  A    between atoms: C_2  and  C_3
REMARK    3  A    between atoms: C_2  and  C_4
REMARK    4  A    between atoms: C_4  and  N_5
REMARK    5  A    between atoms: C_6  and  N_31
REMARK    6  A    between atoms: C_7  and  N_14
REMARK    7  A    between atoms: N_14  and  C_15
REMARK    8  A    between atoms: C_15  and  C_16
REMARK    9  A    between atoms: C_16  and  C_17
REMARK   10  A    between atoms: C_16  and  C_18
REMARK   11  A    between atoms: C_19  and  C_21
REMARK   12  A    between atoms: C_25  and  O_27
REMARK   13  A    between atoms: O_27  and  C_28
REMARK                            x       y       z     vdW  Elec       q    Type
REMARK                         _______ _______ _______ _____ _____    ______ ____
ROOT
ATOM      1  N   UNL     1       0.360  -2.654   2.754  0.00  0.00    -0.260 N 
ATOM      2  C   UNL     1      -0.225  -2.092   3.830  0.00  0.00    +0.251 C 
ATOM      3  O   UNL     1      -0.402  -2.749   4.838  0.00  0.00    -0.270 OA
ENDROOT
BRANCH   1   6
ATOM      4  N   UNL     1       1.699  -0.045   0.541  0.00  0.00    -0.280 N 
ATOM      5  C   UNL     1       1.463  -0.784   1.677  0.00  0.00    +0.127 A 
ATOM      6  C   UNL     1       0.622  -1.876   1.607  0.00  0.00    +0.140 A 
ATOM      7  C   UNL     1       0.031  -2.200   0.371  0.00  0.00    +0.277 A 
ATOM      8  O   UNL     1      -0.716  -3.160   0.281  0.00  0.00    -0.266 OA
ATOM      9  N   UNL     1       0.295  -1.443  -0.711  0.00  0.00    -0.273 N 
ATOM     10  H   UNL     1      -0.160  -1.692  -1.681  0.00  0.00    +0.173 HD
ATOM     11  C   UNL     1       1.113  -0.379  -0.623  0.00  0.00    +0.331 A 
ATOM     12  O   UNL     1       1.331   0.290  -1.615  0.00  0.00    -0.246 OA
BRANCH   5  13
ATOM     13  N   UNL     1       2.057  -0.438   2.867  0.00  0.00    -0.343 N 
ATOM     14  H   UNL     1       1.864  -1.034   3.771  0.00  0.00    +0.144 HD
ATOM     15  H   UNL     1       2.726   0.434   2.915  0.00  0.00    +0.144 HD
ENDBRANCH   5  13
BRANCH   4  16
ATOM     16  C   UNL     1       2.589   1.117   0.601  0.00  0.00    +0.131 C 
BRANCH  16  18
ATOM     17  C   UNL     1       4.933   1.906   0.244  0.00  0.00    +0.009 C 
ATOM     18  C   UNL     1       4.024   0.677   0.305  0.00  0.00    +0.003 C 
ATOM     19  C   UNL     1       4.508  -0.261   1.413  0.00  0.00    +0.009 C 
ENDBRANCH  16  18
ENDBRANCH   4  16
ENDBRANCH   1   6
BRANCH   2  20
ATOM     20  C   UNL     1      -0.652  -0.677   3.785  0.00  0.00    +0.041 A 
ATOM     21  C   UNL     1      -0.927  -0.067   2.560  0.00  0.00    +0.013 A 
ATOM     22  C   UNL     1      -1.325   1.253   2.522  0.00  0.00    +0.004 A 
ATOM     23  C   UNL     1      -1.454   1.975   3.694  0.00  0.00    +0.046 A 
ATOM     24  C   UNL     1      -1.183   1.377   4.917  0.00  0.00    +0.128 A 
ATOM     25  C   UNL     1      -0.787   0.051   4.967  0.00  0.00    +0.059 A 
BRANCH  24  26
ATOM     26  O   UNL     1      -1.312   2.091   6.066  0.00  0.00    -0.434 OA
BRANCH  26  27
ATOM     27  C   UNL     1      -1.730   3.452   5.941  0.00  0.00    +0.541 C 
ATOM     28  F   UNL     1      -0.803   4.155   5.163  0.00  0.00    -0.166 F 
ATOM     29  F   UNL     1      -2.986   3.500   5.326  0.00  0.00    -0.166 F 
ENDBRANCH  26  27
ENDBRANCH  24  26
ENDBRANCH   2  20
BRANCH   1  30
ATOM     30  C   UNL     1       0.725  -4.073   2.775  0.00  0.00    +0.117 C 
BRANCH  30  31
ATOM     31  C   UNL     1       2.197  -4.215   3.164  0.00  0.00    +0.001 C 
ATOM     32  C   UNL     1       2.400  -3.700   4.591  0.00  0.00    +0.009 C 
ATOM     33  C   UNL     1       2.604  -5.688   3.091  0.00  0.00    +0.009 C 
ENDBRANCH  30  31
ENDBRANCH   1  30
TORSDOF 9
