REMARK  Name = ZINC03998300
REMARK  9 active torsions:
REMARK  status: ('A' for Active; 'I' for Inactive)
REMARK    1  A    between atoms: C_1  and  C_2
REMARK    2  A    between atoms: C_2  and  C_3
REMARK    3  A    between atoms: C_2  and  C_4
REMARK    4  A    between atoms: C_2  and  C_5
REMARK    5  A    between atoms: C_12  and  N_26
REMARK    6  A    between atoms: C_13  and  C_24
REMARK    7  A    between atoms: C_14  and  C_16
REMARK    8  A    between atoms: C_21  and  O_22
REMARK    9  A    between atoms: O_22  and  C_23
REMARK                            x       y       z     vdW  Elec       q    Type
REMARK                         _______ _______ _______ _____ _____    ______ ____
ROOT
ATOM      1  C   UNL     1       0.777  -0.707  -1.712  0.00  0.00    +0.076 A 
ATOM      2  C   UNL     1       0.976  -2.081  -1.697  0.00  0.00    +0.050 A 
ATOM      3  C   UNL     1       1.732  -2.412  -2.787  0.00  0.00    +0.222 A 
ATOM      4  N   UNL     1       1.994  -1.279  -3.458  0.00  0.00    -0.246 N 
ATOM      5  H   UNL     1       2.510  -1.205  -4.276  0.00  0.00    +0.192 HD
ATOM      6  N   UNL     1       1.381  -0.220  -2.770  0.00  0.00    -0.175 NA
ATOM      7  O   UNL     1       2.106  -3.687  -3.060  0.00  0.00    -0.423 OA
ATOM      8  C   UNL     1       1.949  -4.605  -2.085  0.00  0.00    +0.200 C 
ATOM      9  C   UNL     1       1.216  -4.400  -0.969  0.00  0.00    +0.098 C 
ATOM     10  C   UNL     1       0.488  -3.106  -0.706  0.00  0.00    +0.105 C 
ENDROOT
BRANCH  10  11
ATOM     11  C   UNL     1      -0.995  -3.312  -0.876  0.00  0.00    +0.007 A 
ATOM     12  C   UNL     1      -1.514  -3.609  -2.122  0.00  0.00    +0.008 A 
ATOM     13  C   UNL     1      -2.874  -3.798  -2.279  0.00  0.00    +0.001 A 
ATOM     14  C   UNL     1      -3.720  -3.689  -1.190  0.00  0.00    +0.004 A 
ATOM     15  C   UNL     1      -3.207  -3.393   0.058  0.00  0.00    +0.046 A 
ATOM     16  C   UNL     1      -1.841  -3.208   0.219  0.00  0.00    +0.124 A 
BRANCH  16  17
ATOM     17  O   UNL     1      -1.333  -2.921   1.446  0.00  0.00    -0.495 OA
ATOM     18  C   UNL     1      -2.262  -2.830   2.528  0.00  0.00    +0.277 C 
ENDBRANCH  16  17
ENDBRANCH  10  11
BRANCH   1  20
ATOM     19  C   UNL     1      -1.491  -0.234  -0.830  0.00  0.00    +0.017 C 
ATOM     20  C   UNL     1      -0.001   0.085  -0.694  0.00  0.00    +0.007 C 
ATOM     21  C   UNL     1       0.225   1.580  -0.929  0.00  0.00    +0.017 C 
ATOM     22  C   UNL     1       0.473  -0.287   0.713  0.00  0.00    +0.017 C 
ENDBRANCH   1  20
BRANCH   8  23
ATOM     23  N   UNL     1       2.571  -5.820  -2.236  0.00  0.00    -0.328 N 
ATOM     24  H   UNL     1       3.104  -5.997  -3.027  0.00  0.00    +0.145 HD
ATOM     25  H   UNL     1       2.477  -6.501  -1.552  0.00  0.00    +0.145 HD
ENDBRANCH   8  23
BRANCH   9  26
ATOM     26  C   UNL     1       1.127  -5.451   0.001  0.00  0.00    +0.101 C 
ATOM     27  N   UNL     1       1.057  -6.284   0.769  0.00  0.00    -0.191 NA
ENDBRANCH   9  26
TORSDOF 5
