REMARK  Name = ZINC40516884
REMARK  3 active torsions:
REMARK  status: ('A' for Active; 'I' for Inactive)
REMARK    1  A    between atoms: C_3  and  N_13
REMARK    2  A    between atoms: C_4  and  C_11
REMARK    3  A    between atoms: C_6  and  C_7
REMARK                            x       y       z     vdW  Elec       q    Type
REMARK                         _______ _______ _______ _____ _____    ______ ____
ROOT
ATOM      1  C   UNL     1      -0.017   1.381   0.010  0.00  0.00    +0.014 A 
ATOM      2  C   UNL     1       1.165   2.096   0.002  0.00  0.00    +0.030 A 
ATOM      3  C   UNL     1       2.381   1.429  -0.013  0.00  0.00    +0.084 A 
ATOM      4  C   UNL     1       2.404   0.026  -0.021  0.00  0.00    +0.078 A 
ATOM      5  C   UNL     1       1.202  -0.684  -0.013  0.00  0.00    +0.033 A 
ATOM      6  C   UNL     1       0.002  -0.004   0.002  0.00  0.00    +0.056 A 
ENDROOT
BRANCH   3   7
ATOM      7  N   UNL     1       3.577   2.150  -0.022  0.00  0.00    -0.217 N 
ATOM      8  C   UNL     1       3.711   3.491  -0.011  0.00  0.00    +0.227 A 
ATOM      9  N   UNL     1       4.989   3.774  -0.024  0.00  0.00    -0.202 NA
ATOM     10  C   UNL     1       5.702   2.643  -0.044  0.00  0.00    +0.232 A 
ATOM     11  N   UNL     1       4.878   1.622  -0.037  0.00  0.00    -0.129 NA
ATOM     12  N   UNL     1       7.095   2.562  -0.062  0.00  0.00    -0.326 N 
ATOM     13  H   UNL     1       7.628   3.373  -0.060  0.00  0.00    +0.145 HD
ATOM     14  H   UNL     1       7.530   1.696  -0.075  0.00  0.00    +0.145 HD
ENDBRANCH   3   7
BRANCH   6  15
ATOM     15  C   UNL     1      -1.295  -0.772   0.010  0.00  0.00    +0.417 C 
ATOM     16  F   UNL     1      -2.368   0.126   0.025  0.00  0.00    -0.166 F 
ATOM     17  F   UNL     1      -1.371  -1.571  -1.136  0.00  0.00    -0.166 F 
ATOM     18  F   UNL     1      -1.349  -1.583   1.149  0.00  0.00    -0.166 F 
ENDBRANCH   6  15
BRANCH   4  19
ATOM     19  C   UNL     1       3.654  -0.674  -0.038  0.00  0.00    +0.101 C 
ATOM     20  N   UNL     1       4.645  -1.229  -0.051  0.00  0.00    -0.191 NA
ENDBRANCH   4  19
TORSDOF 3
