REMARK  Name = ZINC41643533
REMARK  8 active torsions:
REMARK  status: ('A' for Active; 'I' for Inactive)
REMARK    1  A    between atoms: C_1  and  C_2
REMARK    2  A    between atoms: C_5  and  C_7
REMARK    3  A    between atoms: C_7  and  N_8
REMARK    4  A    between atoms: C_9  and  C_11
REMARK    5  A    between atoms: C_20  and  O_22
REMARK    6  A    between atoms: O_22  and  C_23
REMARK    7  A    between atoms: C_23  and  C_24
REMARK    8  A    between atoms: C_23  and  C_25
REMARK                            x       y       z     vdW  Elec       q    Type
REMARK                         _______ _______ _______ _____ _____    ______ ____
ROOT
ATOM      1  C   UNL     1       3.303  -4.889  -3.059  0.00  0.00    +0.054 A 
ATOM      2  C   UNL     1       4.067  -5.984  -3.350  0.00  0.00    +0.105 A 
ATOM      3  C   UNL     1       4.325  -6.318  -4.702  0.00  0.00    +0.338 A 
ATOM      4  O   UNL     1       5.006  -7.295  -4.952  0.00  0.00    -0.245 OA
ATOM      5  O   UNL     1       3.839  -5.584  -5.714  0.00  0.00    -0.422 OA
ATOM      6  C   UNL     1       3.078  -4.490  -5.496  0.00  0.00    +0.143 A 
ATOM      7  C   UNL     1       2.772  -4.098  -4.180  0.00  0.00    +0.030 A 
ATOM      8  C   UNL     1       1.979  -2.970  -3.952  0.00  0.00    +0.016 A 
ATOM      9  C   UNL     1       1.498  -2.252  -5.009  0.00  0.00    +0.046 A 
ATOM     10  C   UNL     1       1.793  -2.639  -6.315  0.00  0.00    +0.124 A 
ATOM     11  C   UNL     1       2.587  -3.748  -6.559  0.00  0.00    +0.092 A 
ENDROOT
BRANCH   1  13
ATOM     12  N   UNL     1       3.612  -5.170  -0.641  0.00  0.00    -0.304 N 
ATOM     13  C   UNL     1       3.013  -4.512  -1.653  0.00  0.00    +0.245 C 
ATOM     14  O   UNL     1       2.235  -3.610  -1.414  0.00  0.00    -0.270 OA
ATOM     15  H   UNL     1       4.184  -5.931  -0.829  0.00  0.00    +0.149 HD
BRANCH  12  16
ATOM     16  C   UNL     1       3.401  -4.737   0.742  0.00  0.00    +0.179 C 
BRANCH  16  21
ATOM     17  C   UNL     1       4.563  -8.570   3.807  0.00  0.00    +0.086 C 
ATOM     18  C   UNL     1       4.682  -7.299   3.006  0.00  0.00    +0.102 A 
ATOM     19  C   UNL     1       5.768  -6.508   2.942  0.00  0.00    +0.045 A 
ATOM     20  C   UNL     1       5.442  -5.434   2.082  0.00  0.00    +0.046 A 
ATOM     21  C   UNL     1       4.176  -5.632   1.673  0.00  0.00    +0.122 A 
ATOM     22  O   UNL     1       3.723  -6.766   2.231  0.00  0.00    -0.463 OA
ENDBRANCH  16  21
ENDBRANCH  12  16
ENDBRANCH   1  13
BRANCH  10  23
ATOM     23  O   UNL     1       1.308  -1.916  -7.357  0.00  0.00    -0.489 OA
BRANCH  23  24
ATOM     24  C   UNL     1       0.523  -0.764  -7.038  0.00  0.00    +0.167 C 
ATOM     25  C   UNL     1       1.449   0.422  -6.760  0.00  0.00    +0.051 C 
ATOM     26  C   UNL     1      -0.394  -0.430  -8.216  0.00  0.00    +0.051 C 
ENDBRANCH  23  24
ENDBRANCH  10  23
TORSDOF 5
