REMARK  Name = ZINC39856201
REMARK  9 active torsions:
REMARK  status: ('A' for Active; 'I' for Inactive)
REMARK    1  A    between atoms: C_1  and  C_2
REMARK    2  A    between atoms: C_6  and  C_7
REMARK    3  A    between atoms: N_9  and  N_10
REMARK    4  A    between atoms: C_11  and  C_13
REMARK    5  A    between atoms: C_21  and  C_29
REMARK    6  A    between atoms: C_21  and  C_30
REMARK    7  A    between atoms: N_24  and  N_25
REMARK    8  A    between atoms: N_25  and  C_26
REMARK    9  A    between atoms: C_26  and  N_28
REMARK                            x       y       z     vdW  Elec       q    Type
REMARK                         _______ _______ _______ _____ _____    ______ ____
ROOT
ATOM      1  C   UNL     1      -0.018   1.503   0.010  0.00  0.00    +0.048 C 
ATOM      2  C   UNL     1       0.002  -0.004   0.002  0.00  0.00    +0.009 A 
ATOM      3  C   UNL     1       0.009  -0.838  -1.123  0.00  0.00    +0.042 A 
ATOM      4  C   UNL     1       0.027  -2.137  -0.673  0.00  0.00    +0.116 A 
ATOM      5  O   UNL     1       0.035  -2.112   0.658  0.00  0.00    -0.454 OA
ATOM      6  C   UNL     1       0.024  -0.830   1.091  0.00  0.00    +0.194 A 
ATOM      7  C   UNL     1       0.034  -3.326  -1.600  0.00  0.00    +0.081 C 
ATOM      8  C   UNL     1      -0.491  -2.903  -2.974  0.00  0.00    -0.023 C 
ATOM      9  C   UNL     1       0.279  -1.685  -3.495  0.00  0.00    +0.064 C 
ATOM     10  C   UNL     1       0.000  -0.512  -2.566  0.00  0.00    +0.070 C 
ATOM     11  N   UNL     1      -0.228   0.686  -3.008  0.00  0.00    -0.185 NA
ATOM     12  C   UNL     1      -1.976  -2.549  -2.860  0.00  0.00    +0.011 C 
ATOM     13  C   UNL     1      -0.325  -4.063  -3.957  0.00  0.00    +0.011 C 
ENDROOT
BRANCH   6  14
ATOM     14  C   UNL     1       0.032  -0.400   2.494  0.00  0.00    +0.296 C 
ATOM     15  O   UNL     1       0.018   0.786   2.766  0.00  0.00    -0.265 OA
ATOM     16  N   UNL     1       0.054  -1.317   3.480  0.00  0.00    -0.228 N 
ATOM     17  H   UNL     1       0.065  -2.263   3.263  0.00  0.00    +0.173 HD
BRANCH  16  18
ATOM     18  N   UNL     1       0.061  -0.906   4.819  0.00  0.00    -0.230 N 
ATOM     19  C   UNL     1       0.084  -1.824   5.806  0.00  0.00    +0.260 C 
ATOM     20  O   UNL     1       0.098  -3.009   5.534  0.00  0.00    -0.269 OA
ATOM     21  H   UNL     1       0.050   0.039   5.037  0.00  0.00    +0.173 HD
BRANCH  19  22
ATOM     22  C   UNL     1       0.091  -1.390   7.218  0.00  0.00    +0.038 A 
ATOM     23  C   UNL     1       0.070  -0.030   7.534  0.00  0.00    +0.016 A 
ATOM     24  C   UNL     1       0.077   0.369   8.853  0.00  0.00    +0.039 A 
ATOM     25  C   UNL     1       0.106  -0.577   9.866  0.00  0.00    +0.123 A 
ATOM     26  C   UNL     1       0.128  -1.929   9.559  0.00  0.00    +0.039 A 
ATOM     27  C   UNL     1       0.114  -2.339   8.243  0.00  0.00    +0.016 A 
ATOM     28  F   UNL     1       0.114  -0.180  11.158  0.00  0.00    -0.205 F 
ENDBRANCH  19  22
ENDBRANCH  16  18
ENDBRANCH   6  14
BRANCH  11  29
ATOM     29  N   UNL     1      -0.224   0.938  -4.386  0.00  0.00    -0.218 N 
ATOM     30  H   UNL     1      -0.050   0.216  -5.010  0.00  0.00    +0.176 HD
BRANCH  29  31
ATOM     31  C   UNL     1      -0.461   2.183  -4.844  0.00  0.00    +0.147 C 
ATOM     32  S   UNL     1      -0.456   2.490  -6.529  0.00  0.00    -0.017 S 
BRANCH  31  33
ATOM     33  N   UNL     1      -0.703   3.186  -3.977  0.00  0.00    -0.339 N 
ATOM     34  H   UNL     1      -0.706   3.011  -3.023  0.00  0.00    +0.144 HD
ATOM     35  H   UNL     1      -0.874   4.082  -4.307  0.00  0.00    +0.144 HD
ENDBRANCH  31  33
ENDBRANCH  29  31
ENDBRANCH  11  29
TORSDOF 6
