REMARK  Name = ZINC14993366
REMARK  6 active torsions:
REMARK  status: ('A' for Active; 'I' for Inactive)
REMARK    1  A    between atoms: C_4  and  C_7
REMARK    2  A    between atoms: N_12  and  C_14
REMARK    3  A    between atoms: C_14  and  C_15
REMARK    4  A    between atoms: N_17  and  C_18
REMARK    5  A    between atoms: C_18  and  C_19
REMARK    6  A    between atoms: C_26  and  C_29
REMARK                            x       y       z     vdW  Elec       q    Type
REMARK                         _______ _______ _______ _____ _____    ______ ____
ROOT
ATOM      1  C   UNL     1      -0.018   1.503   0.010  0.00  0.00    +0.231 C 
ATOM      2  O   UNL     1      -1.077   2.095   0.018  0.00  0.00    -0.274 OA
ATOM      3  N   UNL     1       1.139   2.192   0.003  0.00  0.00    -0.310 N 
ATOM      4  H   UNL     1       1.986   1.719  -0.008  0.00  0.00    +0.149 HD
ENDROOT
BRANCH   1   5
ATOM      5  C   UNL     1       0.002  -0.004   0.002  0.00  0.00    +0.203 C 
BRANCH   5  10
ATOM      6  C   UNL     1      -3.614  -0.880   0.780  0.00  0.00    +0.045 C 
ATOM      7  C   UNL     1      -3.470  -1.268  -0.710  0.00  0.00    +0.105 C 
ATOM      8  C   UNL     1      -2.094  -0.768  -1.092  0.00  0.00    +0.217 C 
ATOM      9  O   UNL     1      -1.700  -0.620  -2.229  0.00  0.00    -0.276 OA
ATOM     10  N   UNL     1      -1.372  -0.511   0.012  0.00  0.00    -0.292 N 
ATOM     11  C   UNL     1      -2.136  -0.810   1.230  0.00  0.00    +0.117 C 
BRANCH   6  15
ATOM     12  C   UNL     1      -5.721  -3.897   2.949  0.00  0.00    +0.000 A 
ATOM     13  C   UNL     1      -6.208  -2.604   2.914  0.00  0.00    +0.000 A 
ATOM     14  C   UNL     1      -5.526  -1.628   2.212  0.00  0.00    +0.004 A 
ATOM     15  C   UNL     1      -4.357  -1.944   1.546  0.00  0.00    -0.042 A 
ATOM     16  C   UNL     1      -3.873  -3.239   1.576  0.00  0.00    +0.004 A 
ATOM     17  C   UNL     1      -4.553  -4.214   2.281  0.00  0.00    +0.000 A 
ENDBRANCH   6  15
ENDBRANCH   5  10
ENDBRANCH   1   5
BRANCH   3  18
ATOM     18  C   UNL     1       1.120   3.657   0.011  0.00  0.00    +0.149 C 
BRANCH  18  19
ATOM     19  C   UNL     1       2.555   4.187   0.000  0.00  0.00    +0.195 C 
ATOM     20  C   UNL     1       2.569   5.734   0.003  0.00  0.00    +0.085 C 
ATOM     21  C   UNL     1       3.759   6.038  -0.886  0.00  0.00    -0.001 A 
ATOM     22  C   UNL     1       4.498   7.184  -1.081  0.00  0.00    +0.007 A 
ATOM     23  C   UNL     1       5.565   7.185  -1.964  0.00  0.00    +0.001 A 
ATOM     24  C   UNL     1       5.889   6.034  -2.653  0.00  0.00    +0.015 A 
ATOM     25  C   UNL     1       5.146   4.872  -2.464  0.00  0.00    +0.061 A 
ATOM     26  C   UNL     1       4.063   4.870  -1.571  0.00  0.00    +0.135 A 
ATOM     27  O   UNL     1       3.207   3.866  -1.240  0.00  0.00    -0.486 OA
BRANCH  25  28
ATOM     28  C   UNL     1       5.499   3.639  -3.205  0.00  0.00    +0.163 A 
ATOM     29  N   UNL     1       4.784   2.538  -3.009  0.00  0.00    -0.236 NA
ATOM     30  C   UNL     1       5.070   1.423  -3.658  0.00  0.00    +0.114 A 
ATOM     31  C   UNL     1       6.137   1.409  -4.543  0.00  0.00    +0.039 A 
ATOM     32  C   UNL     1       6.867   2.575  -4.720  0.00  0.00    +0.114 A 
ATOM     33  N   UNL     1       6.526   3.658  -4.045  0.00  0.00    -0.236 NA
ENDBRANCH  25  28
ENDBRANCH  18  19
ENDBRANCH   3  18
TORSDOF 6
