REMARK  Name = ZINC06108157
REMARK  5 active torsions:
REMARK  status: ('A' for Active; 'I' for Inactive)
REMARK    1  A    between atoms: C_1  and  C_2
REMARK    2  A    between atoms: C_5  and  C_8
REMARK    3  A    between atoms: C_8  and  N_9
REMARK    4  A    between atoms: C_12  and  C_16
REMARK    5  A    between atoms: C_12  and  C_17
REMARK                            x       y       z     vdW  Elec       q    Type
REMARK                         _______ _______ _______ _____ _____    ______ ____
ROOT
ATOM      1  N   UNL     1      -0.704   1.975   1.216  0.00  0.00    -0.220 N 
ATOM      2  C   UNL     1      -2.028   2.214   1.289  0.00  0.00    +0.251 C 
ATOM      3  O   UNL     1      -2.846   2.084   0.403  0.00  0.00    -0.272 OA
ATOM      4  C   UNL     1      -2.283   2.678   2.709  0.00  0.00    +0.135 C 
ATOM      5  N   UNL     1      -0.946   2.651   3.327  0.00  0.00    -0.281 N 
ATOM      6  C   UNL     1      -0.092   2.228   2.378  0.00  0.00    +0.310 C 
ATOM      7  O   UNL     1       1.102   2.091   2.557  0.00  0.00    -0.252 OA
ATOM      8  C   UNL     1      -3.230   1.718   3.432  0.00  0.00    +0.047 C 
ATOM      9  H   UNL     1      -0.725   2.892   4.241  0.00  0.00    +0.152 HD
ENDROOT
BRANCH   4  10
ATOM     10  C   UNL     1      -2.842   4.078   2.716  0.00  0.00    -0.015 A 
ATOM     11  C   UNL     1      -3.682   4.493   1.700  0.00  0.00    +0.006 A 
ATOM     12  C   UNL     1      -4.198   5.774   1.711  0.00  0.00    +0.004 A 
ATOM     13  C   UNL     1      -3.868   6.648   2.733  0.00  0.00    -0.044 A 
ATOM     14  C   UNL     1      -3.024   6.235   3.747  0.00  0.00    -0.044 A 
ATOM     15  C   UNL     1      -2.512   4.949   3.736  0.00  0.00    +0.010 A 
ATOM     16  C   UNL     1      -2.820   7.364   4.734  0.00  0.00    +0.036 C 
ATOM     17  C   UNL     1      -3.966   8.359   4.454  0.00  0.00    +0.009 C 
ATOM     18  C   UNL     1      -4.289   8.083   2.970  0.00  0.00    +0.036 C 
ENDBRANCH   4  10
BRANCH   1  19
ATOM     19  C   UNL     1      -0.018   1.503   0.010  0.00  0.00    +0.153 C 
BRANCH  19  24
ATOM     20  C   UNL     1       0.060  -4.275  -0.022  0.00  0.00    +0.044 C 
ATOM     21  C   UNL     1       0.040  -2.768  -0.013  0.00  0.00    -0.050 A 
ATOM     22  C   UNL     1      -1.012  -2.088  -0.599  0.00  0.00    +0.003 A 
ATOM     23  C   UNL     1      -1.031  -0.706  -0.591  0.00  0.00    +0.005 A 
ATOM     24  C   UNL     1       0.002  -0.004   0.002  0.00  0.00    -0.030 A 
ATOM     25  C   UNL     1       1.057  -0.684   0.582  0.00  0.00    +0.005 A 
ATOM     26  C   UNL     1       1.073  -2.067   0.579  0.00  0.00    +0.003 A 
ENDBRANCH  19  24
ENDBRANCH   1  19
TORSDOF 3
