REMARK  Name = ZINC43763808
REMARK  8 active torsions:
REMARK  status: ('A' for Active; 'I' for Inactive)
REMARK    1  A    between atoms: C_1  and  C_2
REMARK    2  A    between atoms: C_9  and  O_32
REMARK    3  A    between atoms: C_16  and  O_31
REMARK    4  A    between atoms: C_19  and  C_30
REMARK    5  A    between atoms: C_24  and  C_25
REMARK    6  A    between atoms: C_24  and  O_29
REMARK    7  A    between atoms: C_25  and  C_27
REMARK    8  A    between atoms: C_27  and  O_28
REMARK                            x       y       z     vdW  Elec       q    Type
REMARK                         _______ _______ _______ _____ _____    ______ ____
ROOT
ATOM      1  C   UNL     1      -0.098   1.407  -1.199  0.00  0.00    +0.016 C 
ATOM      2  C   UNL     1      -0.061  -0.114  -0.980  0.00  0.00    -0.002 C 
ATOM      3  C   UNL     1       0.478  -0.702  -2.261  0.00  0.00    +0.019 C 
ATOM      4  C   UNL     1       1.935  -0.354  -2.535  0.00  0.00    +0.080 C 
ATOM      5  C   UNL     1       2.646   0.213  -1.340  0.00  0.00    +0.156 C 
ATOM      6  O   UNL     1       3.621   0.940  -1.491  0.00  0.00    -0.293 OA
ATOM      7  C   UNL     1       2.166  -0.109   0.009  0.00  0.00    +0.048 C 
ATOM      8  C   UNL     1       0.843  -0.308   0.191  0.00  0.00    -0.032 C 
ATOM      9  C   UNL     1       0.409  -0.716   1.570  0.00  0.00    +0.141 C 
ATOM     10  C   UNL     1      -1.107  -0.856   1.684  0.00  0.00    +0.040 C 
ATOM     11  C   UNL     1      -1.596  -1.514   0.391  0.00  0.00    +0.002 C 
ATOM     12  C   UNL     1      -1.513  -0.472  -0.720  0.00  0.00    +0.031 C 
ATOM     13  C   UNL     1      -2.272  -0.891  -1.962  0.00  0.00    +0.119 C 
ATOM     14  C   UNL     1      -3.748  -1.218  -1.690  0.00  0.00    +0.041 C 
ATOM     15  C   UNL     1      -4.043  -1.316  -0.219  0.00  0.00    +0.009 C 
ATOM     16  C   UNL     1      -2.951  -2.132   0.501  0.00  0.00    +0.002 C 
ATOM     17  C   UNL     1      -3.550  -2.287   1.908  0.00  0.00    +0.008 C 
ATOM     18  C   UNL     1      -5.059  -2.526   1.626  0.00  0.00    +0.043 C 
ATOM     19  C   UNL     1      -5.293  -2.149   0.142  0.00  0.00    +0.131 C 
ATOM     20  C   UNL     1      -4.250   0.067   0.400  0.00  0.00    +0.015 C 
ENDROOT
BRANCH  19  21
ATOM     21  C   UNL     1      -6.530  -1.310  -0.007  0.00  0.00    +0.190 C 
ATOM     22  O   UNL     1      -6.995  -0.744   0.953  0.00  0.00    -0.292 OA
BRANCH  21  23
ATOM     23  C   UNL     1      -7.191  -1.175  -1.355  0.00  0.00    +0.233 C 
BRANCH  23  24
ATOM     24  O   UNL     1      -8.340  -0.333  -1.240  0.00  0.00    -0.387 OA
ATOM     25  H   UNL     1      -8.816  -0.201  -2.071  0.00  0.00    +0.210 HD
ENDBRANCH  23  24
ENDBRANCH  21  23
ENDBRANCH  19  21
BRANCH  19  26
ATOM     26  O   UNL     1      -5.361  -3.318  -0.668  0.00  0.00    -0.380 OA
ATOM     27  H   UNL     1      -6.127  -3.879  -0.484  0.00  0.00    +0.211 HD
ENDBRANCH  19  26
BRANCH  13  28
ATOM     28  O   UNL     1      -2.233   0.162  -2.938  0.00  0.00    -0.391 OA
ATOM     29  H   UNL     1      -2.702  -0.044  -3.758  0.00  0.00    +0.210 HD
ENDBRANCH  13  28
BRANCH   9  30
ATOM     30  O   UNL     1       0.868   0.258   2.509  0.00  0.00    -0.387 OA
ATOM     31  H   UNL     1       1.829   0.365   2.527  0.00  0.00    +0.210 HD
ENDBRANCH   9  30
TORSDOF 6
