REMARK  Name = ZINC31264253
REMARK  8 active torsions:
REMARK  status: ('A' for Active; 'I' for Inactive)
REMARK    1  A    between atoms: C_1  and  C_2
REMARK    2  A    between atoms: C_5  and  C_7
REMARK    3  A    between atoms: C_9  and  C_28
REMARK    4  A    between atoms: C_10  and  C_12
REMARK    5  A    between atoms: C_12  and  N_14
REMARK    6  A    between atoms: C_17  and  C_20
REMARK    7  A    between atoms: C_20  and  N_21
REMARK    8  A    between atoms: C_24  and  C_27
REMARK                            x       y       z     vdW  Elec       q    Type
REMARK                         _______ _______ _______ _____ _____    ______ ____
ROOT
ATOM      1  N   UNL     1      -6.647   4.133   6.592  0.00  0.00    -0.152 NA
ATOM      2  C   UNL     1      -7.666   4.551   7.438  0.00  0.00    +0.163 A 
ATOM      3  N   UNL     1      -7.595   4.915   8.704  0.00  0.00    -0.341 N 
ATOM      4  C   UNL     1      -8.670   5.292   9.367  0.00  0.00    +0.008 A 
ATOM      5  C   UNL     1      -9.862   5.288   8.722  0.00  0.00    +0.067 A 
ATOM      6  S   UNL     1      -9.361   4.720   7.104  0.00  0.00    -0.061 S 
ATOM      7  H   UNL     1      -6.625   4.908   9.224  0.00  0.00    +0.167 HD
ENDROOT
BRANCH   1   8
ATOM      8  C   UNL     1      -6.926   3.793   5.318  0.00  0.00    +0.278 C 
ATOM      9  O   UNL     1      -8.071   3.852   4.909  0.00  0.00    -0.267 OA
BRANCH   8  13
ATOM     10  C   UNL     1      -3.638   2.603   3.117  0.00  0.00    +0.144 A 
ATOM     11  N   UNL     1      -4.813   2.601   2.489  0.00  0.00    -0.240 NA
ATOM     12  C   UNL     1      -5.910   2.960   3.094  0.00  0.00    +0.058 A 
ATOM     13  C   UNL     1      -5.853   3.353   4.426  0.00  0.00    +0.099 A 
ATOM     14  S   UNL     1      -4.104   3.162   4.750  0.00  0.00    -0.059 S 
ATOM     15  C   UNL     1      -7.225   2.949   2.357  0.00  0.00    +0.067 C 
BRANCH  10  20
ATOM     16  C   UNL     1      -0.013   1.086   0.008  0.00  0.00    +0.086 C 
ATOM     17  C   UNL     1      -0.718   1.572   1.248  0.00  0.00    +0.103 A 
ATOM     18  C   UNL     1      -0.131   1.835   2.434  0.00  0.00    +0.045 A 
ATOM     19  C   UNL     1      -1.144   2.262   3.311  0.00  0.00    +0.052 A 
ATOM     20  C   UNL     1      -2.311   2.236   2.605  0.00  0.00    +0.160 A 
ATOM     21  O   UNL     1      -2.033   1.819   1.353  0.00  0.00    -0.458 OA
ENDBRANCH  10  20
ENDBRANCH   8  13
ENDBRANCH   1   8
BRANCH   4  22
ATOM     22  C   UNL     1      -8.576   5.713  10.812  0.00  0.00    -0.024 C 
BRANCH  22  23
ATOM     23  N   UNL     1      -8.635   4.524  11.672  0.00  0.00    +0.383 N 
ATOM     24  C   UNL     1      -7.753   3.464  11.166  0.00  0.00    -0.078 C 
ATOM     25  C   UNL     1      -7.948   2.195  11.999  0.00  0.00    -0.016 C 
ATOM     26  C   UNL     1      -7.624   2.498  13.465  0.00  0.00    -0.018 C 
ATOM     27  C   UNL     1      -8.522   3.638  13.953  0.00  0.00    -0.016 C 
ATOM     28  C   UNL     1      -8.311   4.865  13.063  0.00  0.00    -0.078 C 
ATOM     29  C   UNL     1      -7.875   1.250  14.313  0.00  0.00    +0.007 C 
ATOM     30  H   UNL     1      -9.666   4.140  11.652  0.00  0.00    -0.081 HD
ENDBRANCH  22  23
ENDBRANCH   4  22
TORSDOF 5
