REMARK  Name = ZINC40783778
REMARK  6 active torsions:
REMARK  status: ('A' for Active; 'I' for Inactive)
REMARK    1  A    between atoms: C_1  and  C_2
REMARK    2  A    between atoms: C_5  and  C_8
REMARK    3  A    between atoms: C_8  and  N_9
REMARK    4  A    between atoms: C_11  and  N_28
REMARK    5  A    between atoms: C_12  and  O_16
REMARK    6  A    between atoms: O_16  and  C_17
REMARK                            x       y       z     vdW  Elec       q    Type
REMARK                         _______ _______ _______ _____ _____    ______ ____
ROOT
ATOM      1  N   UNL     1       1.432  -4.762  -0.228  0.00  0.00    -0.323 N 
ATOM      2  C   UNL     1       1.712  -6.123  -0.229  0.00  0.00    +0.147 A 
ATOM      3  C   UNL     1       3.030  -6.577  -0.138  0.00  0.00    +0.128 A 
ATOM      4  C   UNL     1       3.254  -7.952  -0.144  0.00  0.00    +0.246 A 
ATOM      5  N   UNL     1       2.213  -8.775  -0.235  0.00  0.00    -0.199 NA
ATOM      6  C   UNL     1       0.985  -8.307  -0.319  0.00  0.00    +0.227 A 
ATOM      7  N   UNL     1       0.728  -7.014  -0.312  0.00  0.00    -0.219 NA
ATOM      8  H   UNL     1       2.156  -4.118  -0.167  0.00  0.00    +0.148 HD
ENDROOT
BRANCH   3   9
ATOM      9  N   UNL     1       4.099  -5.673  -0.044  0.00  0.00    -0.351 N 
ATOM     10  H   UNL     1       3.928  -4.718  -0.042  0.00  0.00    +0.143 HD
ATOM     11  H   UNL     1       5.010  -6.002   0.018  0.00  0.00    +0.143 HD
ENDBRANCH   3   9
BRANCH   1  12
ATOM     12  C   UNL     1       0.045  -4.298  -0.318  0.00  0.00    +0.138 C 
BRANCH  12  17
ATOM     13  C   UNL     1      -0.068   1.479  -0.237  0.00  0.00    +0.044 C 
ATOM     14  C   UNL     1      -0.038  -0.028  -0.258  0.00  0.00    -0.050 A 
ATOM     15  C   UNL     1       0.060  -0.700  -1.462  0.00  0.00    +0.003 A 
ATOM     16  C   UNL     1       0.087  -2.082  -1.481  0.00  0.00    +0.005 A 
ATOM     17  C   UNL     1       0.017  -2.792  -0.296  0.00  0.00    -0.030 A 
ATOM     18  C   UNL     1      -0.080  -2.119   0.907  0.00  0.00    +0.005 A 
ATOM     19  C   UNL     1      -0.103  -0.737   0.927  0.00  0.00    +0.003 A 
ENDBRANCH  12  17
ENDBRANCH   1  12
BRANCH   4  20
ATOM     20  O   UNL     1       4.516  -8.445  -0.058  0.00  0.00    -0.434 OA
BRANCH  20  21
ATOM     21  C   UNL     1       4.669  -9.791   0.037  0.00  0.00    +0.156 A 
ATOM     22  C   UNL     1       4.787 -10.389   1.271  0.00  0.00    +0.049 A 
ATOM     23  C   UNL     1       4.945 -11.767   1.385  0.00  0.00    +0.019 A 
ATOM     24  C   UNL     1       4.987 -12.561   0.278  0.00  0.00    +0.027 A 
ATOM     25  C   UNL     1       4.870 -11.987  -0.999  0.00  0.00    +0.018 A 
ATOM     26  C   UNL     1       4.703 -10.587  -1.127  0.00  0.00    +0.114 A 
ATOM     27  N   UNL     1       4.587 -10.038  -2.340  0.00  0.00    -0.251 NA
ATOM     28  C   UNL     1       4.618 -10.772  -3.425  0.00  0.00    +0.111 A 
ATOM     29  C   UNL     1       4.774 -12.156  -3.370  0.00  0.00    +0.020 A 
ATOM     30  C   UNL     1       4.910 -12.778  -2.163  0.00  0.00    +0.013 A 
ATOM     31 BR   UNL     1       5.204 -14.431   0.461  0.00  0.00    -0.050 Br
ENDBRANCH  20  21
ENDBRANCH   4  20
TORSDOF 5
