REMARK  Name = ZINC66701883
REMARK  11 active torsions:
REMARK  status: ('A' for Active; 'I' for Inactive)
REMARK    1  A    between atoms: C_1  and  C_2
REMARK    2  A    between atoms: C_7  and  N_10
REMARK    3  A    between atoms: C_11  and  C_13
REMARK    4  A    between atoms: C_13  and  N_14
REMARK    5  A    between atoms: N_22  and  C_23
REMARK    6  A    between atoms: C_23  and  C_25
REMARK    7  A    between atoms: C_23  and  C_26
REMARK    8  A    between atoms: C_26  and  C_27
REMARK    9  A    between atoms: C_27  and  N_28
REMARK   10  A    between atoms: N_28  and  C_29
REMARK   11  A    between atoms: N_28  and  C_30
REMARK                            x       y       z     vdW  Elec       q    Type
REMARK                         _______ _______ _______ _____ _____    ______ ____
ROOT
ATOM      1  N   UNL     1       3.284  -5.554  -0.983  0.00  0.00    -0.291 NA
ATOM      2  C   UNL     1       2.210  -6.535  -0.776  0.00  0.00    +0.104 C 
ATOM      3  C   UNL     1       2.821  -7.873  -0.348  0.00  0.00    +0.124 C 
ATOM      4  N   UNL     1       3.836  -8.262  -1.339  0.00  0.00    -0.283 N 
ATOM      5  C   UNL     1       4.868  -7.278  -1.701  0.00  0.00    +0.124 C 
ATOM      6  C   UNL     1       4.176  -5.963  -2.076  0.00  0.00    +0.104 C 
ATOM      7  C   UNL     1       3.821  -9.487  -1.900  0.00  0.00    +0.302 C 
ATOM      8  O   UNL     1       3.018 -10.319  -1.523  0.00  0.00    -0.253 OA
ATOM      9  N   UNL     1       4.696  -9.791  -2.879  0.00  0.00    -0.297 N 
ATOM     10  H   UNL     1       5.385  -9.155  -3.128  0.00  0.00    +0.151 HD
ENDROOT
BRANCH   9  11
ATOM     11  C   UNL     1       4.609 -11.082  -3.565  0.00  0.00    +0.070 C 
ATOM     12  C   UNL     1       3.592 -10.986  -4.705  0.00  0.00    +0.028 C 
BRANCH  11  13
ATOM     13  C   UNL     1       5.980 -11.452  -4.134  0.00  0.00    +0.003 C 
BRANCH  13  14
ATOM     14  C   UNL     1       6.967 -11.670  -2.986  0.00  0.00    -0.078 C 
BRANCH  14  15
ATOM     15  N   UNL     1       8.283 -12.025  -3.532  0.00  0.00    +0.376 N 
ATOM     16  C   UNL     1       9.259 -12.118  -2.438  0.00  0.00    -0.097 C 
ATOM     17  C   UNL     1       8.195 -13.320  -4.220  0.00  0.00    -0.097 C 
ATOM     18  H   UNL     1       8.578 -11.316  -4.186  0.00  0.00    -0.083 HD
ENDBRANCH  14  15
ENDBRANCH  13  14
ENDBRANCH  11  13
ENDBRANCH   9  11
BRANCH   1  19
ATOM     19  C   UNL     1       2.733  -4.214  -1.227  0.00  0.00    +0.180 C 
BRANCH  19  21
ATOM     20  N   UNL     1       1.442  -2.514   0.022  0.00  0.00    -0.311 N 
ATOM     21  C   UNL     1       2.028  -3.727   0.013  0.00  0.00    +0.227 C 
ATOM     22  O   UNL     1       1.988  -4.428   1.002  0.00  0.00    -0.274 OA
ATOM     23  H   UNL     1       1.474  -1.954  -0.769  0.00  0.00    +0.149 HD
BRANCH  20  29
ATOM     24  C   UNL     1      -0.030   1.523   0.001  0.00  0.00    +0.007 C 
ATOM     25  C   UNL     1      -0.008  -0.006  -0.006  0.00  0.00    -0.012 C 
ATOM     26  C   UNL     1      -1.443  -0.538   0.006  0.00  0.00    +0.003 C 
ATOM     27  C   UNL     1      -1.420  -2.067  -0.001  0.00  0.00    +0.002 C 
ATOM     28  C   UNL     1      -0.679  -2.572   1.239  0.00  0.00    +0.022 C 
ATOM     29  C   UNL     1       0.756  -2.041   1.227  0.00  0.00    +0.073 C 
ATOM     30  C   UNL     1       0.733  -0.511   1.234  0.00  0.00    +0.025 C 
ENDBRANCH  20  29
ENDBRANCH  19  21
ENDBRANCH   1  19
TORSDOF 7
