REMARK  Name = ZINC51423054
REMARK  11 active torsions:
REMARK  status: ('A' for Active; 'I' for Inactive)
REMARK    1  A    between atoms: C_1  and  C_2
REMARK    2  A    between atoms: C_2  and  C_3
REMARK    3  A    between atoms: C_3  and  C_5
REMARK    4  A    between atoms: C_3  and  N_6
REMARK    5  A    between atoms: C_7  and  C_9
REMARK    6  A    between atoms: C_9  and  N_10
REMARK    7  A    between atoms: N_13  and  C_16
REMARK    8  A    between atoms: C_16  and  C_17
REMARK    9  A    between atoms: N_19  and  C_20
REMARK   10  A    between atoms: C_20  and  C_22
REMARK   11  A    between atoms: C_20  and  C_23
REMARK                            x       y       z     vdW  Elec       q    Type
REMARK                         _______ _______ _______ _____ _____    ______ ____
ROOT
ATOM      1  N   UNL     1      -6.049  -0.295   1.998  0.00  0.00    +0.387 N 
ATOM      2  C   UNL     1      -6.421   0.715   0.998  0.00  0.00    -0.063 C 
ATOM      3  C   UNL     1      -7.945   0.842   0.944  0.00  0.00    +0.066 C 
ATOM      4  N   UNL     1      -8.448   1.231   2.269  0.00  0.00    -0.298 NA
ATOM      5  C   UNL     1      -8.062   0.241   3.285  0.00  0.00    +0.066 C 
ATOM      6  C   UNL     1      -6.537   0.119   3.320  0.00  0.00    -0.063 C 
ATOM      7  H   UNL     1      -6.462  -1.182   1.750  0.00  0.00    -0.081 HD
ENDROOT
BRANCH   1   8
ATOM      8  C   UNL     1      -4.587  -0.430   2.037  0.00  0.00    +0.019 C 
BRANCH   8  10
ATOM      9  N   UNL     1      -2.780  -1.180   0.523  0.00  0.00    -0.314 N 
ATOM     10  C   UNL     1      -4.097  -0.973   0.719  0.00  0.00    +0.197 C 
ATOM     11  O   UNL     1      -4.888  -1.222  -0.166  0.00  0.00    -0.278 OA
ATOM     12  H   UNL     1      -2.147  -0.981   1.230  0.00  0.00    +0.149 HD
BRANCH   9  13
ATOM     13  C   UNL     1      -2.304  -1.708  -0.758  0.00  0.00    +0.070 C 
ATOM     14  C   UNL     1      -2.394  -3.235  -0.746  0.00  0.00    +0.028 C 
BRANCH  13  16
ATOM     15  C   UNL     1      -0.778   0.238  -1.113  0.00  0.00    +0.005 C 
ATOM     16  C   UNL     1      -0.850  -1.284  -0.976  0.00  0.00    +0.018 C 
ENDBRANCH  13  16
ENDBRANCH   9  13
ENDBRANCH   8  10
ENDBRANCH   1   8
BRANCH   4  17
ATOM     17  C   UNL     1      -9.905   1.419   2.244  0.00  0.00    +0.180 C 
BRANCH  17  18
ATOM     18  C   UNL     1     -10.352   2.049   3.538  0.00  0.00    +0.228 C 
ATOM     19  O   UNL     1      -9.538   2.315   4.397  0.00  0.00    -0.274 OA
ATOM     20  N   UNL     1     -11.658   2.316   3.742  0.00  0.00    -0.303 N 
ATOM     21  H   UNL     1     -12.309   2.103   3.055  0.00  0.00    +0.149 HD
BRANCH  20  22
ATOM     22  C   UNL     1     -12.092   2.929   5.000  0.00  0.00    +0.156 C 
ATOM     23  C   UNL     1     -12.303   1.838   6.052  0.00  0.00    +0.038 C 
BRANCH  22  24
ATOM     24  C   UNL     1     -13.386   3.668   4.777  0.00  0.00    +0.236 C 
ATOM     25  O   UNL     1     -14.062   3.428   3.800  0.00  0.00    -0.274 OA
ATOM     26  N   UNL     1     -13.792   4.598   5.665  0.00  0.00    -0.300 N 
ATOM     27  C   UNL     1     -12.931   4.984   6.791  0.00  0.00    +0.108 C 
ATOM     28  C   UNL     1     -12.759   6.507   6.781  0.00  0.00    +0.019 C 
ATOM     29  C   UNL     1     -14.138   7.171   6.787  0.00  0.00    +0.003 C 
ATOM     30  C   UNL     1     -14.908   6.764   5.529  0.00  0.00    +0.019 C 
ATOM     31  C   UNL     1     -15.102   5.249   5.521  0.00  0.00    +0.108 C 
ENDBRANCH  22  24
ENDBRANCH  20  22
ENDBRANCH  17  18
ENDBRANCH   4  17
TORSDOF 8
