REMARK  Name = ZINC50375491
REMARK  6 active torsions:
REMARK  status: ('A' for Active; 'I' for Inactive)
REMARK    1  A    between atoms: C_1  and  C_2
REMARK    2  A    between atoms: C_4  and  C_21
REMARK    3  A    between atoms: C_7  and  C_8
REMARK    4  A    between atoms: N_11  and  C_12
REMARK    5  A    between atoms: C_17  and  O_19
REMARK    6  A    between atoms: O_19  and  C_20
REMARK                            x       y       z     vdW  Elec       q    Type
REMARK                         _______ _______ _______ _____ _____    ______ ____
ROOT
ATOM      1  C   UNL     1      -0.096   1.501  -0.026  0.00  0.00    +0.045 C 
ATOM      2  C   UNL     1      -0.035  -0.005  -0.015  0.00  0.00    -0.031 A 
ATOM      3  C   UNL     1      -0.107  -0.725  -1.194  0.00  0.00    +0.025 A 
ATOM      4  C   UNL     1      -0.048  -2.107  -1.153  0.00  0.00    +0.015 A 
ATOM      5  N   UNL     1       0.075  -2.753  -0.010  0.00  0.00    -0.347 N 
ATOM      6  C   UNL     1       0.148  -2.115   1.148  0.00  0.00    +0.111 A 
ATOM      7  C   UNL     1       0.101  -0.709   1.188  0.00  0.00    +0.104 A 
ATOM      8  N   UNL     1       0.277  -2.833   2.321  0.00  0.00    -0.325 N 
ATOM      9  C   UNL     1      -0.127  -2.889  -2.439  0.00  0.00    +0.063 C 
ATOM     10  H   UNL     1       0.276  -2.371   3.174  0.00  0.00    +0.148 HD
ATOM     11  H   UNL     1       0.113  -3.723  -0.018  0.00  0.00    +0.167 HD
ENDROOT
BRANCH   8  12
ATOM     12  C   UNL     1       0.414  -4.290   2.277  0.00  0.00    +0.100 C 
ATOM     13  C   UNL     1       1.899  -4.676   2.115  0.00  0.00    +0.025 C 
ATOM     14  C   UNL     1       2.382  -4.945   3.561  0.00  0.00    +0.004 C 
ATOM     15  C   UNL     1       1.159  -5.643   4.206  0.00  0.00    +0.033 C 
ATOM     16  C   UNL     1      -0.058  -4.905   3.606  0.00  0.00    +0.138 C 
BRANCH  16  17
ATOM     17  O   UNL     1      -1.123  -5.828   3.368  0.00  0.00    -0.378 OA
ATOM     18  C   UNL     1      -2.051  -5.935   4.449  0.00  0.00    +0.194 C 
ENDBRANCH  16  17
ENDBRANCH   8  12
BRANCH   7  19
ATOM     19  C   UNL     1       0.188   0.007   2.470  0.00  0.00    +0.390 C 
ATOM     20  O   UNL     1      -0.821   0.189   3.138  0.00  0.00    -0.240 OA
ATOM     21  O   UNL     1       1.268   0.420   2.868  0.00  0.00    -0.240 OA
ENDBRANCH   7  19
TORSDOF 3
