REMARK  Name = ZINC15938388
REMARK  6 active torsions:
REMARK  status: ('A' for Active; 'I' for Inactive)
REMARK    1  A    between atoms: C_3  and  N_24
REMARK    2  A    between atoms: C_4  and  N_21
REMARK    3  A    between atoms: C_6  and  C_7
REMARK    4  A    between atoms: N_9  and  N_10
REMARK    5  A    between atoms: C_11  and  C_13
REMARK    6  A    between atoms: N_24  and  C_25
REMARK                            x       y       z     vdW  Elec       q    Type
REMARK                         _______ _______ _______ _____ _____    ______ ____
ROOT
ATOM      1  C   UNL     1      -5.301   2.893  -0.121  0.00  0.00    +0.260 C 
ATOM      2  O   UNL     1      -6.237   2.123  -0.025  0.00  0.00    -0.269 OA
ATOM      3  N   UNL     1      -5.527   4.216  -0.250  0.00  0.00    -0.230 N 
ATOM      4  H   UNL     1      -4.781   4.830  -0.327  0.00  0.00    +0.173 HD
ENDROOT
BRANCH   1  10
ATOM      5  C   UNL     1      -2.841   3.265  -0.207  0.00  0.00    +0.015 A 
ATOM      6  C   UNL     1      -1.552   2.784  -0.183  0.00  0.00    +0.026 A 
ATOM      7  C   UNL     1      -1.320   1.418  -0.049  0.00  0.00    +0.058 A 
ATOM      8  C   UNL     1      -2.390   0.534   0.056  0.00  0.00    +0.148 A 
ATOM      9  C   UNL     1      -3.681   1.010   0.038  0.00  0.00    +0.047 A 
ATOM     10  C   UNL     1      -3.918   2.381  -0.096  0.00  0.00    +0.040 A 
BRANCH   8  11
ATOM     11  N   UNL     1      -2.139  -0.918   0.191  0.00  0.00    +0.058 N 
ATOM     12  O   UNL     1      -3.071  -1.702   0.172  0.00  0.00    -0.126 OA
ATOM     13  O   UNL     1      -1.000  -1.330   0.322  0.00  0.00    -0.126 OA
ENDBRANCH   8  11
BRANCH   7  14
ATOM     14  N   UNL     1      -0.016   0.935  -0.026  0.00  0.00    -0.339 N 
ATOM     15  H   UNL     1       0.147  -0.021  -0.048  0.00  0.00    +0.146 HD
BRANCH  14  16
ATOM     16  C   UNL     1       1.111   1.870   0.024  0.00  0.00    +0.071 C 
ATOM     17  C   UNL     1       2.330   1.554  -0.845  0.00  0.00    +0.024 C 
ATOM     18  C   UNL     1       2.407   1.380   0.673  0.00  0.00    +0.024 C 
ENDBRANCH  14  16
ENDBRANCH   7  14
ENDBRANCH   1  10
BRANCH   3  19
ATOM     19  N   UNL     1      -6.841   4.702  -0.274  0.00  0.00    -0.230 N 
ATOM     20  C   UNL     1      -7.067   6.025  -0.403  0.00  0.00    +0.267 C 
ATOM     21  O   UNL     1      -6.131   6.796  -0.499  0.00  0.00    -0.268 OA
ATOM     22  H   UNL     1      -7.587   4.088  -0.197  0.00  0.00    +0.173 HD
BRANCH  20  23
ATOM     23  C   UNL     1      -8.442   6.534  -0.428  0.00  0.00    +0.076 A 
ATOM     24  C   UNL     1      -8.886   7.834  -0.550  0.00  0.00    +0.024 A 
ATOM     25  C   UNL     1     -10.262   8.064  -0.547  0.00  0.00    -0.036 A 
ATOM     26  C   UNL     1     -11.063   6.973  -0.419  0.00  0.00    -0.006 A 
ATOM     27  S   UNL     1      -9.977   5.634  -0.315  0.00  0.00    -0.088 S 
ATOM     28  C   UNL     1     -12.521   7.345  -0.423  0.00  0.00    +0.043 C 
ATOM     29  C   UNL     1     -12.538   8.862  -0.136  0.00  0.00    +0.010 C 
ATOM     30  C   UNL     1     -11.157   9.301  -0.659  0.00  0.00    +0.036 C 
ENDBRANCH  20  23
ENDBRANCH   3  19
TORSDOF 6
