REMARK  Name = ZINC58304575
REMARK  8 active torsions:
REMARK  status: ('A' for Active; 'I' for Inactive)
REMARK    1  A    between atoms: C_1  and  C_2
REMARK    2  A    between atoms: C_2  and  C_4
REMARK    3  A    between atoms: C_2  and  N_14
REMARK    4  A    between atoms: C_15  and  C_17
REMARK    5  A    between atoms: C_17  and  C_18
REMARK    6  A    between atoms: C_18  and  N_19
REMARK    7  A    between atoms: C_21  and  S_24
REMARK    8  A    between atoms: S_24  and  N_27
REMARK                            x       y       z     vdW  Elec       q    Type
REMARK                         _______ _______ _______ _____ _____    ______ ____
ROOT
ATOM      1  N   UNL     1       0.711  -0.489   1.189  0.00  0.00    -0.309 N 
ATOM      2  C   UNL     1       0.051  -0.633   2.355  0.00  0.00    +0.215 C 
ATOM      3  O   UNL     1      -1.129  -0.361   2.423  0.00  0.00    -0.276 OA
ATOM      4  H   UNL     1       1.654  -0.707   1.135  0.00  0.00    +0.149 HD
ENDROOT
BRANCH   1   6
ATOM      5  C   UNL     1      -0.019   1.526   0.010  0.00  0.00    +0.033 C 
ATOM      6  C   UNL     1       0.002  -0.004   0.002  0.00  0.00    +0.100 C 
BRANCH   6   7
ATOM      7  C   UNL     1       0.707  -0.490  -1.238  0.00  0.00    -0.027 A 
ATOM      8  C   UNL     1       2.089  -0.512  -1.286  0.00  0.00    +0.006 A 
ATOM      9  C   UNL     1       2.727  -0.955  -2.426  0.00  0.00    +0.004 A 
ATOM     10  C   UNL     1       1.994  -1.382  -3.526  0.00  0.00    -0.044 A 
ATOM     11  C   UNL     1       0.618  -1.365  -3.475  0.00  0.00    -0.044 A 
ATOM     12  C   UNL     1      -0.023  -0.920  -2.326  0.00  0.00    +0.009 A 
ATOM     13  C   UNL     1      -0.241  -1.828  -4.623  0.00  0.00    +0.035 C 
ATOM     14  C   UNL     1       0.570  -1.873  -5.917  0.00  0.00    +0.005 C 
ATOM     15  C   UNL     1       1.853  -2.670  -5.656  0.00  0.00    +0.005 C 
ATOM     16  C   UNL     1       2.755  -1.846  -4.740  0.00  0.00    +0.035 C 
ENDBRANCH   6   7
ENDBRANCH   1   6
BRANCH   2  17
ATOM     17  C   UNL     1       0.780  -1.133   3.576  0.00  0.00    +0.119 C 
BRANCH  17  18
ATOM     18  C   UNL     1      -0.191  -1.204   4.756  0.00  0.00    +0.152 C 
BRANCH  18  19
ATOM     19  N   UNL     1       0.517  -1.689   5.943  0.00  0.00    -0.269 N 
ATOM     20  C   UNL     1       0.575  -1.071   7.142  0.00  0.00    +0.136 A 
ATOM     21  C   UNL     1       1.324  -1.839   7.966  0.00  0.00    +0.142 A 
ATOM     22  C   UNL     1       1.738  -2.966   7.248  0.00  0.00    +0.162 A 
ATOM     23  N   UNL     1       1.250  -2.880   6.037  0.00  0.00    -0.178 NA
BRANCH  21  24
ATOM     24  S   UNL     1       1.709  -1.484   9.649  0.00  0.00    +0.059 S 
ATOM     25  O   UNL     1       2.905  -2.191   9.949  0.00  0.00    -0.153 OA
ATOM     26  O   UNL     1       1.598  -0.075   9.802  0.00  0.00    -0.153 OA
BRANCH  24  27
ATOM     27  N   UNL     1       0.515  -2.157  10.578  0.00  0.00    -0.203 NA
ATOM     28  H   UNL     1       0.715  -2.465  11.475  0.00  0.00    +0.144 HD
ATOM     29  H   UNL     1      -0.384  -2.242  10.224  0.00  0.00    +0.144 HD
ENDBRANCH  24  27
ENDBRANCH  21  24
ENDBRANCH  18  19
ENDBRANCH  17  18
ENDBRANCH   2  17
TORSDOF 7
