REMARK  Name = ZINC04195146
REMARK  7 active torsions:
REMARK  status: ('A' for Active; 'I' for Inactive)
REMARK    1  A    between atoms: C_1  and  C_2
REMARK    2  A    between atoms: C_2  and  C_3
REMARK    3  A    between atoms: C_2  and  C_4
REMARK    4  A    between atoms: C_4  and  C_5
REMARK    5  A    between atoms: C_5  and  N_6
REMARK    6  A    between atoms: C_10  and  C_12
REMARK    7  A    between atoms: C_12  and  N_13
REMARK                            x       y       z     vdW  Elec       q    Type
REMARK                         _______ _______ _______ _____ _____    ______ ____
ROOT
ATOM      1  C   UNL     1      -5.930  -6.200  -0.304  0.00  0.00    +0.214 C 
ENDROOT
BRANCH   1   2
ATOM      2  N   UNL     1      -5.913  -7.659  -0.432  0.00  0.00    -0.215 N 
ATOM      3  C   UNL     1      -5.943  -8.317  -1.610  0.00  0.00    +0.247 C 
ATOM      4  O   UNL     1      -5.988  -7.833  -2.720  0.00  0.00    -0.273 OA
ATOM      5  C   UNL     1      -5.909  -9.786  -1.252  0.00  0.00    +0.113 C 
ATOM      6  C   UNL     1      -4.664 -10.445  -1.834  0.00  0.00    +0.035 C 
ATOM      7  C   UNL     1      -4.633 -11.923  -1.435  0.00  0.00    +0.003 C 
ATOM      8  C   UNL     1      -5.891 -12.618  -1.960  0.00  0.00    +0.000 C 
ATOM      9  C   UNL     1      -7.131 -11.960  -1.350  0.00  0.00    +0.003 C 
ATOM     10  C   UNL     1      -7.171 -10.483  -1.749  0.00  0.00    +0.035 C 
ATOM     11  N   UNL     1      -5.859  -9.794   0.215  0.00  0.00    -0.285 N 
ATOM     12  C   UNL     1      -5.860  -8.505   0.604  0.00  0.00    +0.310 C 
ATOM     13  O   UNL     1      -5.820  -8.149   1.766  0.00  0.00    -0.252 OA
ATOM     14  H   UNL     1      -5.828 -10.575   0.790  0.00  0.00    +0.151 HD
ENDBRANCH   1   2
BRANCH   1  19
ATOM     15  N   UNL     1      -2.790  -2.565  -0.111  0.00  0.00    -0.299 N 
ATOM     16  C   UNL     1      -3.021  -3.888  -0.217  0.00  0.00    +0.306 C 
ATOM     17  O   UNL     1      -2.089  -4.661  -0.322  0.00  0.00    -0.252 OA
ATOM     18  N   UNL     1      -4.285  -4.355  -0.208  0.00  0.00    -0.239 N 
ATOM     19  C   UNL     1      -4.516  -5.678  -0.315  0.00  0.00    +0.238 C 
ATOM     20  O   UNL     1      -3.586  -6.449  -0.419  0.00  0.00    -0.274 OA
ATOM     21  H   UNL     1      -3.534  -1.948  -0.027  0.00  0.00    +0.150 HD
ATOM     22  H   UNL     1      -5.029  -3.738  -0.124  0.00  0.00    +0.159 HD
BRANCH  15  23
ATOM     23  C   UNL     1      -1.416  -2.058  -0.121  0.00  0.00    +0.106 C 
BRANCH  23  24
ATOM     24  C   UNL     1      -1.433  -0.534   0.013  0.00  0.00    +0.022 C 
BRANCH  24  26
ATOM     25  C   UNL     1      -0.019   1.526   0.010  0.00  0.00    +0.007 C 
ATOM     26  C   UNL     1       0.002  -0.004   0.002  0.00  0.00    -0.016 C 
ATOM     27  C   UNL     1       0.742  -0.511   1.242  0.00  0.00    +0.007 C 
ENDBRANCH  24  26
ENDBRANCH  23  24
ENDBRANCH  15  23
ENDBRANCH   1  19
TORSDOF 5
