REMARK  Name = ZINC04039141
REMARK  8 active torsions:
REMARK  status: ('A' for Active; 'I' for Inactive)
REMARK    1  A    between atoms: C_1  and  C_2
REMARK    2  A    between atoms: C_6  and  O_32
REMARK    3  A    between atoms: C_9  and  O_31
REMARK    4  A    between atoms: C_11  and  C_30
REMARK    5  A    between atoms: C_12  and  O_26
REMARK    6  A    between atoms: C_18  and  O_20
REMARK    7  A    between atoms: O_26  and  C_27
REMARK    8  A    between atoms: C_27  and  C_29
REMARK                            x       y       z     vdW  Elec       q    Type
REMARK                         _______ _______ _______ _____ _____    ______ ____
ROOT
ATOM      1  C   UNL     1       0.761  -1.012   4.076  0.00  0.00    +0.010 C 
ATOM      2  C   UNL     1       0.639   0.159   3.099  0.00  0.00    +0.024 C 
ATOM      3  C   UNL     1       1.712   0.032   2.042  0.00  0.00    +0.035 C 
ATOM      4  C   UNL     1       3.022  -0.455   2.683  0.00  0.00    +0.121 C 
ATOM      5  C   UNL     1       4.067  -0.063   1.605  0.00  0.00    +0.063 C 
ATOM      6  C   UNL     1       3.556   1.287   1.052  0.00  0.00    +0.127 C 
ATOM      7  C   UNL     1       2.050   1.329   1.365  0.00  0.00    +0.037 C 
ATOM      8  C   UNL     1       1.254   1.562   0.066  0.00  0.00    +0.196 C 
ATOM      9  C   UNL     1      -0.113   0.865   0.242  0.00  0.00    +0.110 C 
ATOM     10  C   UNL     1      -0.805   1.369   1.521  0.00  0.00    +0.216 C 
ATOM     11  C   UNL     1      -0.740   0.157   2.501  0.00  0.00    +0.159 C 
ATOM     12  O   UNL     1      -2.193   1.579   1.137  0.00  0.00    -0.455 OA
ATOM     13  C   UNL     1      -2.252   1.837  -0.184  0.00  0.00    +0.335 C 
ATOM     14  O   UNL     1      -3.159   2.426  -0.737  0.00  0.00    -0.245 OA
ATOM     15  C   UNL     1      -1.043   1.304  -0.872  0.00  0.00    +0.040 C 
ATOM     16  C   UNL     1      -0.817   1.223  -2.181  0.00  0.00    +0.020 C 
ATOM     17  C   UNL     1       1.775   2.482   2.333  0.00  0.00    +0.018 C 
ENDROOT
BRANCH  11  18
ATOM     18  O   UNL     1      -1.716   0.324   3.530  0.00  0.00    -0.388 OA
ATOM     19  H   UNL     1      -2.629   0.331   3.210  0.00  0.00    +0.210 HD
ENDBRANCH  11  18
BRANCH   6  20
ATOM     20  O   UNL     1       3.768   1.354  -0.360  0.00  0.00    -0.391 OA
ATOM     21  H   UNL     1       4.699   1.332  -0.620  0.00  0.00    +0.210 HD
ENDBRANCH   6  20
BRANCH   4  22
ATOM     22  O   UNL     1       2.994  -1.871   2.874  0.00  0.00    -0.391 OA
ATOM     23  H   UNL     1       3.832  -2.242   3.184  0.00  0.00    +0.210 HD
ENDBRANCH   4  22
BRANCH   8  24
ATOM     24  O   UNL     1       1.060   2.985  -0.147  0.00  0.00    -0.460 OA
BRANCH  24  25
ATOM     25  C   UNL     1       0.921   3.398  -1.417  0.00  0.00    +0.304 C 
ATOM     26  O   UNL     1       0.960   2.596  -2.320  0.00  0.00    -0.251 OA
ATOM     27  C   UNL     1       0.717   4.861  -1.716  0.00  0.00    +0.136 C 
ENDBRANCH  24  25
ENDBRANCH   8  24
TORSDOF 5
