REMARK  Name = ZINC59421683
REMARK  6 active torsions:
REMARK  status: ('A' for Active; 'I' for Inactive)
REMARK    1  A    between atoms: C_1  and  N_2
REMARK    2  A    between atoms: C_3  and  C_5
REMARK    3  A    between atoms: C_10  and  N_11
REMARK    4  A    between atoms: C_12  and  C_14
REMARK    5  A    between atoms: C_17  and  S_19
REMARK    6  A    between atoms: S_19  and  N_22
REMARK                            x       y       z     vdW  Elec       q    Type
REMARK                         _______ _______ _______ _____ _____    ______ ____
ROOT
ATOM      1  N   UNL     1      -3.598  -2.311   0.209  0.00  0.00    -0.278 N 
ATOM      2  C   UNL     1      -4.709  -3.047   0.411  0.00  0.00    +0.284 C 
ATOM      3  O   UNL     1      -4.620  -4.247   0.590  0.00  0.00    -0.266 OA
ATOM      4  H   UNL     1      -3.661  -1.346   0.143  0.00  0.00    +0.155 HD
ENDROOT
BRANCH   1  10
ATOM      5  C   UNL     1      -1.206  -2.314   0.597  0.00  0.00    +0.058 A 
ATOM      6  C   UNL     1       0.030  -2.955   0.482  0.00  0.00    +0.016 A 
ATOM      7  C   UNL     1       0.111  -4.189  -0.125  0.00  0.00    +0.021 A 
ATOM      8  C   UNL     1      -1.030  -4.801  -0.623  0.00  0.00    +0.043 A 
ATOM      9  C   UNL     1      -2.260  -4.179  -0.517  0.00  0.00    +0.044 A 
ATOM     10  C   UNL     1      -2.360  -2.937   0.096  0.00  0.00    +0.047 A 
ATOM     11 CL   UNL     1      -0.913  -6.356  -1.386  0.00  0.00    -0.083 Cl
BRANCH   5  14
ATOM     12  C   UNL     1      -0.300   0.869   2.458  0.00  0.00    +0.128 C 
ATOM     13  N   UNL     1      -0.208  -0.443   1.813  0.00  0.00    -0.314 N 
ATOM     14  C   UNL     1      -1.299  -0.993   1.245  0.00  0.00    +0.246 C 
ATOM     15  O   UNL     1      -2.360  -0.400   1.267  0.00  0.00    -0.270 OA
ATOM     16  H   UNL     1       0.639  -0.917   1.795  0.00  0.00    +0.149 HD
ENDBRANCH   5  14
ENDBRANCH   1  10
BRANCH   2  17
ATOM     17  C   UNL     1      -6.025  -2.401   0.415  0.00  0.00    +0.192 A 
ATOM     18  C   UNL     1      -7.224  -3.024   0.612  0.00  0.00    +0.057 A 
ATOM     19  C   UNL     1      -8.213  -2.031   0.535  0.00  0.00    +0.072 A 
ATOM     20  C   UNL     1      -7.582  -0.860   0.297  0.00  0.00    +0.259 A 
ATOM     21  O   UNL     1      -6.263  -1.086   0.231  0.00  0.00    -0.432 OA
BRANCH  20  22
ATOM     22  S   UNL     1      -8.364   0.708   0.112  0.00  0.00    +0.094 S 
ATOM     23  O   UNL     1      -7.477   1.517  -0.649  0.00  0.00    -0.150 OA
ATOM     24  O   UNL     1      -9.700   0.450  -0.298  0.00  0.00    -0.150 OA
BRANCH  22  25
ATOM     25  N   UNL     1      -8.454   1.391   1.617  0.00  0.00    -0.174 NA
ATOM     26  C   UNL     1      -9.621   1.153   2.478  0.00  0.00    +0.109 C 
ATOM     27  C   UNL     1      -9.134   0.633   3.835  0.00  0.00    +0.017 C 
ATOM     28  C   UNL     1      -8.113   1.613   4.416  0.00  0.00    +0.003 C 
ATOM     29  C   UNL     1      -6.909   1.714   3.478  0.00  0.00    +0.017 C 
ATOM     30  C   UNL     1      -7.367   2.242   2.120  0.00  0.00    +0.109 C 
ENDBRANCH  22  25
ENDBRANCH  20  22
ENDBRANCH   2  17
TORSDOF 5
