REMARK  Name = ZINC61769588
REMARK  7 active torsions:
REMARK  status: ('A' for Active; 'I' for Inactive)
REMARK    1  A    between atoms: C_1  and  C_2
REMARK    2  A    between atoms: C_2  and  C_3
REMARK    3  A    between atoms: C_2  and  N_4
REMARK    4  A    between atoms: N_11  and  C_12
REMARK    5  A    between atoms: N_11  and  C_15
REMARK    6  A    between atoms: C_12  and  C_13
REMARK    7  A    between atoms: C_13  and  O_14
REMARK                            x       y       z     vdW  Elec       q    Type
REMARK                         _______ _______ _______ _____ _____    ______ ____
ROOT
ATOM      1  N   UNL     1      -1.178  -1.107   0.290  0.00  0.00    -0.308 N 
ATOM      2  C   UNL     1      -2.011  -0.766   1.314  0.00  0.00    +0.109 A 
ATOM      3  C   UNL     1      -3.335  -1.020   1.243  0.00  0.00    +0.131 A 
ATOM      4  N   UNL     1      -3.880  -1.611   0.180  0.00  0.00    -0.234 NA
ATOM      5  C   UNL     1      -3.136  -1.968  -0.846  0.00  0.00    +0.187 A 
ATOM      6  C   UNL     1      -1.694  -1.703  -0.808  0.00  0.00    +0.292 A 
ATOM      7  O   UNL     1      -0.977  -2.017  -1.743  0.00  0.00    -0.264 OA
ATOM      8  N   UNL     1      -3.710  -2.584  -1.950  0.00  0.00    -0.306 N 
ENDROOT
BRANCH   8   9
ATOM      9  C   UNL     1      -5.129  -2.948  -1.931  0.00  0.00    +0.075 C 
ATOM     10  C   UNL     1      -5.976  -1.691  -1.727  0.00  0.00    +0.022 C 
ATOM     11  C   UNL     1      -7.458  -2.072  -1.706  0.00  0.00    +0.002 C 
ATOM     12  C   UNL     1      -7.717  -3.052  -0.561  0.00  0.00    +0.000 C 
ATOM     13  C   UNL     1      -6.870  -4.310  -0.765  0.00  0.00    +0.002 C 
ATOM     14  C   UNL     1      -5.388  -3.929  -0.786  0.00  0.00    +0.022 C 
ENDBRANCH   8   9
BRANCH   1  16
ATOM     15  C   UNL     1       0.473   0.680   0.541  0.00  0.00    +0.030 C 
ATOM     16  C   UNL     1       0.257  -0.826   0.377  0.00  0.00    +0.084 C 
ATOM     17  C   UNL     1       0.850  -1.560   1.581  0.00  0.00    +0.030 C 
ENDBRANCH   1  16
BRANCH   8  18
ATOM     18  C   UNL     1      -2.897  -2.868  -3.135  0.00  0.00    +0.134 C 
BRANCH  18  19
ATOM     19  C   UNL     1      -2.162  -4.196  -2.942  0.00  0.00    +0.174 C 
BRANCH  19  20
ATOM     20  O   UNL     1      -3.112  -5.261  -2.872  0.00  0.00    -0.393 OA
ATOM     21  H   UNL     1      -2.716  -6.135  -2.750  0.00  0.00    +0.209 HD
ENDBRANCH  19  20
ENDBRANCH  18  19
ENDBRANCH   8  18
TORSDOF 5
