REMARK  Name = ZINC13582351
REMARK  4 active torsions:
REMARK  status: ('A' for Active; 'I' for Inactive)
REMARK    1  A    between atoms: C_1  and  C_2
REMARK    2  A    between atoms: C_2  and  N_3
REMARK    3  A    between atoms: N_11  and  N_12
REMARK    4  A    between atoms: C_13  and  C_15
REMARK                            x       y       z     vdW  Elec       q    Type
REMARK                         _______ _______ _______ _____ _____    ______ ____
ROOT
ATOM      1  N   UNL     1       4.618  -1.458  -2.332  0.00  0.00    -0.203 N 
ATOM      2  C   UNL     1       5.819  -1.805  -2.837  0.00  0.00    +0.276 C 
ATOM      3  O   UNL     1       5.910  -2.164  -3.992  0.00  0.00    -0.270 OA
ATOM      4  H   UNL     1       4.546  -1.171  -1.409  0.00  0.00    +0.177 HD
ENDROOT
BRANCH   1  13
ATOM      5  N   UNL     1       0.688  -0.476  -1.203  0.00  0.00    -0.266 N 
ATOM      6  C   UNL     1       0.055  -0.734  -2.414  0.00  0.00    +0.046 A 
ATOM      7  C   UNL     1      -1.277  -0.632  -2.800  0.00  0.00    +0.024 A 
ATOM      8  C   UNL     1      -1.652  -0.956  -4.089  0.00  0.00    +0.002 A 
ATOM      9  C   UNL     1      -0.712  -1.385  -5.010  0.00  0.00    +0.001 A 
ATOM     10  C   UNL     1       0.615  -1.493  -4.645  0.00  0.00    +0.012 A 
ATOM     11  C   UNL     1       1.002  -1.169  -3.349  0.00  0.00    +0.028 A 
ATOM     12  C   UNL     1       2.308  -1.174  -2.650  0.00  0.00    +0.153 C 
ATOM     13  N   UNL     1       3.476  -1.512  -3.141  0.00  0.00    -0.174 NA
ATOM     14  C   UNL     1       2.009  -0.710  -1.280  0.00  0.00    +0.271 C 
ATOM     15  O   UNL     1       2.815  -0.567  -0.380  0.00  0.00    -0.268 OA
BRANCH   5  17
ATOM     16  C   UNL     1      -0.019   1.526   0.010  0.00  0.00    +0.025 C 
ATOM     17  C   UNL     1       0.002  -0.004   0.002  0.00  0.00    +0.111 C 
ENDBRANCH   5  17
ENDBRANCH   1  13
BRANCH   2  18
ATOM     18  C   UNL     1       7.048  -1.747  -1.967  0.00  0.00    +0.297 C 
ATOM     19  C   UNL     1       6.933  -2.781  -0.839  0.00  0.00    +0.283 C 
ATOM     20  O   UNL     1       8.120  -2.709  -0.042  0.00  0.00    -0.484 OA
ATOM     21  C   UNL     1       9.305  -2.670  -0.711  0.00  0.00    +0.162 A 
ATOM     22  C   UNL     1      10.479  -2.962  -0.034  0.00  0.00    +0.049 A 
ATOM     23  C   UNL     1      11.690  -2.923  -0.699  0.00  0.00    +0.004 A 
ATOM     24  C   UNL     1      11.734  -2.593  -2.041  0.00  0.00    +0.004 A 
ATOM     25  C   UNL     1      10.567  -2.302  -2.722  0.00  0.00    +0.049 A 
ATOM     26  C   UNL     1       9.348  -2.341  -2.061  0.00  0.00    +0.163 A 
ATOM     27  O   UNL     1       8.207  -2.059  -2.747  0.00  0.00    -0.472 OA
ENDBRANCH   2  18
TORSDOF 3
