REMARK  Name = ZINC03505111
REMARK  8 active torsions:
REMARK  status: ('A' for Active; 'I' for Inactive)
REMARK    1  A    between atoms: C_1  and  C_2
REMARK    2  A    between atoms: C_5  and  C_34
REMARK    3  A    between atoms: C_6  and  N_8
REMARK    4  A    between atoms: C_17  and  S_18
REMARK    5  A    between atoms: S_18  and  C_19
REMARK    6  A    between atoms: C_19  and  C_21
REMARK    7  A    between atoms: C_19  and  C_22
REMARK    8  A    between atoms: C_29  and  C_33
REMARK                            x       y       z     vdW  Elec       q    Type
REMARK                         _______ _______ _______ _____ _____    ______ ____
ROOT
ATOM      1  N   UNL     1       2.149   3.429  -0.006  0.00  0.00    -0.255 N 
ATOM      2  C   UNL     1       3.463   3.719  -0.013  0.00  0.00    +0.268 A 
ATOM      3  O   UNL     1       3.840   4.878  -0.011  0.00  0.00    -0.267 OA
ATOM      4  C   UNL     1       4.411   2.648  -0.026  0.00  0.00    +0.076 A 
ATOM      5  C   UNL     1       5.873   2.732  -0.039  0.00  0.00    -0.023 A 
ATOM      6  C   UNL     1       6.552   1.567  -0.051  0.00  0.00    -0.004 A 
ATOM      7  S   UNL     1       5.306   0.307  -0.046  0.00  0.00    -0.073 S 
ATOM      8  C   UNL     1       3.871   1.351  -0.028  0.00  0.00    +0.117 A 
ATOM      9  N   UNL     1       2.561   1.131  -0.016  0.00  0.00    -0.215 NA
ATOM     10  C   UNL     1       1.708   2.135  -0.003  0.00  0.00    +0.178 A 
ATOM     11  C   UNL     1       8.040   1.384  -0.065  0.00  0.00    +0.046 C 
ATOM     12  C   UNL     1       8.689   2.724  -0.438  0.00  0.00    -0.009 C 
ATOM     13  C   UNL     1       8.055   3.831   0.410  0.00  0.00    +0.008 C 
ATOM     14  C   UNL     1       6.613   4.067  -0.039  0.00  0.00    +0.037 C 
ATOM     15  C   UNL     1      10.193   2.660  -0.163  0.00  0.00    +0.008 C 
ENDROOT
BRANCH   1  21
ATOM     16  C   UNL     1      -0.652   6.582   2.524  0.00  0.00    +0.044 C 
ATOM     17  C   UNL     1      -0.160   6.020   1.216  0.00  0.00    -0.048 A 
ATOM     18  C   UNL     1      -0.630   6.535   0.022  0.00  0.00    +0.004 A 
ATOM     19  C   UNL     1      -0.181   6.022  -1.181  0.00  0.00    +0.005 A 
ATOM     20  C   UNL     1       0.744   4.997  -1.193  0.00  0.00    -0.026 A 
ATOM     21  C   UNL     1       1.214   4.473   0.004  0.00  0.00    +0.055 A 
ATOM     22  C   UNL     1       0.761   4.991   1.210  0.00  0.00    +0.030 A 
ATOM     23  C   UNL     1       1.238   4.442  -2.505  0.00  0.00    +0.046 C 
ENDBRANCH   1  21
BRANCH  10  24
ATOM     24  S   UNL     1      -0.022   1.806   0.012  0.00  0.00    -0.075 S 
BRANCH  24  25
ATOM     25  C   UNL     1       0.002  -0.004   0.002  0.00  0.00    +0.137 C 
ATOM     26  C   UNL     1       0.606  -0.499  -1.314  0.00  0.00    +0.029 C 
BRANCH  25  27
ATOM     27  C   UNL     1      -1.405  -0.526   0.137  0.00  0.00    +0.233 C 
ATOM     28  O   UNL     1      -2.342   0.158  -0.215  0.00  0.00    -0.274 OA
ATOM     29  N   UNL     1      -1.622  -1.754   0.648  0.00  0.00    -0.239 N 
ATOM     30  C   UNL     1      -2.881  -2.221   0.768  0.00  0.00    +0.303 C 
ATOM     31  O   UNL     1      -3.820  -1.535   0.415  0.00  0.00    -0.253 OA
ATOM     32  N   UNL     1      -3.098  -3.449   1.280  0.00  0.00    -0.313 N 
ATOM     33  H   UNL     1      -0.873  -2.302   0.930  0.00  0.00    +0.159 HD
ATOM     34  H   UNL     1      -2.348  -3.997   1.562  0.00  0.00    +0.146 HD
ATOM     35  H   UNL     1      -4.004  -3.785   1.366  0.00  0.00    +0.146 HD
ENDBRANCH  25  27
ENDBRANCH  24  25
ENDBRANCH  10  24
TORSDOF 4
