REMARK  Name = ZINC12063451
REMARK  10 active torsions:
REMARK  status: ('A' for Active; 'I' for Inactive)
REMARK    1  A    between atoms: C_1  and  C_2
REMARK    2  A    between atoms: C_2  and  O_3
REMARK    3  A    between atoms: O_3  and  C_4
REMARK    4  A    between atoms: C_6  and  C_11
REMARK    5  A    between atoms: C_9  and  O_10
REMARK    6  A    between atoms: C_14  and  C_28
REMARK    7  A    between atoms: N_21  and  C_22
REMARK    8  A    between atoms: C_22  and  C_23
REMARK    9  A    between atoms: C_30  and  C_35
REMARK   10  A    between atoms: C_33  and  O_34
REMARK                            x       y       z     vdW  Elec       q    Type
REMARK                         _______ _______ _______ _____ _____    ______ ____
ROOT
ATOM      1  C   UNL     1      -0.324  -4.983   0.604  0.00  0.00    +0.142 C 
ATOM      2  C   UNL     1       0.831  -5.589   1.353  0.00  0.00    +0.035 A 
ATOM      3  C   UNL     1       1.943  -5.379   2.175  0.00  0.00    +0.102 A 
ATOM      4  N   UNL     1       2.486  -6.558   2.413  0.00  0.00    -0.173 NA
ATOM      5  N   UNL     1       1.826  -7.490   1.822  0.00  0.00    -0.272 N 
ATOM      6  H   UNL     1       2.043  -8.434   1.858  0.00  0.00    +0.189 HD
ATOM      7  C   UNL     1       0.773  -6.952   1.137  0.00  0.00    +0.126 A 
ATOM      8  C   UNL     1      -0.379  -7.240   0.277  0.00  0.00    +0.266 C 
ATOM      9  O   UNL     1      -0.706  -8.351  -0.098  0.00  0.00    -0.268 OA
ATOM     10  N   UNL     1      -1.025  -6.102  -0.040  0.00  0.00    -0.278 N 
ENDROOT
BRANCH   3  11
ATOM     11  C   UNL     1       2.425  -4.072   2.685  0.00  0.00    +0.044 A 
ATOM     12  C   UNL     1       1.527  -3.165   3.244  0.00  0.00    +0.017 A 
ATOM     13  C   UNL     1       1.980  -1.950   3.717  0.00  0.00    -0.050 A 
ATOM     14  C   UNL     1       3.323  -1.629   3.639  0.00  0.00    +0.007 A 
ATOM     15  C   UNL     1       4.222  -2.521   3.086  0.00  0.00    +0.046 A 
ATOM     16  C   UNL     1       3.782  -3.747   2.613  0.00  0.00    +0.126 A 
ATOM     17  C   UNL     1       1.007  -0.970   4.320  0.00  0.00    +0.044 C 
BRANCH  16  18
ATOM     18  O   UNL     1       4.666  -4.627   2.075  0.00  0.00    -0.506 OA
ATOM     19  H   UNL     1       4.852  -4.476   1.138  0.00  0.00    +0.292 HD
ENDBRANCH  16  18
ENDBRANCH   3  11
BRANCH   1  22
ATOM     20  C   UNL     1       0.412  -1.778  -1.256  0.00  0.00    +0.162 A 
ATOM     21  C   UNL     1      -0.052  -2.665  -0.298  0.00  0.00    +0.055 A 
ATOM     22  C   UNL     1       0.182  -4.020  -0.439  0.00  0.00    -0.019 A 
ATOM     23  C   UNL     1       0.879  -4.494  -1.535  0.00  0.00    +0.009 A 
ATOM     24  C   UNL     1       1.346  -3.614  -2.494  0.00  0.00    +0.049 A 
ATOM     25  C   UNL     1       1.109  -2.255  -2.362  0.00  0.00    +0.158 A 
BRANCH  25  26
ATOM     26  O   UNL     1       1.562  -1.389  -3.308  0.00  0.00    -0.503 OA
ATOM     27  H   UNL     1       2.453  -1.053  -3.139  0.00  0.00    +0.292 HD
ENDBRANCH  25  26
BRANCH  20  28
ATOM     28  O   UNL     1       0.182  -0.445  -1.119  0.00  0.00    -0.489 OA
BRANCH  28  30
ATOM     29  C   UNL     1      -0.700   1.495   0.022  0.00  0.00    +0.048 C 
ATOM     30  C   UNL     1      -0.540  -0.027   0.041  0.00  0.00    +0.226 C 
ENDBRANCH  28  30
ENDBRANCH  20  28
ENDBRANCH   1  22
BRANCH  10  31
ATOM     31  C   UNL     1      -2.221  -5.996  -0.880  0.00  0.00    +0.183 C 
BRANCH  31  32
ATOM     32  C   UNL     1      -1.809  -5.814  -2.318  0.00  0.00    +0.122 A 
ATOM     33  C   UNL     1      -1.599  -6.801  -3.207  0.00  0.00    +0.046 A 
ATOM     34  C   UNL     1      -1.232  -6.184  -4.425  0.00  0.00    +0.041 A 
ATOM     35  C   UNL     1      -1.240  -4.856  -4.207  0.00  0.00    +0.195 A 
ATOM     36  O   UNL     1      -1.596  -4.638  -2.931  0.00  0.00    -0.466 OA
ENDBRANCH  31  32
ENDBRANCH  10  31
TORSDOF 8
