REMARK  Name = ZINC55154851
REMARK  10 active torsions:
REMARK  status: ('A' for Active; 'I' for Inactive)
REMARK    1  A    between atoms: C_1  and  C_2
REMARK    2  A    between atoms: C_4  and  O_19
REMARK    3  A    between atoms: C_7  and  N_8
REMARK    4  A    between atoms: N_8  and  C_9
REMARK    5  A    between atoms: C_9  and  C_11
REMARK    6  A    between atoms: C_9  and  C_12
REMARK    7  A    between atoms: N_17  and  C_18
REMARK    8  A    between atoms: O_19  and  C_20
REMARK    9  A    between atoms: C_20  and  C_21
REMARK   10  A    between atoms: C_20  and  C_22
REMARK                            x       y       z     vdW  Elec       q    Type
REMARK                         _______ _______ _______ _____ _____    ______ ____
ROOT
ATOM      1  N   UNL     1       0.032  -0.010   2.415  0.00  0.00    -0.333 N 
ATOM      2  H   UNL     1      -0.134   0.946   2.429  0.00  0.00    +0.147 HD
ENDROOT
BRANCH   1   9
ATOM      3  C   UNL     1      -0.469   1.461   0.033  0.00  0.00    +0.046 C 
ATOM      4  C   UNL     1      -0.212  -0.024   0.013  0.00  0.00    -0.026 A 
ATOM      5  C   UNL     1      -0.210  -0.709  -1.187  0.00  0.00    +0.050 A 
ATOM      6  C   UNL     1       0.026  -2.075  -1.206  0.00  0.00    +0.121 A 
ATOM      7  C   UNL     1       0.261  -2.756  -0.020  0.00  0.00    +0.047 A 
ATOM      8  C   UNL     1       0.259  -2.073   1.180  0.00  0.00    +0.027 A 
ATOM      9  C   UNL     1       0.028  -0.704   1.200  0.00  0.00    +0.031 A 
BRANCH   6  10
ATOM     10  O   UNL     1       0.028  -2.748  -2.388  0.00  0.00    -0.489 OA
BRANCH  10  11
ATOM     11  C   UNL     1       0.158  -4.170  -2.324  0.00  0.00    +0.167 C 
ATOM     12  C   UNL     1      -0.459  -4.795  -3.577  0.00  0.00    +0.051 C 
ATOM     13  C   UNL     1       1.640  -4.543  -2.245  0.00  0.00    +0.051 C 
ENDBRANCH  10  11
ENDBRANCH   6  10
ENDBRANCH   1   9
BRANCH   1  14
ATOM     14  C   UNL     1       0.285  -0.728   3.667  0.00  0.00    +0.154 C 
ATOM     15  C   UNL     1       1.794  -0.839   3.894  0.00  0.00    +0.038 C 
BRANCH  14  16
ATOM     16  C   UNL     1      -0.341   0.025   4.813  0.00  0.00    +0.240 C 
ATOM     17  O   UNL     1      -0.940   1.058   4.604  0.00  0.00    -0.273 OA
ATOM     18  N   UNL     1      -0.235  -0.451   6.069  0.00  0.00    -0.239 N 
ATOM     19  C   UNL     1      -0.795   0.222   7.094  0.00  0.00    +0.306 C 
ATOM     20  O   UNL     1      -1.396   1.258   6.885  0.00  0.00    -0.252 OA
ATOM     21  N   UNL     1      -0.690  -0.254   8.351  0.00  0.00    -0.302 N 
ATOM     22  C   UNL     1      -1.298   0.477   9.464  0.00  0.00    +0.129 C 
ATOM     23  H   UNL     1       0.244  -1.278   6.236  0.00  0.00    +0.159 HD
ATOM     24  H   UNL     1      -0.210  -1.081   8.518  0.00  0.00    +0.150 HD
ENDBRANCH  14  16
ENDBRANCH   1  14
TORSDOF 5
