REMARK  Name = ZINC26960173
REMARK  9 active torsions:
REMARK  status: ('A' for Active; 'I' for Inactive)
REMARK    1  A    between atoms: C_1  and  C_2
REMARK    2  A    between atoms: C_2  and  C_3
REMARK    3  A    between atoms: C_3  and  S_4
REMARK    4  A    between atoms: S_4  and  N_7
REMARK    5  A    between atoms: N_7  and  C_8
REMARK    6  A    between atoms: C_11  and  C_30
REMARK    7  A    between atoms: N_12  and  C_15
REMARK    8  A    between atoms: C_15  and  C_16
REMARK    9  A    between atoms: N_18  and  C_19
REMARK                            x       y       z     vdW  Elec       q    Type
REMARK                         _______ _______ _______ _____ _____    ______ ____
ROOT
ATOM      1  C   UNL     1      -4.445   1.379   4.583  0.00  0.00    +0.220 C 
ENDROOT
BRANCH   1   6
ATOM      2  C   UNL     1      -1.979   1.244   1.783  0.00  0.00    +0.112 A 
ATOM      3  C   UNL     1      -2.580   0.345   0.946  0.00  0.00    +0.031 A 
ATOM      4  C   UNL     1      -3.810  -0.219   1.315  0.00  0.00    +0.023 A 
ATOM      5  C   UNL     1      -4.389   0.128   2.487  0.00  0.00    +0.020 A 
ATOM      6  N   UNL     1      -3.794   1.022   3.321  0.00  0.00    -0.302 N 
ATOM      7  C   UNL     1      -2.610   1.579   3.001  0.00  0.00    +0.274 A 
ATOM      8  O   UNL     1      -2.084   2.376   3.762  0.00  0.00    -0.266 OA
ATOM      9  C   UNL     1      -5.711  -0.484   2.873  0.00  0.00    +0.063 C 
BRANCH   2  10
ATOM     10  N   UNL     1      -0.751   1.822   1.438  0.00  0.00    -0.215 N 
ATOM     11  H   UNL     1      -0.273   2.544   2.116  0.00  0.00    +0.173 HD
BRANCH  10  12
ATOM     12  S   UNL     1      -0.017   1.417   0.010  0.00  0.00    +0.043 S 
ATOM     13  O   UNL     1       0.002  -0.004   0.002  0.00  0.00    -0.155 OA
ATOM     14  O   UNL     1       1.195   2.158   0.002  0.00  0.00    -0.155 OA
BRANCH  12  15
ATOM     15  C   UNL     1      -1.135   2.034  -1.279  0.00  0.00    +0.188 C 
BRANCH  15  17
ATOM     16  C   UNL     1      -1.493   2.232  -3.744  0.00  0.00    +0.005 C 
ATOM     17  C   UNL     1      -0.551   1.712  -2.657  0.00  0.00    +0.021 C 
ENDBRANCH  15  17
ENDBRANCH  12  15
ENDBRANCH  10  12
ENDBRANCH   2  10
ENDBRANCH   1   6
BRANCH   1  18
ATOM     18  C   UNL     1      -3.986   0.440   5.669  0.00  0.00    +0.233 C 
ATOM     19  O   UNL     1      -3.193  -0.442   5.412  0.00  0.00    -0.274 OA
ATOM     20  N   UNL     1      -4.457   0.579   6.924  0.00  0.00    -0.311 N 
ATOM     21  H   UNL     1      -5.176   1.379   7.156  0.00  0.00    +0.149 HD
BRANCH  20  22
ATOM     22  C   UNL     1      -4.011  -0.334   7.979  0.00  0.00    +0.078 C 
ATOM     23  C   UNL     1      -4.169   0.342   9.344  0.00  0.00    +0.029 C 
ATOM     24  C   UNL     1      -3.486  -0.495  10.427  0.00  0.00    +0.058 C 
ATOM     25  C   UNL     1      -4.006  -1.925  10.344  0.00  0.00    +0.054 A 
ATOM     26  C   UNL     1      -4.618  -2.366   9.215  0.00  0.00    +0.016 A 
ATOM     27  S   UNL     1      -5.024  -4.043   9.620  0.00  0.00    -0.057 S 
ATOM     28  C   UNL     1      -4.365  -4.038  11.229  0.00  0.00    +0.156 A 
ATOM     29  N   UNL     1      -3.902  -2.809  11.334  0.00  0.00    -0.230 NA
ATOM     30  N   UNL     1      -4.334  -5.064  12.161  0.00  0.00    -0.338 N 
ATOM     31  C   UNL     1      -4.872  -1.607   7.956  0.00  0.00    +0.066 C 
ATOM     32  H   UNL     1      -3.874  -4.898  13.146  0.00  0.00    +0.144 HD
ATOM     33  H   UNL     1      -4.769  -6.044  11.915  0.00  0.00    +0.144 HD
ENDBRANCH  20  22
ENDBRANCH   1  18
TORSDOF 7
