REMARK  Name = ZINC63651199
REMARK  7 active torsions:
REMARK  status: ('A' for Active; 'I' for Inactive)
REMARK    1  A    between atoms: C_6  and  O_7
REMARK    2  A    between atoms: O_7  and  C_8
REMARK    3  A    between atoms: C_8  and  C_9
REMARK    4  A    between atoms: C_9  and  C_10
REMARK    5  A    between atoms: C_9  and  O_18
REMARK    6  A    between atoms: C_10  and  S_11
REMARK    7  A    between atoms: S_11  and  C_12
REMARK                            x       y       z     vdW  Elec       q    Type
REMARK                         _______ _______ _______ _____ _____    ______ ____
ROOT
ATOM      1  C   UNL     1      -3.576  -0.886   0.031  0.00  0.00    +0.162 C 
ENDROOT
BRANCH   1   2
ATOM      2  O   UNL     1      -3.608  -1.621  -1.193  0.00  0.00    -0.388 OA
ATOM      3  H   UNL     1      -3.686  -1.068  -1.983  0.00  0.00    +0.210 HD
ENDBRANCH   1   2
BRANCH   1   4
ATOM      4  C   UNL     1      -2.375   0.063   0.025  0.00  0.00    +0.261 C 
BRANCH   4   5
ATOM      5  O   UNL     1      -1.166  -0.700   0.009  0.00  0.00    -0.489 OA
BRANCH   5  11
ATOM      6  C   UNL     1      -0.017   1.382   0.010  0.00  0.00    +0.049 A 
ATOM      7  C   UNL     1       1.170   2.092   0.002  0.00  0.00    +0.053 A 
ATOM      8  C   UNL     1       2.381   1.419  -0.013  0.00  0.00    +0.166 A 
ATOM      9  C   UNL     1       2.402   0.027  -0.021  0.00  0.00    +0.170 A 
ATOM     10  C   UNL     1       1.212  -0.682  -0.012  0.00  0.00    +0.095 A 
ATOM     11  C   UNL     1       0.002  -0.004   0.002  0.00  0.00    +0.124 A 
ATOM     12  O   UNL     1       3.702  -0.390  -0.037  0.00  0.00    -0.452 OA
ATOM     13  C   UNL     1       4.468   0.757  -0.451  0.00  0.00    +0.466 C 
ATOM     14  O   UNL     1       3.668   1.875  -0.024  0.00  0.00    -0.453 OA
ENDBRANCH   5  11
ENDBRANCH   4   5
ENDBRANCH   1   4
BRANCH   1  15
ATOM     15  C   UNL     1      -4.865  -0.074   0.174  0.00  0.00    +0.111 C 
BRANCH  15  16
ATOM     16  S   UNL     1      -6.276  -1.204   0.330  0.00  0.00    -0.094 S 
BRANCH  16  17
ATOM     17  C   UNL     1      -7.666  -0.132   0.483  0.00  0.00    +0.160 A 
ATOM     18  N   UNL     1      -7.708   1.187   0.482  0.00  0.00    -0.133 NA
ATOM     19  N   UNL     1      -8.916   1.832   0.616  0.00  0.00    -0.125 NA
ATOM     20  C   UNL     1     -10.025   1.130   0.745  0.00  0.00    +0.180 A 
ATOM     21  S   UNL     1      -9.394  -0.539   0.674  0.00  0.00    -0.025 S 
ATOM     22  N   UNL     1     -11.335   1.572   0.892  0.00  0.00    -0.336 N 
ATOM     23  H   UNL     1     -11.527   2.522   0.909  0.00  0.00    +0.144 HD
ATOM     24  H   UNL     1     -12.056   0.929   0.978  0.00  0.00    +0.144 HD
ENDBRANCH  16  17
ENDBRANCH  15  16
ENDBRANCH   1  15
TORSDOF 7
