REMARK  Name = ZINC37643658
REMARK  7 active torsions:
REMARK  status: ('A' for Active; 'I' for Inactive)
REMARK    1  A    between atoms: C_1  and  C_2
REMARK    2  A    between atoms: C_2  and  N_3
REMARK    3  A    between atoms: C_6  and  C_9
REMARK    4  A    between atoms: C_9  and  N_10
REMARK    5  A    between atoms: N_10  and  S_11
REMARK    6  A    between atoms: S_11  and  C_14
REMARK    7  A    between atoms: C_15  and  N_22
REMARK                            x       y       z     vdW  Elec       q    Type
REMARK                         _______ _______ _______ _____ _____    ______ ____
ROOT
ATOM      1  S   UNL     1       4.966  -6.062  -2.402  0.00  0.00    +0.061 S 
ATOM      2  O   UNL     1       5.976  -6.440  -3.327  0.00  0.00    -0.153 OA
ATOM      3  O   UNL     1       5.177  -6.072  -0.997  0.00  0.00    -0.153 OA
ENDROOT
BRANCH   1   4
ATOM      4  C   UNL     1       3.583  -7.110  -2.711  0.00  0.00    +0.140 A 
ATOM      5  C   UNL     1       2.684  -7.394  -1.690  0.00  0.00    +0.053 A 
ATOM      6  C   UNL     1       1.596  -8.220  -1.937  0.00  0.00    +0.040 A 
ATOM      7  C   UNL     1       1.410  -8.758  -3.197  0.00  0.00    +0.021 A 
ATOM      8  C   UNL     1       2.307  -8.474  -4.211  0.00  0.00    +0.032 A 
ATOM      9  C   UNL     1       3.389  -7.646  -3.969  0.00  0.00    +0.047 A 
ATOM     10 BR   UNL     1       4.608  -7.255  -5.361  0.00  0.00    -0.048 Br
ATOM     11 BR   UNL     1      -0.072  -9.883  -3.535  0.00  0.00    -0.050 Br
BRANCH   5  12
ATOM     12  N   UNL     1       2.875  -6.849  -0.418  0.00  0.00    -0.356 N 
ATOM     13  H   UNL     1       3.379  -6.027  -0.313  0.00  0.00    +0.142 HD
ATOM     14  H   UNL     1       2.504  -7.294   0.360  0.00  0.00    +0.142 HD
ENDBRANCH   5  12
ENDBRANCH   1   4
BRANCH   1  15
ATOM     15  N   UNL     1       4.510  -4.521  -2.801  0.00  0.00    -0.190 NA
ATOM     16  H   UNL     1       4.943  -4.063  -3.539  0.00  0.00    +0.148 HD
BRANCH  15  17
ATOM     17  C   UNL     1       3.454  -3.849  -2.040  0.00  0.00    +0.107 C 
BRANCH  17  21
ATOM     18  N   UNL     1       2.890  -0.216  -1.474  0.00  0.00    +0.380 N 
ATOM     19  C   UNL     1       4.346  -0.341  -1.241  0.00  0.00    -0.079 C 
ATOM     20  C   UNL     1       4.779  -1.705  -1.810  0.00  0.00    -0.016 C 
ATOM     21  C   UNL     1       3.480  -2.350  -2.346  0.00  0.00    -0.014 C 
ATOM     22  C   UNL     1       2.373  -1.606  -1.557  0.00  0.00    -0.074 C 
ATOM     23  H   UNL     1       2.716   0.272  -2.340  0.00  0.00    -0.082 HD
BRANCH  18  25
ATOM     24  C   UNL     1       2.706   1.956  -0.359  0.00  0.00    -0.017 C 
ATOM     25  C   UNL     1       2.257   0.493  -0.355  0.00  0.00    -0.082 C 
ENDBRANCH  18  25
ENDBRANCH  17  21
ENDBRANCH  15  17
ENDBRANCH   1  15
TORSDOF 6
