REMARK  Name = ZINC66925791
REMARK  5 active torsions:
REMARK  status: ('A' for Active; 'I' for Inactive)
REMARK    1  A    between atoms: C_10  and  C_11
REMARK    2  A    between atoms: C_10  and  O_29
REMARK    3  A    between atoms: C_11  and  N_12
REMARK    4  A    between atoms: N_15  and  N_16
REMARK    5  A    between atoms: C_17  and  C_19
REMARK                            x       y       z     vdW  Elec       q    Type
REMARK                         _______ _______ _______ _____ _____    ______ ____
ROOT
ATOM      1  N   UNL     1       4.837   1.444   0.478  0.00  0.00    -0.295 N 
ATOM      2  C   UNL     1       5.710   2.251   1.112  0.00  0.00    +0.316 C 
ATOM      3  O   UNL     1       6.375   1.822   2.035  0.00  0.00    -0.251 OA
ATOM      4  N   UNL     1       5.846   3.534   0.723  0.00  0.00    -0.218 N 
ATOM      5  H   UNL     1       4.306   1.786  -0.259  0.00  0.00    +0.150 HD
ATOM      6  H   UNL     1       6.474   4.116   1.179  0.00  0.00    +0.174 HD
ENDROOT
BRANCH   4   7
ATOM      7  N   UNL     1       5.080   4.029  -0.341  0.00  0.00    -0.230 N 
ATOM      8  C   UNL     1       5.216   5.312  -0.730  0.00  0.00    +0.270 C 
ATOM      9  O   UNL     1       6.002   6.039  -0.159  0.00  0.00    -0.270 OA
ATOM     10  H   UNL     1       4.452   3.448  -0.797  0.00  0.00    +0.173 HD
BRANCH   8  11
ATOM     11  C   UNL     1       4.392   5.844  -1.874  0.00  0.00    +0.264 C 
ATOM     12  C   UNL     1       4.811   5.180  -3.207  0.00  0.00    +0.093 C 
ATOM     13  C   UNL     1       4.668   6.328  -4.188  0.00  0.00    -0.002 A 
ATOM     14  C   UNL     1       4.616   6.367  -5.563  0.00  0.00    +0.007 A 
ATOM     15  C   UNL     1       4.472   7.579  -6.215  0.00  0.00    +0.000 A 
ATOM     16  C   UNL     1       4.380   8.747  -5.480  0.00  0.00    +0.004 A 
ATOM     17  C   UNL     1       4.435   8.710  -4.103  0.00  0.00    +0.046 A 
ATOM     18  C   UNL     1       4.584   7.495  -3.439  0.00  0.00    +0.125 A 
ATOM     19  O   UNL     1       4.676   7.234  -2.103  0.00  0.00    -0.479 OA
ENDBRANCH   8  11
ENDBRANCH   4   7
BRANCH   1  20
ATOM     20  C   UNL     1       4.689   0.049   0.901  0.00  0.00    +0.145 C 
BRANCH  20  30
ATOM     21  C   UNL     1       3.501  -4.769   1.163  0.00  0.00    +0.000 A 
ATOM     22  C   UNL     1       3.494  -3.749   2.096  0.00  0.00    +0.000 A 
ATOM     23  C   UNL     1       3.578  -2.438   1.677  0.00  0.00    +0.007 A 
ATOM     24  C   UNL     1       3.670  -2.133   0.325  0.00  0.00    -0.011 A 
ATOM     25  C   UNL     1       3.682  -3.149  -0.604  0.00  0.00    -0.041 A 
ATOM     26  C   UNL     1       3.594  -4.469  -0.180  0.00  0.00    +0.004 A 
ATOM     27  C   UNL     1       3.796  -2.893  -2.084  0.00  0.00    +0.035 C 
ATOM     28  C   UNL     1       3.451  -1.440  -2.406  0.00  0.00    +0.008 C 
ATOM     29  C   UNL     1       4.277  -0.532  -1.488  0.00  0.00    +0.041 C 
ATOM     30  C   UNL     1       3.750  -0.679  -0.063  0.00  0.00    +0.107 C 
BRANCH  30  31
ATOM     31  O   UNL     1       2.447  -0.097   0.020  0.00  0.00    -0.382 OA
ATOM     32  H   UNL     1       2.054  -0.138   0.902  0.00  0.00    +0.211 HD
ENDBRANCH  30  31
ENDBRANCH  20  30
ENDBRANCH   1  20
TORSDOF 5
