REMARK  Name = ZINC37180724
REMARK  3 active torsions:
REMARK  status: ('A' for Active; 'I' for Inactive)
REMARK    1  A    between atoms: C_1  and  N_2
REMARK    2  A    between atoms: N_2  and  C_3
REMARK    3  A    between atoms: C_3  and  C_13
REMARK                            x       y       z     vdW  Elec       q    Type
REMARK                         _______ _______ _______ _____ _____    ______ ____
ROOT
ATOM      1  C   UNL     1       0.754  -0.376  -1.204  0.00  0.00    +0.063 C 
ATOM      2  C   UNL     1       0.862  -1.851  -1.548  0.00  0.00    +0.014 C 
ATOM      3  C   UNL     1      -0.549  -2.455  -1.613  0.00  0.00    +0.074 C 
ATOM      4  S   UNL     1      -1.333  -1.819  -3.124  0.00  0.00    -0.125 S 
ATOM      5  C   UNL     1      -0.949  -0.096  -3.086  0.00  0.00    +0.010 A 
ATOM      6  C   UNL     1      -0.013   0.426  -2.212  0.00  0.00    -0.034 A 
ATOM      7  C   UNL     1       0.248   1.794  -2.250  0.00  0.00    +0.004 A 
ATOM      8  C   UNL     1      -0.415   2.620  -3.131  0.00  0.00    +0.000 A 
ATOM      9  C   UNL     1      -1.357   2.095  -3.998  0.00  0.00    +0.001 A 
ATOM     10  C   UNL     1      -1.621   0.743  -3.975  0.00  0.00    +0.015 A 
ENDROOT
BRANCH   1  12
ATOM     11  C   UNL     1       0.776  -1.098   1.084  0.00  0.00    -0.098 C 
ATOM     12  N   UNL     1       0.093  -0.246   0.102  0.00  0.00    +0.391 N 
ATOM     13  H   UNL     1      -0.871  -0.532   0.020  0.00  0.00    -0.084 HD
ATOM     14  H   UNL     1       0.134   0.716   0.405  0.00  0.00    -0.084 HD
ENDBRANCH   1  12
BRANCH   1  15
ATOM     15  C   UNL     1       2.146   0.193  -1.095  0.00  0.00    +0.350 C 
ATOM     16  O   UNL     1       2.495   0.759  -0.074  0.00  0.00    -0.248 OA
ATOM     17  O   UNL     1       2.923   0.086  -2.029  0.00  0.00    -0.248 OA
ENDBRANCH   1  15
TORSDOF 2
