REMARK  Name = ZINC12229165
REMARK  12 active torsions:
REMARK  status: ('A' for Active; 'I' for Inactive)
REMARK    1  A    between atoms: C_1  and  C_2
REMARK    2  A    between atoms: C_5  and  N_9
REMARK    3  A    between atoms: C_7  and  C_8
REMARK    4  A    between atoms: C_14  and  C_27
REMARK    5  A    between atoms: N_16  and  C_19
REMARK    6  A    between atoms: C_19  and  C_20
REMARK    7  A    between atoms: N_22  and  C_23
REMARK    8  A    between atoms: C_23  and  C_24
REMARK    9  A    between atoms: C_23  and  C_25
REMARK   10  A    between atoms: C_23  and  C_26
REMARK   11  A    between atoms: C_27  and  C_28
REMARK   12  A    between atoms: C_27  and  C_29
REMARK                            x       y       z     vdW  Elec       q    Type
REMARK                         _______ _______ _______ _____ _____    ______ ____
ROOT
ATOM      1  N   UNL     1      -0.711   3.174   0.026  0.00  0.00    -0.227 N 
ATOM      2  C   UNL     1       0.654   3.236   0.013  0.00  0.00    +0.142 A 
ATOM      3  C   UNL     1       1.119   1.913   0.002  0.00  0.00    +0.049 A 
ATOM      4  C   UNL     1      -0.013   1.076   0.008  0.00  0.00    +0.145 A 
ATOM      5  N   UNL     1      -1.083   1.823   0.017  0.00  0.00    -0.173 NA
ATOM      6  C   UNL     1       2.561   1.674  -0.014  0.00  0.00    +0.075 A 
ATOM      7  N   UNL     1       3.379   2.688  -0.017  0.00  0.00    -0.172 NA
ATOM      8  N   UNL     1       2.914   4.005  -0.006  0.00  0.00    -0.219 N 
ATOM      9  C   UNL     1       1.597   4.288   0.009  0.00  0.00    +0.294 A 
ATOM     10  O   UNL     1       1.220   5.448   0.018  0.00  0.00    -0.264 OA
ENDROOT
BRANCH   1  15
ATOM     11  C   UNL     1      -4.247   7.610   0.082  0.00  0.00    +0.044 C 
ATOM     12  C   UNL     1      -3.308   6.432   0.068  0.00  0.00    -0.047 A 
ATOM     13  C   UNL     1      -2.104   6.501   0.744  0.00  0.00    +0.006 A 
ATOM     14  C   UNL     1      -1.241   5.423   0.733  0.00  0.00    +0.028 A 
ATOM     15  C   UNL     1      -1.583   4.268   0.040  0.00  0.00    +0.066 A 
ATOM     16  C   UNL     1      -2.791   4.204  -0.643  0.00  0.00    +0.031 A 
ATOM     17  C   UNL     1      -3.652   5.284  -0.623  0.00  0.00    -0.046 A 
ATOM     18  C   UNL     1      -4.965   5.213  -1.358  0.00  0.00    +0.044 C 
ENDBRANCH   1  15
BRANCH   6  19
ATOM     19  C   UNL     1       3.097   0.266  -0.027  0.00  0.00    +0.034 C 
ATOM     20  C   UNL     1       4.620   0.301  -0.168  0.00  0.00    +0.014 C 
ATOM     21  C   UNL     1       2.721  -0.435   1.280  0.00  0.00    +0.014 C 
ENDBRANCH   6  19
BRANCH   8  22
ATOM     22  C   UNL     1       3.882   5.105  -0.010  0.00  0.00    +0.243 C 
BRANCH  22  23
ATOM     23  C   UNL     1       4.228   5.474   1.410  0.00  0.00    +0.235 C 
ATOM     24  O   UNL     1       3.716   4.878   2.334  0.00  0.00    -0.274 OA
ATOM     25  N   UNL     1       5.106   6.468   1.652  0.00  0.00    -0.309 N 
ATOM     26  H   UNL     1       5.514   6.945   0.913  0.00  0.00    +0.149 HD
BRANCH  25  27
ATOM     27  C   UNL     1       5.442   6.827   3.032  0.00  0.00    +0.026 C 
ATOM     28  C   UNL     1       6.050   5.616   3.741  0.00  0.00    +0.031 C 
ATOM     29  C   UNL     1       6.453   7.976   3.028  0.00  0.00    +0.031 C 
ATOM     30  C   UNL     1       4.175   7.266   3.768  0.00  0.00    +0.031 C 
ENDBRANCH  25  27
ENDBRANCH  22  23
ENDBRANCH   8  22
TORSDOF 5
