REMARK  Name = ZINC08391228
REMARK  11 active torsions:
REMARK  status: ('A' for Active; 'I' for Inactive)
REMARK    1  A    between atoms: C_1  and  C_2
REMARK    2  A    between atoms: C_2  and  C_3
REMARK    3  A    between atoms: C_3  and  C_4
REMARK    4  A    between atoms: C_4  and  C_5
REMARK    5  A    between atoms: C_6  and  C_14
REMARK    6  A    between atoms: C_15  and  C_16
REMARK    7  A    between atoms: N_18  and  N_19
REMARK    8  A    between atoms: C_20  and  C_22
REMARK    9  A    between atoms: N_24  and  C_25
REMARK   10  A    between atoms: C_25  and  C_26
REMARK   11  A    between atoms: C_25  and  C_27
REMARK                            x       y       z     vdW  Elec       q    Type
REMARK                         _______ _______ _______ _____ _____    ______ ____
ROOT
ATOM      1  C   UNL     1      -3.163  -2.699  -2.494  0.00  0.00    +0.017 C 
ATOM      2  C   UNL     1      -3.339  -3.717  -3.368  0.00  0.00    +0.069 C 
ENDROOT
BRANCH   1   4
ATOM      3  C   UNL     1      -2.826  -2.585   0.015  0.00  0.00    +0.113 A 
ATOM      4  C   UNL     1      -3.571  -2.856  -1.095  0.00  0.00    +0.024 A 
ATOM      5  C   UNL     1      -4.874  -3.339  -0.593  0.00  0.00    +0.028 A 
ATOM      6  C   UNL     1      -6.048  -3.771  -1.202  0.00  0.00    +0.012 A 
ATOM      7  C   UNL     1      -7.113  -4.167  -0.422  0.00  0.00    +0.001 A 
ATOM      8  C   UNL     1      -7.015  -4.137   0.961  0.00  0.00    +0.004 A 
ATOM      9  C   UNL     1      -5.857  -3.711   1.574  0.00  0.00    +0.047 A 
ATOM     10  C   UNL     1      -4.772  -3.307   0.805  0.00  0.00    +0.136 A 
ATOM     11  O   UNL     1      -3.538  -2.858   1.116  0.00  0.00    -0.459 OA
BRANCH   3  12
ATOM     12  C   UNL     1      -1.413  -2.063   0.004  0.00  0.00    +0.075 C 
BRANCH  12  13
ATOM     13  C   UNL     1      -1.433  -0.534   0.013  0.00  0.00    +0.007 C 
BRANCH  13  15
ATOM     14  C   UNL     1      -0.019   1.526   0.010  0.00  0.00    +0.004 C 
ATOM     15  C   UNL     1       0.002  -0.004   0.002  0.00  0.00    -0.003 C 
ENDBRANCH  13  15
ENDBRANCH  12  13
ENDBRANCH   3  12
ENDBRANCH   1   4
BRANCH   2  16
ATOM     16  C   UNL     1      -2.945  -3.566  -4.719  0.00  0.00    +0.253 C 
ATOM     17  O   UNL     1      -2.449  -2.519  -5.096  0.00  0.00    -0.269 OA
ATOM     18  N   UNL     1      -3.120  -4.580  -5.590  0.00  0.00    -0.230 N 
ATOM     19  H   UNL     1      -3.515  -5.414  -5.290  0.00  0.00    +0.173 HD
BRANCH  18  20
ATOM     20  N   UNL     1      -2.731  -4.430  -6.927  0.00  0.00    -0.226 N 
ATOM     21  C   UNL     1      -2.905  -5.444  -7.798  0.00  0.00    +0.315 C 
ATOM     22  O   UNL     1      -3.400  -6.487  -7.423  0.00  0.00    -0.264 OA
ATOM     23  H   UNL     1      -2.335  -3.597  -7.227  0.00  0.00    +0.173 HD
BRANCH  21  24
ATOM     24  C   UNL     1      -2.490  -5.285  -9.224  0.00  0.00    +0.301 C 
ATOM     25  O   UNL     1      -1.995  -4.242  -9.599  0.00  0.00    -0.265 OA
ATOM     26  N   UNL     1      -2.664  -6.299 -10.095  0.00  0.00    -0.305 N 
ATOM     27  H   UNL     1      -3.060  -7.133  -9.795  0.00  0.00    +0.149 HD
BRANCH  26  28
ATOM     28  C   UNL     1      -2.257  -6.142 -11.493  0.00  0.00    +0.067 C 
ATOM     29  C   UNL     1      -1.966  -7.518 -12.097  0.00  0.00    +0.027 C 
ATOM     30  C   UNL     1      -3.383  -5.468 -12.280  0.00  0.00    +0.027 C 
ENDBRANCH  26  28
ENDBRANCH  21  24
ENDBRANCH  18  20
ENDBRANCH   2  16
TORSDOF 8
