REMARK  Name = ZINC48870009
REMARK  8 active torsions:
REMARK  status: ('A' for Active; 'I' for Inactive)
REMARK    1  A    between atoms: C_1  and  C_2
REMARK    2  A    between atoms: C_2  and  C_3
REMARK    3  A    between atoms: C_2  and  C_4
REMARK    4  A    between atoms: C_2  and  CA_5
REMARK    5  A    between atoms: CA_5  and  C_7
REMARK    6  A    between atoms: CA_5  and  N_10
REMARK    7  A    between atoms: N_13  and  C_14
REMARK    8  A    between atoms: C_14  and  C_15
REMARK                            x       y       z     vdW  Elec       q    Type
REMARK                         _______ _______ _______ _____ _____    ______ ____
ROOT
ATOM      1  N   UNL     1       0.010  -0.012  -2.444  0.00  0.00    -0.286 N 
ATOM      2  C   UNL     1       0.111  -0.681  -3.609  0.00  0.00    +0.301 C 
ATOM      3  O   UNL     1       0.789  -1.688  -3.676  0.00  0.00    -0.253 OA
ATOM      4  N   UNL     1      -0.541  -0.235  -4.701  0.00  0.00    -0.295 N 
ATOM      5  H   UNL     1      -0.532   0.791  -2.391  0.00  0.00    +0.151 HD
ATOM      6  H   UNL     1      -1.083   0.568  -4.648  0.00  0.00    +0.151 HD
ENDROOT
BRANCH   1   7
ATOM      7  CA  UNL     1       0.718  -0.497  -1.257  0.00  0.00    +0.193 C 
BRANCH   7   9
ATOM      8  C   UNL     1      -0.019   1.526   0.010  0.00  0.00    +0.013 C 
ATOM      9  C   UNL     1       0.002  -0.004   0.002  0.00  0.00    -0.009 C 
ATOM     10  C   UNL     1       0.742  -0.511   1.242  0.00  0.00    +0.013 C 
ATOM     11  C   UNL     1      -1.433  -0.534   0.013  0.00  0.00    +0.013 C 
ENDBRANCH   7   9
BRANCH   7  12
ATOM     12  C   UNL     1       2.132   0.024  -1.268  0.00  0.00    +0.376 C 
ATOM     13  O   UNL     1       3.025  -0.626  -0.751  0.00  0.00    -0.244 OA
ATOM     14  OXT UNL     1       2.382   1.096  -1.792  0.00  0.00    -0.244 OA
ENDBRANCH   7  12
ENDBRANCH   1   7
BRANCH   4  15
ATOM     15  C   UNL     1      -0.432  -0.962  -5.968  0.00  0.00    +0.142 C 
BRANCH  15  16
ATOM     16  C   UNL     1      -1.249  -0.261  -7.022  0.00  0.00    -0.016 A 
ATOM     17  C   UNL     1      -2.507  -0.731  -7.348  0.00  0.00    +0.006 A 
ATOM     18  C   UNL     1      -3.257  -0.088  -8.314  0.00  0.00    +0.000 A 
ATOM     19  C   UNL     1      -2.749   1.027  -8.956  0.00  0.00    +0.001 A 
ATOM     20  C   UNL     1      -1.491   1.498  -8.631  0.00  0.00    +0.015 A 
ATOM     21  C   UNL     1      -0.743   0.857  -7.660  0.00  0.00    +0.023 A 
ATOM     22 BR   UNL     1       0.976   1.505  -7.210  0.00  0.00    -0.050 Br
ENDBRANCH  15  16
ENDBRANCH   4  15
TORSDOF 5
