REMARK  Name = ZINC07026792
REMARK  13 active torsions:
REMARK  status: ('A' for Active; 'I' for Inactive)
REMARK    1  A    between atoms: C_1  and  C_2
REMARK    2  A    between atoms: C_2  and  N_3
REMARK    3  A    between atoms: N_3  and  C_4
REMARK    4  A    between atoms: N_3  and  C_6
REMARK    5  A    between atoms: C_4  and  C_5
REMARK    6  A    between atoms: C_9  and  C_12
REMARK    7  A    between atoms: N_14  and  N_15
REMARK    8  A    between atoms: C_16  and  C_17
REMARK    9  A    between atoms: C_16  and  C_18
REMARK   10  A    between atoms: C_19  and  C_20
REMARK   11  A    between atoms: C_22  and  C_29
REMARK   12  A    between atoms: C_26  and  C_27
REMARK   13  A    between atoms: C_26  and  C_28
REMARK                            x       y       z     vdW  Elec       q    Type
REMARK                         _______ _______ _______ _____ _____    ______ ____
ROOT
ATOM      1  C   UNL     1      -4.937   4.212   0.048  0.00  0.00    +0.263 C 
ATOM      2  O   UNL     1      -4.953   5.429   0.055  0.00  0.00    -0.268 OA
ATOM      3  N   UNL     1      -6.095   3.523   0.050  0.00  0.00    -0.203 N 
ATOM      4  H   UNL     1      -6.082   2.553   0.044  0.00  0.00    +0.178 HD
ENDROOT
BRANCH   1   8
ATOM      5  C   UNL     1      -1.231   2.140   0.019  0.00  0.00    +0.030 A 
ATOM      6  C   UNL     1      -2.427   1.426   0.016  0.00  0.00    +0.024 A 
ATOM      7  C   UNL     1      -3.629   2.094   0.031  0.00  0.00    +0.015 A 
ATOM      8  C   UNL     1      -3.650   3.493   0.038  0.00  0.00    +0.038 A 
ATOM      9  C   UNL     1      -2.448   4.207   0.036  0.00  0.00    +0.015 A 
ATOM     10  C   UNL     1      -1.248   3.532   0.027  0.00  0.00    +0.024 A 
BRANCH   5  11
ATOM     11  N   UNL     1      -0.018   1.461   0.010  0.00  0.00    -0.330 N 
BRANCH  11  13
ATOM     12  C   UNL     1       0.023  -0.522   1.442  0.00  0.00    +0.024 C 
ATOM     13  C   UNL     1       0.002  -0.004   0.002  0.00  0.00    +0.102 C 
ENDBRANCH  11  13
BRANCH  11  14
ATOM     14  C   UNL     1       1.241   2.211   0.002  0.00  0.00    +0.102 C 
ATOM     15  C   UNL     1       1.665   2.479  -1.443  0.00  0.00    +0.024 C 
ENDBRANCH  11  14
ENDBRANCH   5  11
ENDBRANCH   1   8
BRANCH   3  16
ATOM     16  N   UNL     1      -7.317   4.207   0.059  0.00  0.00    -0.185 NA
ATOM     17  C   UNL     1      -8.434   3.542   0.061  0.00  0.00    +0.056 C 
ATOM     18  C   UNL     1      -8.414   2.035   0.053  0.00  0.00    +0.067 C 
BRANCH  17  19
ATOM     19  C   UNL     1      -9.715   4.258   0.071  0.00  0.00    +0.021 C 
ATOM     20  C   UNL     1      -9.733   5.589   0.078  0.00  0.00    -0.017 C 
BRANCH  20  21
ATOM     21  C   UNL     1     -11.048   6.324   0.088  0.00  0.00    +0.043 C 
ATOM     22  C   UNL     1     -11.149   7.179  -1.141  0.00  0.00    -0.069 C 
ATOM     23  C   UNL     1     -11.598   8.393  -1.145  0.00  0.00    -0.027 C 
ATOM     24  C   UNL     1     -12.070   9.120   0.080  0.00  0.00    +0.028 C 
ATOM     25  C   UNL     1     -12.345   8.124   1.209  0.00  0.00    +0.011 C 
ATOM     26  C   UNL     1     -11.132   7.195   1.344  0.00  0.00    -0.025 C 
ATOM     27  C   UNL     1     -11.300   6.305   2.577  0.00  0.00    +0.012 C 
ATOM     28  C   UNL     1      -9.855   8.027   1.480  0.00  0.00    +0.012 C 
ATOM     29  C   UNL     1     -10.701   6.587  -2.452  0.00  0.00    +0.039 C 
ENDBRANCH  20  21
ENDBRANCH  17  19
ENDBRANCH   3  16
TORSDOF 7
