REMARK  Name = ZINC09088144
REMARK  4 active torsions:
REMARK  status: ('A' for Active; 'I' for Inactive)
REMARK    1  A    between atoms: C_5  and  N_7
REMARK    2  A    between atoms: C_12  and  C_13
REMARK    3  A    between atoms: C_12  and  N_50
REMARK    4  A    between atoms: N_17  and  C_18
REMARK                            x       y       z     vdW  Elec       q    Type
REMARK                         _______ _______ _______ _____ _____    ______ ____
ROOT
ATOM      1  C   UNL     1      -3.513   1.553   0.022  0.00  0.00    +0.097 A 
ATOM      2  N   UNL     1      -3.563   2.905   0.036  0.00  0.00    -0.314 N 
ATOM      3  H   UNL     1      -4.417   3.364   0.051  0.00  0.00    +0.170 HD
ATOM      4  C   UNL     1      -2.384   3.622   0.028  0.00  0.00    +0.233 A 
ATOM      5  N   UNL     1      -2.404   4.945   0.040  0.00  0.00    -0.213 NA
ATOM      6  N   UNL     1      -1.218   2.960   0.012  0.00  0.00    -0.179 NA
ATOM      7  C   UNL     1      -1.209   1.637  -0.006  0.00  0.00    +0.217 A 
ATOM      8  N   UNL     1      -2.356   0.942   0.002  0.00  0.00    -0.204 NA
ATOM      9  N   UNL     1      -0.010   0.967  -0.028  0.00  0.00    -0.327 N 
ATOM     10  H   UNL     1       0.004  -0.003  -0.037  0.00  0.00    +0.145 HD
ATOM     11  H   UNL     1       0.823   1.464  -0.037  0.00  0.00    +0.145 HD
ENDROOT
BRANCH   5  12
ATOM     12  C   UNL     1      -1.235   5.646   0.141  0.00  0.00    +0.068 A 
ATOM     13  C   UNL     1      -0.683   5.912   1.397  0.00  0.00    +0.029 A 
ATOM     14  C   UNL     1       0.500   6.615   1.492  0.00  0.00    +0.022 A 
ATOM     15  C   UNL     1       1.135   7.066   0.347  0.00  0.00    +0.041 A 
ATOM     16  C   UNL     1       0.591   6.810  -0.900  0.00  0.00    +0.022 A 
ATOM     17  C   UNL     1      -0.589   6.103  -1.010  0.00  0.00    +0.029 A 
ATOM     18 CL   UNL     1       2.620   7.956   0.476  0.00  0.00    -0.084 Cl
ENDBRANCH   5  12
BRANCH   1  19
ATOM     19  C   UNL     1      -4.789   0.752   0.031  0.00  0.00    -0.003 C 
BRANCH  19  25
ATOM     20  N   UNL     1      -5.975  -1.171   3.601  0.00  0.00    -0.331 N 
ATOM     21  C   UNL     1      -6.945  -0.287   2.940  0.00  0.00    +0.086 C 
ATOM     22  C   UNL     1      -6.539  -0.091   1.477  0.00  0.00    -0.059 C 
ATOM     23  C   UNL     1      -4.216  -0.406   2.080  0.00  0.00    -0.059 C 
ATOM     24  C   UNL     1      -4.622  -0.602   3.542  0.00  0.00    +0.086 C 
ATOM     25  N   UNL     1      -5.186   0.502   1.433  0.00  0.00    +0.386 N 
ATOM     26  H   UNL     1      -5.196   1.395   1.941  0.00  0.00    -0.081 HD
BRANCH  20  31
ATOM     27  C   UNL     1      -7.939  -2.302   6.496  0.00  0.00    +0.002 A 
ATOM     28  C   UNL     1      -7.101  -1.946   7.537  0.00  0.00    +0.003 A 
ATOM     29  C   UNL     1      -5.889  -1.334   7.275  0.00  0.00    +0.040 A 
ATOM     30  C   UNL     1      -5.509  -1.080   5.970  0.00  0.00    +0.144 A 
ATOM     31  C   UNL     1      -6.353  -1.431   4.922  0.00  0.00    +0.065 A 
ATOM     32  C   UNL     1      -7.568  -2.046   5.190  0.00  0.00    +0.026 A 
ATOM     33  F   UNL     1      -4.323  -0.487   5.714  0.00  0.00    -0.204 F 
ENDBRANCH  20  31
ENDBRANCH  19  25
ENDBRANCH   1  19
TORSDOF 4
