REMARK  Name = ZINC42014599
REMARK  5 active torsions:
REMARK  status: ('A' for Active; 'I' for Inactive)
REMARK    1  A    between atoms: C_1  and  C_2
REMARK    2  A    between atoms: C_7  and  N_10
REMARK    3  A    between atoms: C_11  and  C_15
REMARK    4  A    between atoms: C_18  and  N_22
REMARK    5  A    between atoms: C_20  and  N_21
REMARK                            x       y       z     vdW  Elec       q    Type
REMARK                         _______ _______ _______ _____ _____    ______ ____
ROOT
ATOM      1  N   UNL     1       1.536  -2.652   2.431  0.00  0.00    -0.222 N 
ATOM      2  C   UNL     1       0.982  -3.320   3.482  0.00  0.00    +0.184 A 
ATOM      3  N   UNL     1       1.944  -3.519   4.360  0.00  0.00    -0.108 NA
ATOM      4  N   UNL     1       3.051  -3.026   3.934  0.00  0.00    -0.023 NA
ATOM      5  N   UNL     1       2.890  -2.490   2.773  0.00  0.00    -0.043 NA
ENDROOT
BRANCH   1  11
ATOM      6  C   UNL     1       0.270   1.315  -0.234  0.00  0.00    +0.007 C 
ATOM      7  C   UNL     1       0.219  -0.212  -0.153  0.00  0.00    -0.012 C 
ATOM      8  C   UNL     1       0.927  -0.812  -1.369  0.00  0.00    +0.003 C 
ATOM      9  C   UNL     1       0.875  -2.339  -1.288  0.00  0.00    +0.002 C 
ATOM     10  C   UNL     1       1.574  -2.805  -0.009  0.00  0.00    +0.027 C 
ATOM     11  C   UNL     1       0.866  -2.205   1.207  0.00  0.00    +0.111 C 
ATOM     12  C   UNL     1       0.918  -0.678   1.126  0.00  0.00    +0.030 C 
ENDBRANCH   1  11
BRANCH   2  13
ATOM     13  C   UNL     1      -0.428  -3.740   3.612  0.00  0.00    +0.041 A 
ATOM     14  C   UNL     1      -1.060  -4.407   2.562  0.00  0.00    +0.015 A 
ATOM     15  C   UNL     1      -2.375  -4.799   2.686  0.00  0.00    +0.023 A 
ATOM     16  C   UNL     1      -3.079  -4.530   3.856  0.00  0.00    +0.026 A 
ATOM     17  C   UNL     1      -2.460  -3.867   4.907  0.00  0.00    +0.046 A 
ATOM     18  C   UNL     1      -1.135  -3.474   4.794  0.00  0.00    +0.037 A 
BRANCH  18  19
ATOM     19  N   UNL     1      -0.510  -2.813   5.849  0.00  0.00    -0.357 N 
ATOM     20  H   UNL     1       0.381  -2.449   5.733  0.00  0.00    +0.142 HD
ATOM     21  H   UNL     1      -0.966  -2.717   6.700  0.00  0.00    +0.142 HD
ENDBRANCH  18  19
BRANCH  16  22
ATOM     22  N   UNL     1      -4.409  -4.929   3.974  0.00  0.00    -0.358 N 
ATOM     23  H   UNL     1      -4.843  -5.393   3.241  0.00  0.00    +0.142 HD
ATOM     24  H   UNL     1      -4.901  -4.743   4.789  0.00  0.00    +0.142 HD
ENDBRANCH  16  22
ENDBRANCH   2  13
TORSDOF 4
