REMARK  Name = ZINC64609275
REMARK  7 active torsions:
REMARK  status: ('A' for Active; 'I' for Inactive)
REMARK    1  A    between atoms: C_1  and  C_2
REMARK    2  A    between atoms: C_2  and  C_3
REMARK    3  A    between atoms: C_2  and  N_14
REMARK    4  A    between atoms: N_5  and  C_6
REMARK    5  A    between atoms: N_14  and  C_15
REMARK    6  A    between atoms: N_21  and  C_26
REMARK    7  A    between atoms: N_24  and  C_25
REMARK                            x       y       z     vdW  Elec       q    Type
REMARK                         _______ _______ _______ _____ _____    ______ ____
ROOT
ATOM      1  C   UNL     1      -0.034   1.520   0.013  0.00  0.00    +0.038 C 
ATOM      2  C   UNL     1      -0.002  -0.009   0.002  0.00  0.00    +0.154 C 
ENDROOT
BRANCH   2   3
ATOM      3  C   UNL     1       0.708  -0.488  -1.238  0.00  0.00    +0.237 C 
ATOM      4  O   UNL     1       1.710  -1.166  -1.140  0.00  0.00    -0.273 OA
ATOM      5  N   UNL     1       0.231  -0.164  -2.456  0.00  0.00    -0.284 N 
ATOM      6  H   UNL     1      -0.606   0.320  -2.535  0.00  0.00    +0.155 HD
BRANCH   5   7
ATOM      7  C   UNL     1       0.943  -0.526  -3.606  0.00  0.00    +0.036 A 
ATOM      8  C   UNL     1       0.954   0.316  -4.710  0.00  0.00    +0.026 A 
ATOM      9  C   UNL     1       1.656  -0.042  -5.845  0.00  0.00    +0.043 A 
ATOM     10  C   UNL     1       2.349  -1.240  -5.882  0.00  0.00    +0.159 A 
ATOM     11  C   UNL     1       2.340  -2.083  -4.781  0.00  0.00    +0.160 A 
ATOM     12  C   UNL     1       1.643  -1.724  -3.641  0.00  0.00    +0.064 A 
ATOM     13  F   UNL     1       3.018  -3.251  -4.819  0.00  0.00    -0.202 F 
ATOM     14  F   UNL     1       3.035  -1.588  -6.992  0.00  0.00    -0.202 F 
ENDBRANCH   5   7
ENDBRANCH   2   3
BRANCH   2  15
ATOM     15  N   UNL     1       0.709  -0.491   1.189  0.00  0.00    -0.333 N 
ATOM     16  H   UNL     1       1.654  -0.702   1.136  0.00  0.00    +0.147 HD
BRANCH  15  17
ATOM     17  C   UNL     1       0.024  -0.648   2.399  0.00  0.00    +0.030 A 
ATOM     18  C   UNL     1      -1.333  -0.350   2.472  0.00  0.00    +0.025 A 
ATOM     19  C   UNL     1      -2.014  -0.503   3.663  0.00  0.00    +0.030 A 
ATOM     20  C   UNL     1      -1.344  -0.954   4.790  0.00  0.00    +0.070 A 
ATOM     21  C   UNL     1       0.018  -1.253   4.720  0.00  0.00    +0.071 A 
ATOM     22  C   UNL     1       0.698  -1.104   3.522  0.00  0.00    +0.051 A 
ATOM     23  N   UNL     1       0.403  -1.675   5.991  0.00  0.00    -0.295 N 
ATOM     24  C   UNL     1      -0.674  -1.635   6.797  0.00  0.00    +0.330 A 
ATOM     25  O   UNL     1      -0.679  -1.942   7.975  0.00  0.00    -0.246 OA
ATOM     26  N   UNL     1      -1.744  -1.204   6.104  0.00  0.00    -0.295 N 
ATOM     27  C   UNL     1      -3.098  -1.028   6.636  0.00  0.00    +0.154 C 
ATOM     28  C   UNL     1       1.752  -2.093   6.382  0.00  0.00    +0.154 C 
ENDBRANCH  15  17
ENDBRANCH   2  15
TORSDOF 4
