REMARK  Name = ZINC66437542
REMARK  6 active torsions:
REMARK  status: ('A' for Active; 'I' for Inactive)
REMARK    1  A    between atoms: C_1  and  C_2
REMARK    2  A    between atoms: C_7  and  N_8
REMARK    3  A    between atoms: C_9  and  C_11
REMARK    4  A    between atoms: C_11  and  C_13
REMARK    5  A    between atoms: C_11  and  N_14
REMARK    6  A    between atoms: C_22  and  C_27
REMARK                            x       y       z     vdW  Elec       q    Type
REMARK                         _______ _______ _______ _____ _____    ______ ____
ROOT
ATOM      1  N   UNL     1       0.035  -1.114   5.657  0.00  0.00    +0.388 N 
ATOM      2  C   UNL     1      -0.909  -2.124   5.184  0.00  0.00    -0.076 C 
ATOM      3  C   UNL     1      -0.539  -3.468   5.773  0.00  0.00    +0.000 C 
ATOM      4  C   UNL     1      -1.334  -3.695   7.071  0.00  0.00    +0.104 C 
ATOM      5  N   UNL     1      -1.429  -2.451   7.861  0.00  0.00    -0.316 N 
ATOM      6  C   UNL     1      -0.309  -1.547   8.021  0.00  0.00    +0.088 C 
ATOM      7  C   UNL     1      -0.311  -0.502   6.882  0.00  0.00    -0.059 C 
ATOM      8  C   UNL     1      -2.632  -2.137   8.469  0.00  0.00    +0.139 A 
ATOM      9  C   UNL     1      -2.859  -2.511   9.805  0.00  0.00    +0.092 A 
ATOM     10  C   UNL     1      -4.082  -2.183  10.399  0.00  0.00    +0.024 A 
ATOM     11  C   UNL     1      -5.019  -1.501   9.641  0.00  0.00    +0.021 A 
ATOM     12  C   UNL     1      -4.723  -1.167   8.332  0.00  0.00    +0.113 A 
ATOM     13  N   UNL     1      -3.561  -1.482   7.792  0.00  0.00    -0.239 NA
ATOM     14  H   UNL     1       0.938  -1.551   5.763  0.00  0.00    -0.081 HD
ENDROOT
BRANCH   1  15
ATOM     15  C   UNL     1       0.146  -0.068   4.631  0.00  0.00    +0.016 C 
ATOM     16  C   UNL     1      -1.134   0.770   4.617  0.00  0.00    -0.004 C 
BRANCH  15  18
ATOM     17  N   UNL     1       1.700   1.772   4.068  0.00  0.00    -0.287 N 
ATOM     18  C   UNL     1       1.324   0.818   4.943  0.00  0.00    +0.203 C 
ATOM     19  O   UNL     1       1.934   0.674   5.981  0.00  0.00    -0.277 OA
ATOM     20  H   UNL     1       1.173   1.933   3.269  0.00  0.00    +0.155 HD
BRANCH  17  27
ATOM     21  C   UNL     1       3.167   2.744   1.832  0.00  0.00    +0.045 C 
ATOM     22  C   UNL     1       3.596   3.025   3.249  0.00  0.00    -0.029 A 
ATOM     23  C   UNL     1       4.728   3.779   3.493  0.00  0.00    +0.006 A 
ATOM     24  C   UNL     1       5.122   4.037   4.792  0.00  0.00    +0.020 A 
ATOM     25  C   UNL     1       4.384   3.542   5.854  0.00  0.00    +0.043 A 
ATOM     26  C   UNL     1       3.251   2.787   5.616  0.00  0.00    +0.043 A 
ATOM     27  C   UNL     1       2.850   2.531   4.312  0.00  0.00    +0.038 A 
ATOM     28 CL   UNL     1       4.883   3.869   7.484  0.00  0.00    -0.083 Cl
ENDBRANCH  17  27
ENDBRANCH  15  18
ENDBRANCH   1  15
BRANCH   9  29
ATOM     29  C   UNL     1      -1.856  -3.216  10.545  0.00  0.00    +0.103 C 
ATOM     30  N   UNL     1      -1.060  -3.776  11.132  0.00  0.00    -0.191 NA
ENDBRANCH   9  29
TORSDOF 4
