REMARK  Name = ZINC08974662
REMARK  1 active torsions:
REMARK  status: ('A' for Active; 'I' for Inactive)
REMARK    1  A    between atoms: C_13  and  N_18
REMARK                            x       y       z     vdW  Elec       q    Type
REMARK                         _______ _______ _______ _____ _____    ______ ____
ROOT
ATOM      1  C   UNL     1      -1.219   1.760   0.017  0.00  0.00    +0.002 A 
ATOM      2  C   UNL     1      -0.013   1.076   0.008  0.00  0.00    +0.001 A 
ATOM      3  C   UNL     1       1.171   1.791   0.001  0.00  0.00    +0.017 A 
ATOM      4  C   UNL     1       1.135   3.162   0.008  0.00  0.00    +0.041 A 
ATOM      5  C   UNL     1      -0.075   3.893   0.023  0.00  0.00    +0.080 A 
ATOM      6  C   UNL     1      -1.266   3.130   0.029  0.00  0.00    +0.029 A 
ATOM      7  N   UNL     1       0.053   5.238   0.028  0.00  0.00    -0.225 NA
ATOM      8  C   UNL     1       1.223   5.835   0.020  0.00  0.00    +0.166 A 
ATOM      9  S   UNL     1       2.356   4.453   0.003  0.00  0.00    -0.052 S 
ATOM     10  N   UNL     1       1.506   7.188   0.024  0.00  0.00    -0.264 N 
ATOM     11  C   UNL     1       2.823   7.621   0.014  0.00  0.00    +0.203 A 
ATOM     12  N   UNL     1       3.075   8.921   0.018  0.00  0.00    -0.201 NA
ATOM     13  C   UNL     1       4.327   9.372   0.009  0.00  0.00    +0.125 A 
ATOM     14  C   UNL     1       5.376   8.457  -0.004  0.00  0.00    +0.113 A 
ATOM     15  C   UNL     1       5.072   7.101  -0.008  0.00  0.00    +0.254 A 
ATOM     16  N   UNL     1       3.797   6.724   0.006  0.00  0.00    -0.295 N 
ATOM     17  O   UNL     1       6.061   6.175  -0.021  0.00  0.00    -0.268 OA
ATOM     18  H   UNL     1       0.686   7.922   0.035  0.00  0.00    +0.157 HD
ATOM     19  H   UNL     1       3.556   5.651   0.012  0.00  0.00    +0.172 HD
ENDROOT
BRANCH  13  20
ATOM     20  N   UNL     1       4.583  10.734   0.013  0.00  0.00    -0.343 N 
ATOM     21  H   UNL     1       5.620  11.099   0.006  0.00  0.00    +0.144 HD
ATOM     22  H   UNL     1       3.748  11.451   0.025  0.00  0.00    +0.144 HD
ENDBRANCH  13  20
TORSDOF 1
