REMARK  Name = ZINC57866370
REMARK  6 active torsions:
REMARK  status: ('A' for Active; 'I' for Inactive)
REMARK    1  A    between atoms: C_1  and  C_2
REMARK    2  A    between atoms: C_5  and  C_9
REMARK    3  A    between atoms: C_7  and  N_8
REMARK    4  A    between atoms: N_17  and  C_18
REMARK    5  A    between atoms: C_18  and  C_19
REMARK    6  A    between atoms: C_19  and  N_21
REMARK                            x       y       z     vdW  Elec       q    Type
REMARK                         _______ _______ _______ _____ _____    ______ ____
ROOT
ATOM      1  C   UNL     1       0.052  -4.257  -0.030  0.00  0.00    +0.142 A 
ATOM      2  N   UNL     1      -0.123  -5.023   1.019  0.00  0.00    -0.228 NA
ATOM      3  C   UNL     1      -0.036  -6.324   0.651  0.00  0.00    +0.090 A 
ATOM      4  C   UNL     1      -0.141  -7.530   1.353  0.00  0.00    +0.030 A 
ATOM      5  C   UNL     1      -0.003  -8.717   0.691  0.00  0.00    +0.002 A 
ATOM      6  C   UNL     1       0.242  -8.742  -0.675  0.00  0.00    +0.002 A 
ATOM      7  C   UNL     1       0.349  -7.566  -1.387  0.00  0.00    +0.028 A 
ATOM      8  C   UNL     1       0.212  -6.350  -0.733  0.00  0.00    +0.069 A 
ATOM      9  N   UNL     1       0.258  -5.031  -1.140  0.00  0.00    -0.317 N 
ENDROOT
BRANCH   1  14
ATOM     10  C   UNL     1      -0.062   1.502   0.033  0.00  0.00    +0.045 C 
ATOM     11  C   UNL     1      -0.032  -0.005   0.015  0.00  0.00    -0.030 A 
ATOM     12  C   UNL     1      -0.686  -0.719   1.001  0.00  0.00    +0.006 A 
ATOM     13  C   UNL     1      -0.662  -2.099   0.991  0.00  0.00    +0.012 A 
ATOM     14  C   UNL     1       0.024  -2.778  -0.018  0.00  0.00    +0.019 A 
ATOM     15  C   UNL     1       0.683  -2.058  -1.012  0.00  0.00    +0.034 A 
ATOM     16  C   UNL     1       0.649  -0.671  -0.997  0.00  0.00    +0.028 A 
BRANCH  16  17
ATOM     17  N   UNL     1       1.303   0.055  -1.995  0.00  0.00    -0.358 N 
ATOM     18  H   UNL     1       1.282   1.025  -1.982  0.00  0.00    +0.142 HD
ATOM     19  H   UNL     1       1.778  -0.410  -2.701  0.00  0.00    +0.142 HD
ENDBRANCH  16  17
ENDBRANCH   1  14
BRANCH   9  20
ATOM     20  C   UNL     1       0.487  -4.550  -2.505  0.00  0.00    +0.182 C 
BRANCH  20  21
ATOM     21  C   UNL     1       1.968  -4.488  -2.773  0.00  0.00    +0.066 C 
ATOM     22  S   UNL     1       3.006  -4.917  -1.634  0.00  0.00    -0.039 S 
BRANCH  21  23
ATOM     23  N   UNL     1       2.419  -4.071  -3.973  0.00  0.00    -0.354 N 
ATOM     24  H   UNL     1       1.790  -3.811  -4.664  0.00  0.00    +0.143 HD
ATOM     25  H   UNL     1       3.373  -4.031  -4.146  0.00  0.00    +0.143 HD
ENDBRANCH  21  23
ENDBRANCH  20  21
ENDBRANCH   9  20
TORSDOF 5
