REMARK  Name = ZINC08568272
REMARK  8 active torsions:
REMARK  status: ('A' for Active; 'I' for Inactive)
REMARK    1  A    between atoms: C_1  and  C_2
REMARK    2  A    between atoms: C_2  and  C_3
REMARK    3  A    between atoms: C_3  and  C_4
REMARK    4  A    between atoms: C_11  and  N_29
REMARK    5  A    between atoms: C_12  and  C_27
REMARK    6  A    between atoms: C_13  and  C_15
REMARK    7  A    between atoms: C_18  and  O_25
REMARK    8  A    between atoms: O_25  and  C_26
REMARK                            x       y       z     vdW  Elec       q    Type
REMARK                         _______ _______ _______ _____ _____    ______ ____
ROOT
ATOM      1  C   UNL     1       0.761  -2.042   1.222  0.00  0.00    +0.071 A 
ATOM      2  C   UNL     1      -0.202  -2.863   1.793  0.00  0.00    +0.049 A 
ATOM      3  C   UNL     1       0.169  -4.161   1.582  0.00  0.00    +0.222 A 
ATOM      4  N   UNL     1       1.326  -4.147   0.901  0.00  0.00    -0.246 N 
ATOM      5  H   UNL     1       1.827  -4.925   0.610  0.00  0.00    +0.192 HD
ATOM      6  N   UNL     1       1.678  -2.807   0.679  0.00  0.00    -0.176 NA
ATOM      7  O   UNL     1      -0.564  -5.213   2.023  0.00  0.00    -0.423 OA
ATOM      8  C   UNL     1      -1.540  -4.963   2.920  0.00  0.00    +0.200 C 
ATOM      9  C   UNL     1      -2.000  -3.724   3.204  0.00  0.00    +0.098 C 
ATOM     10  C   UNL     1      -1.462  -2.486   2.530  0.00  0.00    +0.102 C 
ENDROOT
BRANCH  10  11
ATOM     11  C   UNL     1      -2.480  -1.952   1.556  0.00  0.00    -0.027 A 
ATOM     12  C   UNL     1      -2.840  -2.690   0.470  0.00  0.00    +0.009 A 
ATOM     13  C   UNL     1      -3.779  -2.216  -0.442  0.00  0.00    +0.046 A 
ATOM     14  C   UNL     1      -4.367  -0.994  -0.272  0.00  0.00    +0.128 A 
ATOM     15  C   UNL     1      -4.018  -0.203   0.842  0.00  0.00    +0.024 A 
ATOM     16  C   UNL     1      -3.066  -0.693   1.770  0.00  0.00    -0.010 A 
ATOM     17  C   UNL     1      -2.722   0.093   2.883  0.00  0.00    +0.009 A 
ATOM     18  C   UNL     1      -3.310   1.308   3.057  0.00  0.00    +0.001 A 
ATOM     19  C   UNL     1      -4.250   1.787   2.147  0.00  0.00    +0.001 A 
ATOM     20  C   UNL     1      -4.599   1.058   1.051  0.00  0.00    +0.012 A 
BRANCH  14  21
ATOM     21  O   UNL     1      -5.280  -0.544  -1.171  0.00  0.00    -0.495 OA
ATOM     22  C   UNL     1      -5.582  -1.401  -2.274  0.00  0.00    +0.277 C 
ENDBRANCH  14  21
ENDBRANCH  10  11
BRANCH   8  23
ATOM     23  N   UNL     1      -2.098  -6.027   3.583  0.00  0.00    -0.328 N 
ATOM     24  H   UNL     1      -1.788  -6.928   3.401  0.00  0.00    +0.145 HD
ATOM     25  H   UNL     1      -2.801  -5.878   4.234  0.00  0.00    +0.145 HD
ENDBRANCH   8  23
BRANCH   9  26
ATOM     26  C   UNL     1      -3.038  -3.581   4.180  0.00  0.00    +0.101 C 
ATOM     27  N   UNL     1      -3.861  -3.468   4.954  0.00  0.00    -0.191 NA
ENDBRANCH   9  26
BRANCH   1  28
ATOM     28  C   UNL     1       0.750  -0.535   1.220  0.00  0.00    +0.057 C 
BRANCH  28  30
ATOM     29  C   UNL     1      -0.001   1.498  -0.023  0.00  0.00    +0.004 C 
ATOM     30  C   UNL     1       0.009  -0.032  -0.021  0.00  0.00    +0.003 C 
ENDBRANCH  28  30
ENDBRANCH   1  28
TORSDOF 6
