REMARK  Name = ZINC18598530
REMARK  10 active torsions:
REMARK  status: ('A' for Active; 'I' for Inactive)
REMARK    1  A    between atoms: C_1  and  C_2
REMARK    2  A    between atoms: C_2  and  C_4
REMARK    3  A    between atoms: C_2  and  O_20
REMARK    4  A    between atoms: N_6  and  C_7
REMARK    5  A    between atoms: C_11  and  S_13
REMARK    6  A    between atoms: S_13  and  N_16
REMARK    7  A    between atoms: N_16  and  C_17
REMARK    8  A    between atoms: N_16  and  C_18
REMARK    9  A    between atoms: O_20  and  C_21
REMARK   10  A    between atoms: C_24  and  C_28
REMARK                            x       y       z     vdW  Elec       q    Type
REMARK                         _______ _______ _______ _____ _____    ______ ____
ROOT
ATOM      1  C   UNL     1      -1.743   1.678   0.611  0.00  0.00    +0.258 C 
ATOM      2  O   UNL     1      -2.889   2.073   0.552  0.00  0.00    -0.271 OA
ATOM      3  N   UNL     1      -1.491   0.363   0.765  0.00  0.00    -0.282 N 
ATOM      4  H   UNL     1      -0.579   0.054   0.884  0.00  0.00    +0.155 HD
ENDROOT
BRANCH   3   5
ATOM      5  C   UNL     1      -2.545  -0.558   0.752  0.00  0.00    +0.035 A 
ATOM      6  C   UNL     1      -2.491  -1.690   1.555  0.00  0.00    +0.025 A 
ATOM      7  C   UNL     1      -3.534  -2.594   1.544  0.00  0.00    +0.024 A 
ATOM      8  C   UNL     1      -4.629  -2.379   0.725  0.00  0.00    +0.067 A 
ATOM      9  C   UNL     1      -4.684  -1.255  -0.080  0.00  0.00    +0.125 A 
ATOM     10  C   UNL     1      -3.645  -0.345  -0.069  0.00  0.00    +0.053 A 
ATOM     11 CL   UNL     1      -5.936  -3.522   0.709  0.00  0.00    -0.082 Cl
BRANCH   9  12
ATOM     12  S   UNL     1      -6.080  -0.985  -1.121  0.00  0.00    +0.062 S 
ATOM     13  O   UNL     1      -5.837   0.228  -1.819  0.00  0.00    -0.153 OA
ATOM     14  O   UNL     1      -6.331  -2.213  -1.790  0.00  0.00    -0.153 OA
BRANCH  12  15
ATOM     15  N   UNL     1      -7.380  -0.710  -0.133  0.00  0.00    -0.183 NA
ATOM     16  C   UNL     1      -7.609   0.626   0.422  0.00  0.00    +0.131 C 
ATOM     17  C   UNL     1      -8.303  -1.803   0.185  0.00  0.00    +0.131 C 
ENDBRANCH  12  15
ENDBRANCH   9  12
ENDBRANCH   3   5
BRANCH   1  19
ATOM     18  C   UNL     1       0.198   2.382  -0.761  0.00  0.00    +0.062 C 
ATOM     19  C   UNL     1      -0.602   2.657   0.513  0.00  0.00    +0.256 C 
BRANCH  19  20
ATOM     20  O   UNL     1      -1.119   3.989   0.472  0.00  0.00    -0.478 OA
BRANCH  20  21
ATOM     21  C   UNL     1      -0.307   4.980   0.921  0.00  0.00    +0.140 A 
ATOM     22  C   UNL     1       1.006   4.693   1.274  0.00  0.00    +0.048 A 
ATOM     23  C   UNL     1       1.835   5.696   1.725  0.00  0.00    +0.022 A 
ATOM     24  C   UNL     1       1.352   7.002   1.837  0.00  0.00    +0.053 A 
ATOM     25  C   UNL     1       0.029   7.287   1.486  0.00  0.00    +0.042 A 
ATOM     26  C   UNL     1      -0.793   6.278   1.032  0.00  0.00    +0.084 A 
ATOM     27 CL   UNL     1      -2.436   6.629   0.596  0.00  0.00    -0.080 Cl
BRANCH  24  28
ATOM     28  C   UNL     1       2.209   8.047   2.310  0.00  0.00    +0.099 C 
ATOM     29  N   UNL     1       2.890   8.876   2.686  0.00  0.00    -0.191 NA
ENDBRANCH  24  28
ENDBRANCH  20  21
ENDBRANCH  19  20
ENDBRANCH   1  19
TORSDOF 7
