REMARK  Name = ZINC00907433
REMARK  13 active torsions:
REMARK  status: ('A' for Active; 'I' for Inactive)
REMARK    1  A    between atoms: C_1  and  C_2
REMARK    2  A    between atoms: C_2  and  C_3
REMARK    3  A    between atoms: C_3  and  C_5
REMARK    4  A    between atoms: C_3  and  N_15
REMARK    5  A    between atoms: N_7  and  C_8
REMARK    6  A    between atoms: C_8  and  C_9
REMARK    7  A    between atoms: N_15  and  C_16
REMARK    8  A    between atoms: C_20  and  C_23
REMARK    9  A    between atoms: C_21  and  C_22
REMARK   10  A    between atoms: C_24  and  C_26
REMARK   11  A    between atoms: C_27  and  N_40
REMARK   12  A    between atoms: C_28  and  C_31
REMARK   13  A    between atoms: N_33  and  C_34
REMARK                            x       y       z     vdW  Elec       q    Type
REMARK                         _______ _______ _______ _____ _____    ______ ____
ROOT
ATOM      1  N   UNL     1       3.422   2.141  -0.146  0.00  0.00    -0.255 N 
ATOM      2  C   UNL     1       3.947   2.312   1.083  0.00  0.00    +0.261 C 
ATOM      3  O   UNL     1       5.028   2.857   1.213  0.00  0.00    -0.269 OA
ENDROOT
BRANCH   1   4
ATOM      4  C   UNL     1       2.181   1.514  -0.296  0.00  0.00    +0.041 A 
ATOM      5  C   UNL     1       1.017   2.271  -0.310  0.00  0.00    +0.024 A 
ATOM      6  C   UNL     1      -0.207   1.649  -0.458  0.00  0.00    +0.002 A 
ATOM      7  C   UNL     1      -0.275   0.274  -0.592  0.00  0.00    +0.004 A 
ATOM      8  C   UNL     1       0.883  -0.482  -0.578  0.00  0.00    -0.046 A 
ATOM      9  C   UNL     1       2.110   0.134  -0.430  0.00  0.00    -0.026 A 
ATOM     10  C   UNL     1       3.371  -0.691  -0.415  0.00  0.00    +0.046 C 
ATOM     11  C   UNL     1       0.805  -1.980  -0.724  0.00  0.00    +0.044 C 
ENDBRANCH   1   4
BRANCH   2  12
ATOM     12  C   UNL     1       3.218   1.841   2.262  0.00  0.00    +0.116 A 
ATOM     13  C   UNL     1       3.574   1.915   3.611  0.00  0.00    +0.076 A 
ATOM     14  C   UNL     1       2.611   1.352   4.448  0.00  0.00    +0.156 A 
ATOM     15  N   UNL     1       1.523   0.835   3.922  0.00  0.00    -0.203 NA
ATOM     16  S   UNL     1       1.637   1.028   2.362  0.00  0.00    +0.019 S 
BRANCH  14  17
ATOM     17  C   UNL     1       2.812   1.337   5.909  0.00  0.00    +0.265 C 
ATOM     18  O   UNL     1       3.821   1.817   6.389  0.00  0.00    -0.268 OA
ATOM     19  N   UNL     1       1.877   0.791   6.712  0.00  0.00    -0.307 N 
ATOM     20  H   UNL     1       1.072   0.409   6.329  0.00  0.00    +0.149 HD
BRANCH  19  21
ATOM     21  C   UNL     1       2.076   0.776   8.163  0.00  0.00    +0.073 C 
ATOM     22  C   UNL     1       2.911  -0.446   8.550  0.00  0.00    +0.022 C 
ATOM     23  C   UNL     1       3.119  -0.462  10.066  0.00  0.00    +0.002 C 
ATOM     24  C   UNL     1       1.760  -0.529  10.767  0.00  0.00    +0.000 C 
ATOM     25  C   UNL     1       0.925   0.693  10.380  0.00  0.00    +0.002 C 
ATOM     26  C   UNL     1       0.717   0.709   8.864  0.00  0.00    +0.022 C 
ENDBRANCH  19  21
ENDBRANCH  14  17
BRANCH  13  27
ATOM     27  N   UNL     1       4.755   2.485   4.067  0.00  0.00    -0.355 N 
ATOM     28  H   UNL     1       5.387   2.862   3.435  0.00  0.00    +0.142 HD
ATOM     29  H   UNL     1       4.947   2.508   5.017  0.00  0.00    +0.142 HD
ENDBRANCH  13  27
ENDBRANCH   2  12
BRANCH   1  30
ATOM     30  C   UNL     1       4.152   2.612  -1.326  0.00  0.00    +0.167 C 
BRANCH  30  31
ATOM     31  C   UNL     1       5.481   1.906  -1.410  0.00  0.00    +0.234 C 
ATOM     32  O   UNL     1       5.788   1.089  -0.567  0.00  0.00    -0.274 OA
ATOM     33  N   UNL     1       6.328   2.181  -2.421  0.00  0.00    -0.310 N 
ATOM     34  H   UNL     1       6.082   2.834  -3.096  0.00  0.00    +0.149 HD
BRANCH  33  35
ATOM     35  C   UNL     1       7.620   1.495  -2.503  0.00  0.00    +0.139 C 
BRANCH  35  36
ATOM     36  C   UNL     1       8.370   1.979  -3.717  0.00  0.00    -0.030 A 
ATOM     37  C   UNL     1       8.217   1.331  -4.928  0.00  0.00    +0.005 A 
ATOM     38  C   UNL     1       8.901   1.779  -6.043  0.00  0.00    +0.000 A 
ATOM     39  C   UNL     1       9.747   2.867  -5.943  0.00  0.00    +0.000 A 
ATOM     40  C   UNL     1       9.905   3.512  -4.731  0.00  0.00    +0.000 A 
ATOM     41  C   UNL     1       9.216   3.068  -3.617  0.00  0.00    +0.005 A 
ENDBRANCH  35  36
ENDBRANCH  33  35
ENDBRANCH  30  31
BRANCH  30  43
ATOM     42  C   UNL     1       3.034   4.842  -1.205  0.00  0.00    +0.006 C 
ATOM     43  C   UNL     1       4.382   4.120  -1.215  0.00  0.00    +0.029 C 
ENDBRANCH  30  43
ENDBRANCH   1  30
TORSDOF 10
