REMARK  Name = ZINC01038487
REMARK  4 active torsions:
REMARK  status: ('A' for Active; 'I' for Inactive)
REMARK    1  A    between atoms: C_3  and  S_11
REMARK    2  A    between atoms: C_6  and  C_7
REMARK    3  A    between atoms: S_11  and  C_14
REMARK    4  A    between atoms: C_19  and  N_20
REMARK                            x       y       z     vdW  Elec       q    Type
REMARK                         _______ _______ _______ _____ _____    ______ ____
ROOT
ATOM      1  C   UNL     1      -3.104   5.081   4.838  0.00  0.00    +0.153 A 
ATOM      2  C   UNL     1      -4.344   5.684   4.765  0.00  0.00    +0.145 A 
ATOM      3  N   UNL     1      -4.422   7.007   4.753  0.00  0.00    -0.221 NA
ATOM      4  C   UNL     1      -3.329   7.754   4.811  0.00  0.00    +0.220 A 
ATOM      5  N   UNL     1      -2.122   7.214   4.882  0.00  0.00    -0.198 NA
ATOM      6  C   UNL     1      -1.970   5.894   4.903  0.00  0.00    +0.147 A 
ATOM      7  N   UNL     1      -3.452   9.132   4.796  0.00  0.00    -0.300 N 
ATOM      8  C   UNL     1      -2.796   9.732   5.965  0.00  0.00    +0.108 C 
ATOM      9  C   UNL     1      -2.825  11.257   5.842  0.00  0.00    +0.019 C 
ATOM     10  C   UNL     1      -4.279  11.729   5.751  0.00  0.00    +0.003 C 
ATOM     11  C   UNL     1      -4.953  11.053   4.554  0.00  0.00    +0.019 C 
ATOM     12  C   UNL     1      -4.862   9.534   4.715  0.00  0.00    +0.108 C 
ENDROOT
BRANCH   1  13
ATOM     13  S   UNL     1      -2.956   3.325   4.856  0.00  0.00    +0.047 S 
ATOM     14  O   UNL     1      -1.977   2.990   3.883  0.00  0.00    -0.163 OA
ATOM     15  O   UNL     1      -4.278   2.806   4.818  0.00  0.00    -0.163 OA
BRANCH  13  18
ATOM     16  C   UNL     1      -2.584   2.377   8.737  0.00  0.00    +0.017 A 
ATOM     17  C   UNL     1      -3.123   2.731   7.510  0.00  0.00    +0.048 A 
ATOM     18  C   UNL     1      -2.284   2.876   6.422  0.00  0.00    +0.182 A 
ATOM     19  N   UNL     1      -0.985   2.681   6.542  0.00  0.00    -0.236 NA
ATOM     20  C   UNL     1      -0.437   2.349   7.694  0.00  0.00    +0.125 A 
ATOM     21  C   UNL     1      -1.215   2.181   8.825  0.00  0.00    +0.073 A 
BRANCH  21  22
ATOM     22  C   UNL     1      -0.581   1.796  10.137  0.00  0.00    +0.419 C 
ATOM     23  F   UNL     1      -0.549   0.401  10.247  0.00  0.00    -0.166 F 
ATOM     24  F   UNL     1      -1.330   2.330  11.191  0.00  0.00    -0.166 F 
ATOM     25  F   UNL     1       0.723   2.298  10.190  0.00  0.00    -0.166 F 
ENDBRANCH  21  22
ENDBRANCH  13  18
ENDBRANCH   1  13
BRANCH   6  26
ATOM     26  N   UNL     1      -0.706   5.332   4.982  0.00  0.00    -0.341 N 
ATOM     27  H   UNL     1      -0.598   4.370   4.921  0.00  0.00    +0.144 HD
ATOM     28  H   UNL     1       0.070   5.901   5.100  0.00  0.00    +0.144 HD
ENDBRANCH   6  26
TORSDOF 4
