REMARK  Name = ZINC52094433
REMARK  5 active torsions:
REMARK  status: ('A' for Active; 'I' for Inactive)
REMARK    1  A    between atoms: C_1  and  C_2
REMARK    2  A    between atoms: C_7  and  C_8
REMARK    3  A    between atoms: C_8  and  C_9
REMARK    4  A    between atoms: C_9  and  C_11
REMARK    5  A    between atoms: C_9  and  N_24
REMARK                            x       y       z     vdW  Elec       q    Type
REMARK                         _______ _______ _______ _____ _____    ______ ____
ROOT
ATOM      1  C   UNL     1      -1.661   0.215   2.866  0.00  0.00    -0.039 C 
ENDROOT
BRANCH   1   2
ATOM      2  C   UNL     1      -2.007   0.810   4.206  0.00  0.00    -0.046 A 
ATOM      3  C   UNL     1      -2.539   2.083   4.277  0.00  0.00    +0.031 A 
ATOM      4  C   UNL     1      -2.858   2.630   5.510  0.00  0.00    +0.067 A 
ATOM      5  C   UNL     1      -2.640   1.893   6.676  0.00  0.00    +0.068 A 
ATOM      6  C   UNL     1      -2.106   0.616   6.596  0.00  0.00    +0.043 A 
ATOM      7  C   UNL     1      -1.796   0.076   5.362  0.00  0.00    +0.022 A 
ATOM      8 BR   UNL     1      -1.075  -1.668   5.251  0.00  0.00    -0.050 Br
ATOM      9  N   UNL     1      -3.050   2.692   7.740  0.00  0.00    -0.306 N 
ATOM     10  H   UNL     1      -3.019   2.448   8.679  0.00  0.00    +0.170 HD
ATOM     11  C   UNL     1      -3.497   3.862   7.245  0.00  0.00    +0.325 A 
ATOM     12  O   UNL     1      -3.928   4.785   7.910  0.00  0.00    -0.247 OA
ATOM     13  N   UNL     1      -3.394   3.855   5.903  0.00  0.00    -0.306 N 
ATOM     14  H   UNL     1      -3.649   4.579   5.310  0.00  0.00    +0.170 HD
ENDBRANCH   1   2
BRANCH   1  15
ATOM     15  N   UNL     1      -2.386   0.933   1.809  0.00  0.00    +0.383 N 
ATOM     16  H   UNL     1      -2.245   0.464   0.927  0.00  0.00    -0.089 HD
ATOM     17  H   UNL     1      -3.371   0.948   2.028  0.00  0.00    -0.089 HD
ATOM     18  H   UNL     1      -2.040   1.879   1.747  0.00  0.00    -0.089 HD
ENDBRANCH   1  15
BRANCH   1  19
ATOM     19  C   UNL     1      -0.155   0.340   2.626  0.00  0.00    +0.024 C 
BRANCH  19  26
ATOM     20  C   UNL     1       0.387  -2.496   2.515  0.00  0.00    +0.044 C 
ATOM     21  C   UNL     1       0.459  -1.665   1.260  0.00  0.00    -0.047 A 
ATOM     22  C   UNL     1       0.780  -2.261   0.054  0.00  0.00    +0.003 A 
ATOM     23  C   UNL     1       0.846  -1.499  -1.097  0.00  0.00    +0.000 A 
ATOM     24  C   UNL     1       0.593  -0.141  -1.043  0.00  0.00    +0.000 A 
ATOM     25  C   UNL     1       0.271   0.455   0.162  0.00  0.00    +0.004 A 
ATOM     26  C   UNL     1       0.201  -0.308   1.313  0.00  0.00    -0.046 A 
ENDBRANCH  19  26
ENDBRANCH   1  19
TORSDOF 4
