REMARK  Name = ZINC33810176
REMARK  10 active torsions:
REMARK  status: ('A' for Active; 'I' for Inactive)
REMARK    1  A    between atoms: C_1  and  C_2
REMARK    2  A    between atoms: C_2  and  C_3
REMARK    3  A    between atoms: C_3  and  S_4
REMARK    4  A    between atoms: S_4  and  C_5
REMARK    5  A    between atoms: C_12  and  C_22
REMARK    6  A    between atoms: C_24  and  O_31
REMARK    7  A    between atoms: C_25  and  O_30
REMARK    8  A    between atoms: C_26  and  O_28
REMARK    9  A    between atoms: O_28  and  C_29
REMARK   10  A    between atoms: O_31  and  C_32
REMARK                            x       y       z     vdW  Elec       q    Type
REMARK                         _______ _______ _______ _____ _____    ______ ____
ROOT
ATOM      1  C   UNL     1       2.808  -5.035  -3.604  0.00  0.00    +0.171 A 
ATOM      2  N   UNL     1       2.522  -5.671  -2.434  0.00  0.00    -0.208 NA
ATOM      3  C   UNL     1       2.439  -4.959  -1.266  0.00  0.00    +0.135 A 
ATOM      4  C   UNL     1       2.640  -3.614  -1.291  0.00  0.00    +0.069 A 
ATOM      5  C   UNL     1       2.938  -2.993  -2.524  0.00  0.00    +0.258 A 
ATOM      6  O   UNL     1       3.130  -1.786  -2.573  0.00  0.00    -0.267 OA
ATOM      7  N   UNL     1       3.009  -3.734  -3.640  0.00  0.00    -0.302 N 
ATOM      8  C   UNL     1       2.548  -2.797  -0.037  0.00  0.00    +0.093 C 
ATOM      9  C   UNL     1       2.645  -3.666   1.191  0.00  0.00    +0.024 C 
ATOM     10  C   UNL     1       2.440  -4.998   1.117  0.00  0.00    +0.017 C 
ATOM     11  N   UNL     1       2.153  -5.594  -0.080  0.00  0.00    -0.302 N 
ATOM     12  C   UNL     1       2.524  -5.867   2.348  0.00  0.00    +0.051 C 
ATOM     13  C   UNL     1       3.530  -5.269   3.334  0.00  0.00    +0.014 C 
ATOM     14  C   UNL     1       3.080  -3.847   3.683  0.00  0.00    +0.080 C 
ATOM     15  C   UNL     1       2.954  -3.047   2.415  0.00  0.00    +0.162 C 
ATOM     16  O   UNL     1       3.123  -1.845   2.450  0.00  0.00    -0.292 OA
ATOM     17  H   UNL     1       1.689  -6.591  -0.088  0.00  0.00    +0.153 HD
ATOM     18  H   UNL     1       3.239  -3.239  -4.595  0.00  0.00    +0.171 HD
ENDROOT
BRANCH   8  19
ATOM     19  C   UNL     1       1.232  -2.064  -0.021  0.00  0.00    -0.028 A 
ATOM     20  C   UNL     1       0.047  -2.776  -0.013  0.00  0.00    +0.054 A 
ATOM     21  C   UNL     1      -1.167  -2.106   0.002  0.00  0.00    +0.165 A 
ATOM     22  C   UNL     1      -1.191  -0.716   0.015  0.00  0.00    +0.201 A 
ATOM     23  C   UNL     1       0.002  -0.004   0.002  0.00  0.00    +0.165 A 
ATOM     24  C   UNL     1       1.212  -0.682  -0.013  0.00  0.00    +0.054 A 
BRANCH  23  25
ATOM     25  O   UNL     1      -0.016   1.356   0.009  0.00  0.00    -0.491 OA
ATOM     26  C   UNL     1       1.248   2.022   0.001  0.00  0.00    +0.277 C 
ENDBRANCH  23  25
BRANCH  22  27
ATOM     27  O   UNL     1      -2.380  -0.055   0.036  0.00  0.00    -0.501 OA
ATOM     28  H   UNL     1      -2.398   1.045   0.047  0.00  0.00    +0.292 HD
ENDBRANCH  22  27
BRANCH  21  29
ATOM     29  O   UNL     1      -2.332  -2.807   0.010  0.00  0.00    -0.491 OA
ATOM     30  C   UNL     1      -2.231  -4.233   0.001  0.00  0.00    +0.277 C 
ENDBRANCH  21  29
ENDBRANCH   8  19
BRANCH   1  31
ATOM     31  S   UNL     1       2.910  -5.968  -5.095  0.00  0.00    -0.088 S 
BRANCH  31  32
ATOM     32  C   UNL     1       3.299  -4.646  -6.268  0.00  0.00    +0.077 C 
BRANCH  32  34
ATOM     33  C   UNL     1       3.767  -4.117  -8.664  0.00  0.00    +0.004 C 
ATOM     34  C   UNL     1       3.439  -5.235  -7.673  0.00  0.00    +0.008 C 
ENDBRANCH  32  34
ENDBRANCH  31  32
ENDBRANCH   1  31
TORSDOF 7
