REMARK  Name = ZINC44784530
REMARK  6 active torsions:
REMARK  status: ('A' for Active; 'I' for Inactive)
REMARK    1  A    between atoms: C_1  and  C_2
REMARK    2  A    between atoms: C_5  and  C_8
REMARK    3  A    between atoms: C_8  and  N_9
REMARK    4  A    between atoms: C_10  and  C_12
REMARK    5  A    between atoms: C_12  and  C_18
REMARK    6  A    between atoms: N_19  and  O_20
REMARK                            x       y       z     vdW  Elec       q    Type
REMARK                         _______ _______ _______ _____ _____    ______ ____
ROOT
ATOM      1  C   UNL     1       3.163  -6.456   0.006  0.00  0.00    +0.105 C 
ATOM      2  C   UNL     1       3.889  -5.846  -1.195  0.00  0.00    +0.024 C 
ATOM      3  C   UNL     1       3.259  -6.366  -2.489  0.00  0.00    +0.001 C 
ATOM      4  C   UNL     1       3.381  -7.890  -2.540  0.00  0.00    +0.000 C 
ATOM      5  C   UNL     1       2.655  -8.500  -1.339  0.00  0.00    +0.001 C 
ATOM      6  C   UNL     1       3.285  -7.981  -0.045  0.00  0.00    +0.024 C 
ENDROOT
BRANCH   1   7
ATOM      7  C   UNL     1       3.783  -5.945   1.280  0.00  0.00    +0.147 C 
ATOM      8  N   UNL     1       4.392  -6.761   2.075  0.00  0.00    -0.076 NA
ATOM      9  N   UNL     1       3.700  -4.607   1.598  0.00  0.00    -0.343 N 
ATOM     10  H   UNL     1       3.309  -3.983   0.968  0.00  0.00    +0.144 HD
ATOM     11  H   UNL     1       4.033  -4.290   2.453  0.00  0.00    +0.144 HD
BRANCH   8  12
ATOM     12  O   UNL     1       4.975  -6.281   3.273  0.00  0.00    -0.408 OA
ATOM     13  H   UNL     1       5.408  -6.965   3.801  0.00  0.00    +0.328 HD
ENDBRANCH   8  12
ENDBRANCH   1   7
BRANCH   1  15
ATOM     14  N   UNL     1       0.840  -6.607   0.843  0.00  0.00    -0.310 N 
ATOM     15  C   UNL     1       1.708  -6.067  -0.036  0.00  0.00    +0.227 C 
ATOM     16  O   UNL     1       1.317  -5.268  -0.861  0.00  0.00    -0.275 OA
ATOM     17  H   UNL     1       1.137  -7.299   1.454  0.00  0.00    +0.149 HD
BRANCH  14  18
ATOM     18  C   UNL     1      -0.551  -6.148   0.874  0.00  0.00    +0.139 C 
BRANCH  18  23
ATOM     19  C   UNL     1      -3.446  -9.046   4.950  0.00  0.00    +0.044 C 
ATOM     20  C   UNL     1      -2.691  -8.291   3.887  0.00  0.00    -0.050 A 
ATOM     21  C   UNL     1      -2.049  -7.108   4.204  0.00  0.00    +0.003 A 
ATOM     22  C   UNL     1      -1.357  -6.415   3.229  0.00  0.00    +0.005 A 
ATOM     23  C   UNL     1      -1.305  -6.904   1.938  0.00  0.00    -0.030 A 
ATOM     24  C   UNL     1      -1.946  -8.088   1.621  0.00  0.00    +0.005 A 
ATOM     25  C   UNL     1      -2.635  -8.783   2.597  0.00  0.00    +0.003 A 
ENDBRANCH  18  23
ENDBRANCH  14  18
ENDBRANCH   1  15
TORSDOF 5
