REMARK  Name = ZINC44645911
REMARK  8 active torsions:
REMARK  status: ('A' for Active; 'I' for Inactive)
REMARK    1  A    between atoms: C_1  and  C_2
REMARK    2  A    between atoms: C_5  and  N_9
REMARK    3  A    between atoms: C_6  and  C_8
REMARK    4  A    between atoms: C_10  and  S_15
REMARK    5  A    between atoms: S_15  and  C_16
REMARK    6  A    between atoms: C_16  and  C_18
REMARK    7  A    between atoms: C_16  and  C_19
REMARK    8  A    between atoms: C_19  and  C_21
REMARK                            x       y       z     vdW  Elec       q    Type
REMARK                         _______ _______ _______ _____ _____    ______ ____
ROOT
ATOM      1  S   UNL     1      -0.720  -4.941  -2.450  0.00  0.00    -0.105 S 
ENDROOT
BRANCH   1   3
ATOM      2  N   UNL     1      -2.398  -5.243  -0.339  0.00  0.00    -0.173 N 
ATOM      3  C   UNL     1      -0.964  -5.279  -0.685  0.00  0.00    +0.260 C 
ATOM      4  N   UNL     1      -0.399  -4.196   0.141  0.00  0.00    -0.218 N 
ATOM      5  N   UNL     1      -1.476  -3.654   0.852  0.00  0.00    -0.063 NA
ATOM      6  N   UNL     1      -2.541  -4.208   0.592  0.00  0.00    -0.056 NA
ATOM      7  H   UNL     1       0.529  -3.916   0.183  0.00  0.00    +0.173 HD
BRANCH   2  12
ATOM      8  C   UNL     1      -6.491  -8.593  -2.382  0.00  0.00    +0.044 C 
ATOM      9  C   UNL     1      -5.403  -7.703  -1.839  0.00  0.00    -0.050 A 
ATOM     10  C   UNL     1      -4.618  -6.965  -2.707  0.00  0.00    +0.005 A 
ATOM     11  C   UNL     1      -3.620  -6.148  -2.213  0.00  0.00    +0.025 A 
ATOM     12  C   UNL     1      -3.405  -6.067  -0.842  0.00  0.00    +0.059 A 
ATOM     13  C   UNL     1      -4.196  -6.810   0.027  0.00  0.00    -0.027 A 
ATOM     14  C   UNL     1      -5.195  -7.621  -0.474  0.00  0.00    +0.008 A 
ATOM     15  C   UNL     1      -3.966  -6.727   1.514  0.00  0.00    +0.046 C 
ENDBRANCH   2  12
ENDBRANCH   1   3
BRANCH   1  16
ATOM     16  C   UNL     1       0.961  -5.536  -2.783  0.00  0.00    +0.117 C 
ATOM     17  C   UNL     1       1.969  -4.654  -2.044  0.00  0.00    +0.027 C 
BRANCH  16  18
ATOM     18  C   UNL     1       1.231  -5.475  -4.264  0.00  0.00    +0.174 C 
ATOM     19  O   UNL     1       0.619  -4.691  -4.962  0.00  0.00    -0.291 OA
BRANCH  18  20
ATOM     20  C   UNL     1       2.196  -6.328  -4.841  0.00  0.00    +0.024 C 
ATOM     21  C   UNL     1       2.565  -6.394  -6.173  0.00  0.00    +0.006 A 
ATOM     22  C   UNL     1       2.141  -5.691  -7.325  0.00  0.00    +0.010 A 
ATOM     23  C   UNL     1       2.686  -5.967  -8.531  0.00  0.00    +0.001 A 
ATOM     24  C   UNL     1       3.680  -6.944  -8.703  0.00  0.00    +0.002 A 
ATOM     25  C   UNL     1       4.153  -7.672  -7.668  0.00  0.00    +0.026 A 
ATOM     26  C   UNL     1       3.613  -7.434  -6.319  0.00  0.00    +0.043 A 
ATOM     27  N   UNL     1       3.881  -7.978  -5.167  0.00  0.00    -0.380 N 
ATOM     28  C   UNL     1       3.047  -7.358  -4.132  0.00  0.00    +0.152 C 
ATOM     29  H   UNL     1       4.532  -8.681  -5.016  0.00  0.00    +0.160 HD
ENDBRANCH  18  20
ENDBRANCH  16  18
ENDBRANCH   1  16
TORSDOF 5
