REMARK  Name = ZINC36034646
REMARK  9 active torsions:
REMARK  status: ('A' for Active; 'I' for Inactive)
REMARK    1  A    between atoms: C_1  and  C_2
REMARK    2  A    between atoms: C_12  and  N_17
REMARK    3  A    between atoms: N_17  and  C_18
REMARK    4  A    between atoms: C_18  and  C_20
REMARK    5  A    between atoms: C_18  and  C_22
REMARK    6  A    between atoms: C_20  and  O_21
REMARK    7  A    between atoms: C_22  and  C_24
REMARK    8  A    between atoms: C_22  and  O_33
REMARK    9  A    between atoms: C_27  and  N_30
REMARK                            x       y       z     vdW  Elec       q    Type
REMARK                         _______ _______ _______ _____ _____    ______ ____
ROOT
ATOM      1  N   UNK A   1      -0.849  -6.560   1.706  0.00  0.00    -0.301 NA
ATOM      2  H   UNK A   1      -1.795  -6.386   2.011  0.00  0.00    +0.123 HD
ENDROOT
BRANCH   1  14
ATOM      3  C   UNK A   0      -0.018   1.503   0.010  0.00  0.00    +0.044 C 
ATOM      4  C   UNK A   0       0.002  -0.004   0.002  0.00  0.00    -0.050 A 
ATOM      5  C   UNK A   0       0.006  -0.686  -1.207  0.00  0.00    +0.005 A 
ATOM      6  C   UNK A   0       0.024  -2.063  -1.236  0.00  0.00    +0.026 A 
ATOM      7  C   UNK A   0       0.039  -2.780  -0.045  0.00  0.00    +0.047 A 
ATOM      8  C   UNK A   0       0.036  -2.084   1.179  0.00  0.00    +0.003 A 
ATOM      9  C   UNK A   0       0.023  -0.688   1.184  0.00  0.00    +0.013 A 
ATOM     10  C   UNK A   0       0.056  -3.108   2.219  0.00  0.00    -0.018 A 
ATOM     11  C   UNK A   0       0.069  -4.306   1.604  0.00  0.00    +0.037 A 
ATOM     12  N   UNK A   0       0.059  -4.126   0.250  0.00  0.00    -0.356 N 
ATOM     13  H   UNK A   0       0.064  -4.840  -0.407  0.00  0.00    +0.166 HD
ATOM     14  C   UNK A   0       0.090  -5.626   2.341  0.00  0.00    +0.101 C 
ATOM     15  C   UNK A   0      -0.327  -5.379   3.795  0.00  0.00    +0.025 C 
ATOM     16  C   UNK A   0       0.496  -4.225   4.374  0.00  0.00    +0.007 C 
ATOM     17  C   UNK A   0       0.064  -2.911   3.713  0.00  0.00    +0.037 C 
ENDBRANCH   1  14
BRANCH   1  18
ATOM     18  C   UNK A   1      -0.461  -7.953   1.964  0.00  0.00    +0.113 C 
BRANCH  18  19
ATOM     19  C   UNK A   1       0.576  -8.394   0.929  0.00  0.00    +0.177 C 
BRANCH  19  20
ATOM     20  O   UNK A   1      -0.021  -8.402  -0.370  0.00  0.00    -0.393 OA
ATOM     21  H   UNK A   1       0.580  -8.673  -1.077  0.00  0.00    +0.209 HD
ENDBRANCH  19  20
ENDBRANCH  18  19
BRANCH  18  22
ATOM     22  C   UNK A   1      -1.694  -8.853   1.866  0.00  0.00    +0.164 C 
BRANCH  22  23
ATOM     23  C   UNK A   1      -2.763  -8.344   2.799  0.00  0.00    -0.017 A 
ATOM     24  C   UNK A   1      -3.627  -7.348   2.383  0.00  0.00    +0.008 A 
ATOM     25  C   UNK A   1      -4.607  -6.882   3.239  0.00  0.00    +0.033 A 
ATOM     26  C   UNK A   1      -4.723  -7.411   4.510  0.00  0.00    +0.126 A 
ATOM     27  C   UNK A   1      -3.860  -8.408   4.926  0.00  0.00    +0.033 A 
ATOM     28  C   UNK A   1      -2.883  -8.877   4.068  0.00  0.00    +0.008 A 
BRANCH  26  29
ATOM     29  N   UNK A   1      -5.772  -6.911   5.427  0.00  0.00    +0.056 N 
ATOM     30  O   UNK A   1      -6.527  -6.039   5.064  0.00  0.00    -0.126 OA
ATOM     31  O   UNK A   1      -5.874  -7.374   6.539  0.00  0.00    -0.126 OA
ENDBRANCH  26  29
ENDBRANCH  22  23
BRANCH  22  32
ATOM     32  O   UNK A   1      -2.188  -8.840   0.525  0.00  0.00    -0.386 OA
ATOM     33  H   UNK A   1      -2.448  -7.964   0.209  0.00  0.00    +0.210 HD
ENDBRANCH  22  32
ENDBRANCH  18  22
ENDBRANCH   1  18
TORSDOF 8
