REMARK  Name = ZINC20997634
REMARK  10 active torsions:
REMARK  status: ('A' for Active; 'I' for Inactive)
REMARK    1  A    between atoms: C_1  and  C_2
REMARK    2  A    between atoms: C_2  and  O_3
REMARK    3  A    between atoms: O_3  and  C_4
REMARK    4  A    between atoms: C_7  and  C_10
REMARK    5  A    between atoms: C_10  and  N_11
REMARK    6  A    between atoms: C_13  and  N_29
REMARK    7  A    between atoms: C_16  and  C_18
REMARK    8  A    between atoms: N_20  and  C_21
REMARK    9  A    between atoms: C_21  and  C_22
REMARK   10  A    between atoms: C_22  and  C_23
REMARK                            x       y       z     vdW  Elec       q    Type
REMARK                         _______ _______ _______ _____ _____    ______ ____
ROOT
ATOM      1  N   UNL     1       0.334  -0.012  -0.145  0.00  0.00    +0.391 N 
ATOM      2  C   UNL     1       1.807  -0.127  -0.095  0.00  0.00    -0.050 C 
ATOM      3  C   UNL     1       2.276   1.131   0.678  0.00  0.00    +0.093 C 
ATOM      4  C   UNL     1       1.281   2.204   0.164  0.00  0.00    +0.019 C 
ATOM      5  C   UNL     1      -0.031   1.410  -0.005  0.00  0.00    +0.022 C 
ATOM      6  H   UNL     1      -0.114  -0.591   0.676  0.00  0.00    -0.080 HD
ENDROOT
BRANCH   3   7
ATOM      7  N   UNL     1       3.654   1.481   0.326  0.00  0.00    -0.231 N 
ATOM      8  C   UNL     1       4.238   1.317  -0.876  0.00  0.00    +0.245 A 
ATOM      9  N   UNL     1       5.467   1.756  -0.760  0.00  0.00    -0.117 NA
ATOM     10  N   UNL     1       5.630   2.169   0.449  0.00  0.00    -0.023 NA
ATOM     11  N   UNL     1       4.535   2.009   1.107  0.00  0.00    -0.044 NA
ENDBRANCH   3   7
BRANCH   5  12
ATOM     12  C   UNL     1      -0.758   1.876  -1.240  0.00  0.00    +0.200 C 
ATOM     13  O   UNL     1      -0.287   1.665  -2.337  0.00  0.00    -0.278 OA
ATOM     14  N   UNL     1      -1.932   2.529  -1.124  0.00  0.00    -0.316 N 
ATOM     15  H   UNL     1      -2.359   2.721  -0.129  0.00  0.00    +0.149 HD
BRANCH  14  16
ATOM     16  C   UNL     1      -2.639   2.983  -2.325  0.00  0.00    +0.109 C 
BRANCH  16  17
ATOM     17  C   UNL     1      -3.933   3.689  -1.918  0.00  0.00    +0.054 C 
BRANCH  17  18
ATOM     18  C   UNL     1      -4.660   4.156  -3.152  0.00  0.00    -0.046 A 
ATOM     19  C   UNL     1      -4.413   5.415  -3.666  0.00  0.00    +0.004 A 
ATOM     20  C   UNL     1      -5.076   5.842  -4.801  0.00  0.00    +0.000 A 
ATOM     21  C   UNL     1      -5.995   5.012  -5.417  0.00  0.00    +0.000 A 
ATOM     22  C   UNL     1      -6.246   3.755  -4.901  0.00  0.00    +0.000 A 
ATOM     23  C   UNL     1      -5.579   3.327  -3.768  0.00  0.00    +0.004 A 
ENDBRANCH  17  18
ENDBRANCH  16  17
ENDBRANCH  14  16
ENDBRANCH   5  12
BRANCH   1  24
ATOM     24  C   UNL     1      -0.195  -0.571  -1.396  0.00  0.00    -0.042 C 
BRANCH  24  28
ATOM     25  C   UNL     1      -0.058  -4.838  -1.221  0.00  0.00    +0.121 A 
ATOM     26  C   UNL     1      -1.183  -4.160  -0.776  0.00  0.00    +0.046 A 
ATOM     27  C   UNL     1      -1.225  -2.781  -0.833  0.00  0.00    +0.005 A 
ATOM     28  C   UNL     1      -0.147  -2.075  -1.334  0.00  0.00    -0.064 A 
ATOM     29  C   UNL     1       0.974  -2.749  -1.784  0.00  0.00    +0.005 A 
ATOM     30  C   UNL     1       1.023  -4.128  -1.724  0.00  0.00    +0.046 A 
BRANCH  25  31
ATOM     31  O   UNL     1      -0.014  -6.195  -1.165  0.00  0.00    -0.492 OA
BRANCH  31  33
ATOM     32  C   UNL     1       1.041  -8.344  -1.499  0.00  0.00    +0.048 C 
ATOM     33  C   UNL     1       1.176  -6.826  -1.641  0.00  0.00    +0.225 C 
ENDBRANCH  31  33
ENDBRANCH  25  31
ENDBRANCH  24  28
ENDBRANCH   1  24
TORSDOF 9
