REMARK  Name = ZINC39356209
REMARK  7 active torsions:
REMARK  status: ('A' for Active; 'I' for Inactive)
REMARK    1  A    between atoms: C_1  and  C_2
REMARK    2  A    between atoms: C_2  and  N_3
REMARK    3  A    between atoms: C_4  and  C_24
REMARK    4  A    between atoms: C_8  and  S_10
REMARK    5  A    between atoms: S_10  and  C_11
REMARK    6  A    between atoms: C_11  and  C_12
REMARK    7  A    between atoms: C_29  and  C_30
REMARK                            x       y       z     vdW  Elec       q    Type
REMARK                         _______ _______ _______ _____ _____    ______ ____
ROOT
ATOM      1  N   UNL     1       0.890  -0.350   1.196  0.00  0.00    +0.410 N 
ATOM      2  C   UNL     1       1.052  -1.800   0.943  0.00  0.00    +0.050 C 
ATOM      3  N   UNL     1       0.919  -2.422   2.286  0.00  0.00    -0.267 NA
ATOM      4  N   UNL     1      -0.128  -1.611   2.926  0.00  0.00    -0.262 NA
ATOM      5  C   UNL     1       0.138  -0.231   2.463  0.00  0.00    +0.077 C 
ATOM      6  H   UNL     1       1.786  -2.363   2.799  0.00  0.00    +0.139 HD
ATOM      7  H   UNL     1      -0.069  -1.673   3.932  0.00  0.00    +0.140 HD
ATOM      8  H   UNL     1       1.794   0.090   1.287  0.00  0.00    -0.075 HD
ENDROOT
BRANCH   2   9
ATOM      9  C   UNL     1       2.411  -2.085   0.358  0.00  0.00    -0.043 A 
ATOM     10  C   UNL     1       3.470  -1.236   0.624  0.00  0.00    +0.003 A 
ATOM     11  C   UNL     1       4.716  -1.497   0.088  0.00  0.00    +0.000 A 
ATOM     12  C   UNL     1       4.905  -2.607  -0.715  0.00  0.00    +0.000 A 
ATOM     13  C   UNL     1       3.847  -3.456  -0.980  0.00  0.00    +0.003 A 
ATOM     14  C   UNL     1       2.601  -3.197  -0.440  0.00  0.00    -0.048 A 
ATOM     15  C   UNL     1       1.448  -4.126  -0.725  0.00  0.00    +0.044 C 
ENDBRANCH   2   9
BRANCH   1  17
ATOM     16  C   UNL     1       0.209   1.795   0.231  0.00  0.00    -0.017 C 
ATOM     17  C   UNL     1       0.134   0.273   0.101  0.00  0.00    -0.076 C 
ENDBRANCH   1  17
BRANCH   5  18
ATOM     18  S   UNL     1      -1.426   0.642   2.178  0.00  0.00    -0.152 S 
BRANCH  18  19
ATOM     19  C   UNL     1      -2.010   1.053   3.846  0.00  0.00    +0.143 C 
BRANCH  19  20
ATOM     20  C   UNL     1      -3.377   1.681   3.759  0.00  0.00    +0.120 A 
ATOM     21  N   UNL     1      -3.984   2.065   4.912  0.00  0.00    -0.310 N 
ATOM     22  H   UNL     1      -3.534   1.931   5.760  0.00  0.00    +0.170 HD
ATOM     23  C   UNL     1      -5.212   2.634   4.888  0.00  0.00    +0.259 A 
ATOM     24  O   UNL     1      -5.767   2.984   5.913  0.00  0.00    -0.267 OA
ATOM     25  C   UNL     1      -5.849   2.814   3.575  0.00  0.00    +0.065 A 
ATOM     26  C   UNL     1      -7.111   3.389   3.440  0.00  0.00    +0.015 A 
ATOM     27  C   UNL     1      -7.661   3.533   2.186  0.00  0.00    +0.001 A 
ATOM     28  C   UNL     1      -6.969   3.111   1.058  0.00  0.00    +0.002 A 
ATOM     29  C   UNL     1      -5.721   2.540   1.169  0.00  0.00    +0.028 A 
ATOM     30  C   UNL     1      -5.142   2.383   2.430  0.00  0.00    +0.078 A 
ATOM     31  N   UNL     1      -3.913   1.831   2.586  0.00  0.00    -0.233 NA
ENDBRANCH  19  20
ENDBRANCH  18  19
ENDBRANCH   5  18
TORSDOF 5
