REMARK  Name = ZINC61592639
REMARK  6 active torsions:
REMARK  status: ('A' for Active; 'I' for Inactive)
REMARK    1  A    between atoms: C_1  and  N_2
REMARK    2  A    between atoms: C_8  and  S_9
REMARK    3  A    between atoms: S_9  and  C_10
REMARK    4  A    between atoms: C_10  and  C_12
REMARK    5  A    between atoms: C_10  and  C_14
REMARK    6  A    between atoms: C_12  and  N_13
REMARK                            x       y       z     vdW  Elec       q    Type
REMARK                         _______ _______ _______ _____ _____    ______ ____
ROOT
ATOM      1  C   UNL     1      -0.090  -1.794   3.745  0.00  0.00    +0.068 C 
ENDROOT
BRANCH   1   2
ATOM      2  C   UNL     1      -0.410  -1.562   5.199  0.00  0.00    -0.022 A 
ATOM      3  C   UNL     1      -0.033  -0.380   5.810  0.00  0.00    +0.006 A 
ATOM      4  C   UNL     1      -0.327  -0.167   7.144  0.00  0.00    +0.000 A 
ATOM      5  C   UNL     1      -0.999  -1.135   7.868  0.00  0.00    +0.001 A 
ATOM      6  C   UNL     1      -1.376  -2.316   7.258  0.00  0.00    +0.015 A 
ATOM      7  C   UNL     1      -1.087  -2.528   5.921  0.00  0.00    +0.022 A 
ATOM      8 BR   UNL     1      -1.609  -4.141   5.085  0.00  0.00    -0.050 Br
ENDBRANCH   1   2
BRANCH   1   9
ATOM      9  S   UNL     1       0.094  -0.197   2.904  0.00  0.00    -0.080 S 
BRANCH   9  17
ATOM     10  C   UNL     1       0.260   1.725   0.263  0.00  0.00    +0.156 C 
ATOM     11  N   UNL     1       0.281   0.265   0.151  0.00  0.00    -0.274 N 
ATOM     12  C   UNL     1       0.373  -0.437  -0.996  0.00  0.00    +0.345 A 
ATOM     13  O   UNL     1       0.454   0.027  -2.119  0.00  0.00    -0.245 OA
ATOM     14  N   UNL     1       0.361  -1.747  -0.674  0.00  0.00    -0.226 N 
ATOM     15  H   UNL     1       0.414  -2.491  -1.294  0.00  0.00    +0.194 HD
ATOM     16  N   UNL     1       0.257  -1.835   0.721  0.00  0.00    -0.145 NA
ATOM     17  C   UNL     1       0.216  -0.625   1.199  0.00  0.00    +0.192 A 
ENDBRANCH   9  17
ENDBRANCH   1   9
BRANCH   1  18
ATOM     18  C   UNL     1       1.215  -2.584   3.631  0.00  0.00    -0.067 C 
BRANCH  18  19
ATOM     19  N   UNL     1       2.326  -1.771   4.142  0.00  0.00    +0.379 N 
ATOM     20  H   UNL     1       2.121  -1.476   5.085  0.00  0.00    -0.090 HD
ATOM     21  H   UNL     1       3.174  -2.319   4.138  0.00  0.00    -0.090 HD
ATOM     22  H   UNL     1       2.448  -0.959   3.555  0.00  0.00    -0.090 HD
ENDBRANCH  18  19
ENDBRANCH   1  18
TORSDOF 5
