REMARK  Name = ZINC42620211
REMARK  8 active torsions:
REMARK  status: ('A' for Active; 'I' for Inactive)
REMARK    1  A    between atoms: C_1  and  C_2
REMARK    2  A    between atoms: C_2  and  C_3
REMARK    3  A    between atoms: C_3  and  C_5
REMARK    4  A    between atoms: C_3  and  C_6
REMARK    5  A    between atoms: C_11  and  N_12
REMARK    6  A    between atoms: C_14  and  C_19
REMARK    7  A    between atoms: N_21  and  C_22
REMARK    8  A    between atoms: C_26  and  N_28
REMARK                            x       y       z     vdW  Elec       q    Type
REMARK                         _______ _______ _______ _____ _____    ______ ____
ROOT
ATOM      1  C   UNL     1      -5.001  -2.218   4.393  0.00  0.00    +0.222 C 
ATOM      2  O   UNL     1      -5.130  -3.303   3.867  0.00  0.00    -0.275 OA
ATOM      3  N   UNL     1      -5.358  -2.047   5.682  0.00  0.00    -0.285 N 
ATOM      4  H   UNL     1      -5.193  -1.199   6.122  0.00  0.00    +0.155 HD
ENDROOT
BRANCH   1   7
ATOM      5  N   UNL     1      -2.693  -1.884   2.188  0.00  0.00    -0.270 N 
ATOM      6  C   UNL     1      -4.106  -1.486   2.160  0.00  0.00    +0.127 C 
ATOM      7  C   UNL     1      -4.443  -1.060   3.606  0.00  0.00    +0.102 C 
ATOM      8  C   UNL     1      -3.054  -0.643   4.144  0.00  0.00    +0.110 C 
ATOM      9  C   UNL     1      -2.078  -1.424   3.292  0.00  0.00    +0.221 C 
ATOM     10  O   UNL     1      -0.910  -1.607   3.563  0.00  0.00    -0.275 OA
BRANCH   5  16
ATOM     11  C   UNL     1      -1.458  -2.024   0.118  0.00  0.00    -0.023 A 
ATOM     12  C   UNL     1      -0.837  -2.781  -0.856  0.00  0.00    +0.006 A 
ATOM     13  C   UNL     1      -0.828  -4.161  -0.760  0.00  0.00    +0.000 A 
ATOM     14  C   UNL     1      -1.439  -4.786   0.311  0.00  0.00    +0.002 A 
ATOM     15  C   UNL     1      -2.061  -4.035   1.288  0.00  0.00    +0.024 A 
ATOM     16  C   UNL     1      -2.068  -2.649   1.197  0.00  0.00    +0.040 A 
BRANCH  11  17
ATOM     17  C   UNL     1      -1.468  -0.521   0.012  0.00  0.00    +0.017 C 
ATOM     18  C   UNL     1      -2.176  -0.104  -1.279  0.00  0.00    +0.012 C 
BRANCH  17  20
ATOM     19  C   UNL     1      -0.038   1.528   0.014  0.00  0.00    +0.004 C 
ATOM     20  C   UNL     1      -0.029  -0.001  -0.005  0.00  0.00    +0.004 C 
ENDBRANCH  17  20
ENDBRANCH  11  17
ENDBRANCH   5  16
ENDBRANCH   1   7
BRANCH   3  21
ATOM     21  C   UNL     1      -5.965  -3.094   6.384  0.00  0.00    +0.035 A 
ATOM     22  C   UNL     1      -6.947  -2.820   7.328  0.00  0.00    +0.023 A 
ATOM     23  C   UNL     1      -7.547  -3.853   8.022  0.00  0.00    +0.004 A 
ATOM     24  C   UNL     1      -7.174  -5.161   7.780  0.00  0.00    +0.023 A 
ATOM     25  C   UNL     1      -6.193  -5.441   6.837  0.00  0.00    +0.037 A 
ATOM     26  C   UNL     1      -5.592  -4.406   6.135  0.00  0.00    +0.046 A 
BRANCH  25  27
ATOM     27  N   UNL     1      -5.814  -6.766   6.593  0.00  0.00    -0.270 N 
ATOM     28  C   UNL     1      -6.733  -7.751   6.651  0.00  0.00    +0.301 C 
ATOM     29  O   UNL     1      -7.871  -7.501   6.998  0.00  0.00    -0.253 OA
ATOM     30  N   UNL     1      -6.390  -9.013   6.325  0.00  0.00    -0.313 N 
ATOM     31  H   UNL     1      -4.891  -6.976   6.381  0.00  0.00    +0.156 HD
ATOM     32  H   UNL     1      -5.481  -9.212   6.048  0.00  0.00    +0.146 HD
ATOM     33  H   UNL     1      -7.051  -9.721   6.367  0.00  0.00    +0.146 HD
ENDBRANCH  25  27
ENDBRANCH   3  21
TORSDOF 6
