REMARK  Name = ZINC39327003
REMARK  9 active torsions:
REMARK  status: ('A' for Active; 'I' for Inactive)
REMARK    1  A    between atoms: C_1  and  C_2
REMARK    2  A    between atoms: C_2  and  O_3
REMARK    3  A    between atoms: O_3  and  C_4
REMARK    4  A    between atoms: C_4  and  C_6
REMARK    5  A    between atoms: C_7  and  C_32
REMARK    6  A    between atoms: C_11  and  N_23
REMARK    7  A    between atoms: C_12  and  C_14
REMARK    8  A    between atoms: C_19  and  C_22
REMARK    9  A    between atoms: C_24  and  C_26
REMARK                            x       y       z     vdW  Elec       q    Type
REMARK                         _______ _______ _______ _____ _____    ______ ____
ROOT
ATOM      1  C   UNL     1      -2.800  -2.429   0.223  0.00  0.00    +0.065 C 
ATOM      2  C   UNL     1      -2.901  -3.728  -0.088  0.00  0.00    +0.016 C 
ATOM      3  N   UNL     1      -4.119  -4.324  -0.318  0.00  0.00    -0.312 N 
ATOM      4  C   UNL     1      -5.201  -3.495  -0.479  0.00  0.00    +0.076 A 
ATOM      5  C   UNL     1      -5.221  -2.147  -0.187  0.00  0.00    +0.014 A 
ATOM      6  C   UNL     1      -6.408  -1.477  -0.426  0.00  0.00    +0.050 A 
ATOM      7  C   UNL     1      -7.497  -2.186  -0.934  0.00  0.00    +0.097 A 
ATOM      8  S   UNL     1      -6.830  -3.837  -1.077  0.00  0.00    -0.067 S 
ATOM      9  C   UNL     1      -3.964  -1.496   0.379  0.00  0.00    +0.093 C 
ATOM     10  C   UNL     1      -1.647  -4.559  -0.190  0.00  0.00    +0.061 C 
ATOM     11  H   UNL     1      -4.209  -5.289  -0.363  0.00  0.00    +0.152 HD
ENDROOT
BRANCH   7  12
ATOM     12  C   UNL     1      -8.789  -1.720  -1.252  0.00  0.00    +0.258 C 
ATOM     13  O   UNL     1      -9.071  -0.545  -1.088  0.00  0.00    -0.269 OA
ATOM     14  N   UNL     1      -9.713  -2.572  -1.738  0.00  0.00    -0.263 N 
ATOM     15  C   UNL     1     -10.990  -2.112  -2.052  0.00  0.00    +0.168 A 
ATOM     16  C   UNL     1     -11.451  -0.783  -1.918  0.00  0.00    +0.091 A 
ATOM     17  C   UNL     1     -12.733  -0.743  -2.323  0.00  0.00    +0.136 A 
ATOM     18  O   UNL     1     -13.091  -1.980  -2.702  0.00  0.00    -0.358 OA
ATOM     19  N   UNL     1     -11.973  -2.832  -2.529  0.00  0.00    -0.063 NA
ATOM     20  C   UNL     1     -13.615   0.479  -2.347  0.00  0.00    +0.089 C 
ATOM     21  H   UNL     1      -9.489  -3.507  -1.869  0.00  0.00    +0.157 HD
ENDBRANCH   7  12
BRANCH   9  22
ATOM     22  C   UNL     1      -4.168  -1.189   1.841  0.00  0.00    -0.017 A 
ATOM     23  C   UNL     1      -4.093   0.117   2.301  0.00  0.00    +0.007 A 
ATOM     24  C   UNL     1      -4.287   0.352   3.653  0.00  0.00    +0.020 A 
ATOM     25  C   UNL     1      -4.546  -0.716   4.492  0.00  0.00    +0.111 A 
ATOM     26  N   UNL     1      -4.610  -1.945   4.019  0.00  0.00    -0.263 NA
ATOM     27  C   UNL     1      -4.437  -2.205   2.738  0.00  0.00    +0.115 A 
ENDBRANCH   9  22
BRANCH   6  28
ATOM     28  N   UNL     1      -6.514  -0.114  -0.163  0.00  0.00    -0.357 N 
ATOM     29  H   UNL     1      -5.752   0.372   0.190  0.00  0.00    +0.142 HD
ATOM     30  H   UNL     1      -7.348   0.349  -0.333  0.00  0.00    +0.142 HD
ENDBRANCH   6  28
BRANCH   1  31
ATOM     31  C   UNL     1      -1.505  -1.901   0.422  0.00  0.00    +0.338 C 
ATOM     32  O   UNL     1      -0.996  -1.197  -0.430  0.00  0.00    -0.245 OA
BRANCH  31  33
ATOM     33  O   UNL     1      -0.831  -2.178   1.559  0.00  0.00    -0.462 OA
BRANCH  33  35
ATOM     34  C   UNL     1       1.076  -2.032   3.036  0.00  0.00    +0.048 C 
ATOM     35  C   UNL     1       0.474  -1.611   1.694  0.00  0.00    +0.229 C 
ENDBRANCH  33  35
ENDBRANCH  31  33
ENDBRANCH   1  31
TORSDOF 6
