REMARK  Name = ZINC16808232
REMARK  10 active torsions:
REMARK  status: ('A' for Active; 'I' for Inactive)
REMARK    1  A    between atoms: C_1  and  C_2
REMARK    2  A    between atoms: C_5  and  C_9
REMARK    3  A    between atoms: C_6  and  O_8
REMARK    4  A    between atoms: C_9  and  O_11
REMARK    5  A    between atoms: O_11  and  C_12
REMARK    6  A    between atoms: C_12  and  C_13
REMARK    7  A    between atoms: N_15  and  C_16
REMARK    8  A    between atoms: N_15  and  C_21
REMARK    9  A    between atoms: C_16  and  C_17
REMARK   10  A    between atoms: C_17  and  C_18
REMARK                            x       y       z     vdW  Elec       q    Type
REMARK                         _______ _______ _______ _____ _____    ______ ____
ROOT
ATOM      1  C   UNL     1      -1.644   0.805   1.809  0.00  0.00    +0.258 C 
ATOM      2  O   UNL     1      -2.236   1.229   2.779  0.00  0.00    -0.272 OA
ATOM      3  N   UNL     1      -0.698   1.558   1.213  0.00  0.00    -0.268 N 
ENDROOT
BRANCH   3   4
ATOM      4  C   UNL     1      -0.322   2.782   1.777  0.00  0.00    +0.036 A 
ATOM      5  C   UNL     1      -1.218   3.842   1.802  0.00  0.00    +0.023 A 
ATOM      6  C   UNL     1      -0.845   5.047   2.365  0.00  0.00    +0.002 A 
ATOM      7  C   UNL     1       0.423   5.202   2.892  0.00  0.00    +0.000 A 
ATOM      8  C   UNL     1       1.321   4.151   2.863  0.00  0.00    +0.002 A 
ATOM      9  C   UNL     1       0.952   2.941   2.307  0.00  0.00    +0.023 A 
ENDBRANCH   3   4
BRANCH   1  10
ATOM     10  C   UNL     1      -1.967  -0.565   1.269  0.00  0.00    +0.328 C 
BRANCH  10  11
ATOM     11  O   UNL     1      -3.010  -1.170   2.077  0.00  0.00    -0.452 OA
BRANCH  11  12
ATOM     12  C   UNL     1      -3.417  -2.405   1.726  0.00  0.00    +0.343 C 
ATOM     13  O   UNL     1      -2.914  -2.962   0.770  0.00  0.00    -0.245 OA
BRANCH  12  18
ATOM     14  C   UNL     1      -7.541  -5.041   4.753  0.00  0.00    +0.044 C 
ATOM     15  C   UNL     1      -6.461  -4.354   3.958  0.00  0.00    -0.047 A 
ATOM     16  C   UNL     1      -6.042  -3.083   4.320  0.00  0.00    +0.004 A 
ATOM     17  C   UNL     1      -5.055  -2.446   3.600  0.00  0.00    +0.019 A 
ATOM     18  C   UNL     1      -4.473  -3.082   2.500  0.00  0.00    +0.100 A 
ATOM     19  C   UNL     1      -4.904  -4.365   2.134  0.00  0.00    +0.131 A 
ATOM     20  C   UNL     1      -5.895  -4.994   2.873  0.00  0.00    +0.049 A 
BRANCH  19  21
ATOM     21  O   UNL     1      -4.351  -4.990   1.065  0.00  0.00    -0.506 OA
ATOM     22  H   UNL     1      -3.577  -5.528   1.281  0.00  0.00    +0.292 HD
ENDBRANCH  19  21
ENDBRANCH  12  18
ENDBRANCH  11  12
ENDBRANCH  10  11
ENDBRANCH   1  10
BRANCH   3  23
ATOM     23  C   UNL     1      -0.065   1.096  -0.024  0.00  0.00    +0.123 C 
BRANCH  23  24
ATOM     24  C   UNL     1      -0.863   1.604  -1.226  0.00  0.00    +0.115 C 
BRANCH  24  25
ATOM     25  C   UNL     1      -0.212   1.128  -2.499  0.00  0.00    +0.212 C 
ATOM     26  O   UNL     1       0.792   0.449  -2.450  0.00  0.00    -0.276 OA
ATOM     27  N   UNL     1      -0.745   1.456  -3.693  0.00  0.00    -0.329 N 
ATOM     28  H   UNL     1      -1.548   1.999  -3.732  0.00  0.00    +0.145 HD
ATOM     29  H   UNL     1      -0.326   1.150  -4.512  0.00  0.00    +0.145 HD
ENDBRANCH  24  25
ENDBRANCH  23  24
ENDBRANCH   3  23
TORSDOF 9
