REMARK  Name = ZINC10042142
REMARK  12 active torsions:
REMARK  status: ('A' for Active; 'I' for Inactive)
REMARK    1  A    between atoms: C_1  and  C_2
REMARK    2  A    between atoms: C_2  and  C_3
REMARK    3  A    between atoms: C_2  and  C_4
REMARK    4  A    between atoms: C_4  and  C_6
REMARK    5  A    between atoms: C_4  and  N_27
REMARK    6  A    between atoms: N_8  and  N_9
REMARK    7  A    between atoms: C_10  and  C_11
REMARK    8  A    between atoms: C_14  and  C_16
REMARK    9  A    between atoms: C_19  and  N_24
REMARK   10  A    between atoms: C_21  and  O_22
REMARK   11  A    between atoms: O_22  and  C_23
REMARK   12  A    between atoms: C_28  and  C_30
REMARK                            x       y       z     vdW  Elec       q    Type
REMARK                         _______ _______ _______ _____ _____    ______ ____
ROOT
ATOM      1  C   UNL     1      -0.124   1.226  -0.755  0.00  0.00    +0.253 C 
ATOM      2  O   UNL     1      -0.031   0.046  -0.513  0.00  0.00    -0.272 OA
ATOM      3  N   UNL     1      -1.302   1.858  -0.583  0.00  0.00    -0.205 N 
ATOM      4  H   UNL     1      -1.378   2.805  -0.777  0.00  0.00    +0.177 HD
ENDROOT
BRANCH   3   5
ATOM      5  N   UNL     1      -2.330   1.202  -0.161  0.00  0.00    -0.185 NA
ATOM      6  C   UNL     1      -3.453   1.845   0.129  0.00  0.00    +0.176 C 
BRANCH   6   7
ATOM      7  C   UNL     1      -3.476   3.235   0.136  0.00  0.00    +0.148 A 
ATOM      8  C   UNL     1      -4.663   4.074   0.347  0.00  0.00    +0.051 A 
ATOM      9  C   UNL     1      -4.245   5.363   0.281  0.00  0.00    +0.050 A 
ATOM     10  C   UNL     1      -2.805   5.329   0.020  0.00  0.00    +0.139 A 
ATOM     11  O   UNL     1      -2.414   4.044  -0.054  0.00  0.00    -0.454 OA
BRANCH  10  12
ATOM     12  C   UNL     1      -1.968   6.455  -0.129  0.00  0.00    +0.059 A 
ATOM     13  C   UNL     1      -2.324   7.494  -1.014  0.00  0.00    +0.017 A 
ATOM     14  C   UNL     1      -1.512   8.579  -1.149  0.00  0.00    +0.033 A 
ATOM     15  C   UNL     1      -0.325   8.670  -0.427  0.00  0.00    +0.130 A 
ATOM     16  C   UNL     1       0.050   7.665   0.442  0.00  0.00    +0.079 A 
ATOM     17  C   UNL     1      -0.759   6.550   0.604  0.00  0.00    +0.133 A 
BRANCH  15  18
ATOM     18  N   UNL     1       0.544   9.857  -0.594  0.00  0.00    +0.057 N 
ATOM     19  O   UNL     1       1.669   9.949   0.085  0.00  0.00    -0.126 OA
ATOM     20  O   UNL     1       0.193  10.819  -1.421  0.00  0.00    -0.126 OA
ENDBRANCH  15  18
BRANCH  17  21
ATOM     21  O   UNL     1      -0.396   5.561   1.454  0.00  0.00    -0.494 OA
ATOM     22  C   UNL     1       0.836   5.730   2.157  0.00  0.00    +0.277 C 
ENDBRANCH  17  21
ENDBRANCH  10  12
ENDBRANCH   6   7
ENDBRANCH   3   5
BRANCH   1  23
ATOM     23  C   UNL     1       1.075   1.991  -1.254  0.00  0.00    +0.163 C 
BRANCH  23  24
ATOM     24  N   UNL     1       2.221   1.085  -1.361  0.00  0.00    -0.300 N 
ATOM     25  C   UNL     1       3.475   1.574  -1.290  0.00  0.00    +0.246 C 
ATOM     26  O   UNL     1       3.655   2.767  -1.137  0.00  0.00    -0.270 OA
ATOM     27  H   UNL     1       2.078   0.134  -1.484  0.00  0.00    +0.150 HD
BRANCH  25  28
ATOM     28  C   UNL     1       4.632   0.661  -1.398  0.00  0.00    +0.055 A 
ATOM     29  C   UNL     1       4.429  -0.710  -1.569  0.00  0.00    +0.014 A 
ATOM     30  C   UNL     1       5.513  -1.556  -1.675  0.00  0.00    +0.001 A 
ATOM     31  C   UNL     1       6.800  -1.052  -1.601  0.00  0.00    +0.001 A 
ATOM     32  C   UNL     1       7.009   0.304  -1.427  0.00  0.00    +0.021 A 
ATOM     33  C   UNL     1       5.933   1.164  -1.325  0.00  0.00    +0.053 A 
ATOM     34 CL   UNL     1       6.197   2.866  -1.105  0.00  0.00    -0.083 Cl
ENDBRANCH  25  28
ENDBRANCH  23  24
BRANCH  23  36
ATOM     35  C   UNL     1       1.981   3.362  -3.136  0.00  0.00    +0.009 C 
ATOM     36  C   UNL     1       0.764   2.586  -2.629  0.00  0.00    +0.012 C 
ATOM     37  C   UNL     1       0.433   1.458  -3.610  0.00  0.00    +0.009 C 
ENDBRANCH  23  36
ENDBRANCH   1  23
TORSDOF 9
