REMARK  Name = ZINC26603247
REMARK  8 active torsions:
REMARK  status: ('A' for Active; 'I' for Inactive)
REMARK    1  A    between atoms: C_1  and  C_2
REMARK    2  A    between atoms: C_2  and  C_3
REMARK    3  A    between atoms: C_2  and  C_4
REMARK    4  A    between atoms: C_4  and  N_5
REMARK    5  A    between atoms: C_9  and  C_11
REMARK    6  A    between atoms: C_11  and  N_12
REMARK    7  A    between atoms: C_16  and  C_18
REMARK    8  A    between atoms: N_20  and  C_21
REMARK                            x       y       z     vdW  Elec       q    Type
REMARK                         _______ _______ _______ _____ _____    ______ ____
ROOT
ATOM      1  N   UNL     1       1.399  -0.488  -0.055  0.00  0.00    +0.393 N 
ATOM      2  C   UNL     1       1.379  -1.712  -0.896  0.00  0.00    -0.077 C 
ATOM      3  C   UNL     1       0.382  -1.349  -2.026  0.00  0.00    -0.020 C 
ATOM      4  C   UNL     1      -0.694  -0.522  -1.285  0.00  0.00    -0.008 C 
ATOM      5  C   UNL     1       0.003  -0.004  -0.013  0.00  0.00    +0.020 C 
ATOM      6  H   UNL     1       2.079   0.276  -0.461  0.00  0.00    -0.080 HD
ENDROOT
BRANCH   5   7
ATOM      7  C   UNL     1      -0.018   1.503   0.006  0.00  0.00    +0.204 C 
ATOM      8  O   UNL     1       1.024   2.124   0.004  0.00  0.00    -0.277 OA
ATOM      9  N   UNL     1      -1.195   2.161   0.019  0.00  0.00    -0.286 N 
ATOM     10  H   UNL     1      -2.138   1.601  -0.059  0.00  0.00    +0.155 HD
BRANCH   9  11
ATOM     11  C   UNL     1      -1.215   3.556   0.133  0.00  0.00    +0.053 A 
ATOM     12  C   UNL     1      -0.216   4.317  -0.459  0.00  0.00    +0.044 A 
ATOM     13  C   UNL     1      -0.239   5.694  -0.345  0.00  0.00    +0.043 A 
ATOM     14  C   UNL     1      -1.257   6.315   0.358  0.00  0.00    +0.021 A 
ATOM     15  C   UNL     1      -2.254   5.560   0.948  0.00  0.00    +0.023 A 
ATOM     16  C   UNL     1      -2.239   4.182   0.833  0.00  0.00    +0.062 A 
ATOM     17 CL   UNL     1      -3.495   3.236   1.569  0.00  0.00    -0.082 Cl
ATOM     18 CL   UNL     1       1.010   6.646  -1.084  0.00  0.00    -0.083 Cl
ENDBRANCH   9  11
ENDBRANCH   5   7
BRANCH   1  19
ATOM     19  C   UNL     1       1.894  -0.785   1.296  0.00  0.00    +0.020 C 
BRANCH  19  24
ATOM     20  N   UNL     1       5.692  -2.891   3.358  0.00  0.00    -0.299 N 
ATOM     21  C   UNL     1       5.046  -2.516   2.236  0.00  0.00    +0.306 C 
ATOM     22  O   UNL     1       5.530  -2.755   1.147  0.00  0.00    -0.252 OA
ATOM     23  N   UNL     1       3.863  -1.876   2.322  0.00  0.00    -0.242 N 
ATOM     24  C   UNL     1       3.217  -1.501   1.200  0.00  0.00    +0.204 C 
ATOM     25  O   UNL     1       3.700  -1.740   0.114  0.00  0.00    -0.277 OA
ATOM     26  H   UNL     1       5.254  -2.674   4.343  0.00  0.00    +0.150 HD
ATOM     27  H   UNL     1       3.425  -1.659   3.307  0.00  0.00    +0.159 HD
BRANCH  20  28
ATOM     28  C   UNL     1       6.979  -3.586   3.265  0.00  0.00    +0.108 C 
BRANCH  28  30
ATOM     29  C   UNL     1       8.772  -4.731   4.574  0.00  0.00    +0.009 C 
ATOM     30  C   UNL     1       7.494  -3.896   4.671  0.00  0.00    -0.000 C 
ATOM     31  C   UNL     1       7.794  -2.587   5.405  0.00  0.00    +0.009 C 
ENDBRANCH  28  30
ENDBRANCH  20  28
ENDBRANCH  19  24
ENDBRANCH   1  19
TORSDOF 6
