REMARK  Name = ZINC36228021
REMARK  6 active torsions:
REMARK  status: ('A' for Active; 'I' for Inactive)
REMARK    1  A    between atoms: C_3  and  N_22
REMARK    2  A    between atoms: C_4  and  N_19
REMARK    3  A    between atoms: C_6  and  S_7
REMARK    4  A    between atoms: S_7  and  N_10
REMARK    5  A    between atoms: C_14  and  C_17
REMARK    6  A    between atoms: C_17  and  O_18
REMARK                            x       y       z     vdW  Elec       q    Type
REMARK                         _______ _______ _______ _____ _____    ______ ____
ROOT
ATOM      1  C   UNL     1       0.005   1.371  -0.252  0.00  0.00    +0.030 A 
ATOM      2  C   UNL     1       1.205   2.053  -0.311  0.00  0.00    +0.027 A 
ATOM      3  C   UNL     1       2.396   1.381  -0.064  0.00  0.00    +0.055 A 
ATOM      4  C   UNL     1       2.375   0.026   0.242  0.00  0.00    +0.149 A 
ATOM      5  C   UNL     1       1.172  -0.648   0.299  0.00  0.00    +0.063 A 
ATOM      6  C   UNL     1      -0.012   0.023   0.053  0.00  0.00    +0.108 A 
ENDROOT
BRANCH   6   7
ATOM      7  S   UNL     1      -1.545  -0.842   0.128  0.00  0.00    +0.061 S 
ATOM      8  O   UNL     1      -1.335  -1.970   0.967  0.00  0.00    -0.153 OA
ATOM      9  O   UNL     1      -2.547   0.129   0.394  0.00  0.00    -0.153 OA
BRANCH   7  10
ATOM     10  N   UNL     1      -1.849  -1.432  -1.389  0.00  0.00    -0.176 NA
ATOM     11  C   UNL     1      -2.597  -0.631  -2.368  0.00  0.00    +0.109 C 
ATOM     12  C   UNL     1      -3.772  -1.463  -2.892  0.00  0.00    +0.017 C 
ATOM     13  C   UNL     1      -3.246  -2.792  -3.438  0.00  0.00    +0.008 C 
ATOM     14  C   UNL     1      -2.564  -3.574  -2.313  0.00  0.00    +0.030 C 
ATOM     15  C   UNL     1      -1.371  -2.764  -1.784  0.00  0.00    +0.115 C 
BRANCH  14  16
ATOM     16  C   UNL     1      -2.069  -4.918  -2.852  0.00  0.00    +0.160 C 
BRANCH  16  17
ATOM     17  O   UNL     1      -3.188  -5.716  -3.243  0.00  0.00    -0.395 OA
ATOM     18  H   UNL     1      -2.949  -6.584  -3.595  0.00  0.00    +0.209 HD
ENDBRANCH  16  17
ENDBRANCH  14  16
ENDBRANCH   7  10
ENDBRANCH   6   7
BRANCH   4  19
ATOM     19  N   UNL     1       3.641  -0.693   0.505  0.00  0.00    +0.058 N 
ATOM     20  O   UNL     1       3.782  -1.830   0.121  0.00  0.00    -0.126 OA
ATOM     21  O   UNL     1       4.536  -0.143   1.105  0.00  0.00    -0.126 OA
ENDBRANCH   4  19
BRANCH   3  22
ATOM     22  N   UNL     1       3.611   2.067  -0.124  0.00  0.00    -0.356 N 
ATOM     23  H   UNL     1       3.619   3.032  -0.227  0.00  0.00    +0.142 HD
ATOM     24  H   UNL     1       4.447   1.579  -0.063  0.00  0.00    +0.142 HD
ENDBRANCH   3  22
TORSDOF 6
