REMARK  Name = ZINC59599220
REMARK  11 active torsions:
REMARK  status: ('A' for Active; 'I' for Inactive)
REMARK    1  A    between atoms: C_1  and  C_2
REMARK    2  A    between atoms: C_2  and  O_3
REMARK    3  A    between atoms: O_3  and  C_4
REMARK    4  A    between atoms: C_7  and  N_10
REMARK    5  A    between atoms: N_13  and  N_14
REMARK    6  A    between atoms: C_15  and  C_16
REMARK    7  A    between atoms: C_19  and  O_22
REMARK    8  A    between atoms: O_22  and  C_23
REMARK    9  A    between atoms: C_24  and  N_33
REMARK   10  A    between atoms: N_25  and  C_32
REMARK   11  A    between atoms: N_28  and  C_31
REMARK                            x       y       z     vdW  Elec       q    Type
REMARK                         _______ _______ _______ _____ _____    ______ ____
ROOT
ATOM      1  C   UNL     1      -0.584 -10.496  -0.987  0.00  0.00    -0.005 A 
ATOM      2  C   UNL     1      -1.245 -10.197   0.208  0.00  0.00    +0.013 A 
ATOM      3  C   UNL     1      -1.504 -11.197   1.119  0.00  0.00    +0.047 A 
ATOM      4  C   UNL     1      -1.110 -12.502   0.852  0.00  0.00    +0.129 A 
ATOM      5  C   UNL     1      -0.452 -12.805  -0.335  0.00  0.00    +0.047 A 
ATOM      6  C   UNL     1      -0.194 -11.811  -1.254  0.00  0.00    +0.013 A 
ENDROOT
BRANCH   1   8
ATOM      7  N   UNL     1      -0.666  -8.208  -1.714  0.00  0.00    -0.186 NA
ATOM      8  C   UNL     1      -0.303  -9.429  -1.964  0.00  0.00    +0.138 C 
BRANCH   7  12
ATOM      9  N   UNL     1      -1.409  -5.634  -1.230  0.00  0.00    -0.268 N 
ATOM     10  C   UNL     1      -0.776  -5.926  -2.384  0.00  0.00    +0.323 C 
ATOM     11  O   UNL     1      -0.545  -5.046  -3.190  0.00  0.00    -0.251 OA
ATOM     12  N   UNL     1      -0.400  -7.194  -2.643  0.00  0.00    -0.191 N 
ATOM     13  H   UNL     1      -1.525  -6.320  -0.553  0.00  0.00    +0.156 HD
ATOM     14  H   UNL     1       0.056  -7.404  -3.474  0.00  0.00    +0.179 HD
BRANCH   9  18
ATOM     15  C   UNL     1      -2.870  -1.785  -0.569  0.00  0.00    +0.121 A 
ATOM     16  C   UNL     1      -2.849  -2.307  -1.854  0.00  0.00    +0.047 A 
ATOM     17  C   UNL     1      -2.365  -3.582  -2.074  0.00  0.00    +0.027 A 
ATOM     18  C   UNL     1      -1.899  -4.341  -1.008  0.00  0.00    +0.035 A 
ATOM     19  C   UNL     1      -1.920  -3.817   0.278  0.00  0.00    +0.027 A 
ATOM     20  C   UNL     1      -2.399  -2.540   0.495  0.00  0.00    +0.047 A 
BRANCH  15  21
ATOM     21  O   UNL     1      -3.346  -0.530  -0.354  0.00  0.00    -0.492 OA
BRANCH  21  23
ATOM     22  C   UNL     1      -4.309   1.572  -1.059  0.00  0.00    +0.048 C 
ATOM     23  C   UNL     1      -3.815   0.191  -1.495  0.00  0.00    +0.225 C 
ENDBRANCH  21  23
ENDBRANCH  15  21
ENDBRANCH   9  18
ENDBRANCH   7  12
ENDBRANCH   1   8
BRANCH   4  24
ATOM     24  O   UNL     1      -1.367 -13.485   1.753  0.00  0.00    -0.447 OA
BRANCH  24  25
ATOM     25  C   UNL     1      -1.067 -14.768   1.403  0.00  0.00    +0.230 A 
ATOM     26  C   UNL     1      -0.070 -15.449   2.048  0.00  0.00    +0.149 A 
ATOM     27  N   UNL     1       0.213 -16.743   1.677  0.00  0.00    -0.282 N 
ATOM     28  C   UNL     1      -0.483 -17.335   0.689  0.00  0.00    +0.333 A 
ATOM     29  O   UNL     1      -0.219 -18.480   0.374  0.00  0.00    -0.246 OA
ATOM     30  N   UNL     1      -1.467 -16.682   0.045  0.00  0.00    -0.261 N 
ATOM     31  C   UNL     1      -1.782 -15.415   0.379  0.00  0.00    +0.301 A 
ATOM     32  O   UNL     1      -2.678 -14.830  -0.206  0.00  0.00    -0.263 OA
ATOM     33  C   UNL     1      -2.207 -17.355  -1.025  0.00  0.00    +0.157 C 
ATOM     34  C   UNL     1       1.279 -17.480   2.360  0.00  0.00    +0.155 C 
BRANCH  26  35
ATOM     35  N   UNL     1       0.643 -14.844   3.056  0.00  0.00    -0.341 N 
ATOM     36  H   UNL     1       0.503 -13.905   3.253  0.00  0.00    +0.144 HD
ATOM     37  H   UNL     1       1.286 -15.357   3.571  0.00  0.00    +0.144 HD
ENDBRANCH  26  35
ENDBRANCH  24  25
ENDBRANCH   4  24
TORSDOF 8
