REMARK  Name = ZINC33849473
REMARK  5 active torsions:
REMARK  status: ('A' for Active; 'I' for Inactive)
REMARK    1  A    between atoms: C_1  and  C_2
REMARK    2  A    between atoms: C_5  and  N_8
REMARK    3  A    between atoms: C_11  and  C_22
REMARK    4  A    between atoms: C_25  and  O_28
REMARK    5  A    between atoms: O_28  and  C_29
REMARK                            x       y       z     vdW  Elec       q    Type
REMARK                         _______ _______ _______ _____ _____    ______ ____
ROOT
ATOM      1  N   UNL     1       0.057  -4.169  -0.021  0.00  0.00    -0.284 N 
ATOM      2  C   UNL     1       0.176  -4.865   1.167  0.00  0.00    +0.220 C 
ATOM      3  N   UNL     1       0.296  -6.164   1.129  0.00  0.00    -0.224 NA
ATOM      4  C   UNL     1       0.513  -6.936   2.355  0.00  0.00    +0.235 C 
ATOM      5  N   UNL     1      -0.002  -6.181   3.502  0.00  0.00    -0.213 N 
ATOM      6  C   UNL     1      -0.539  -6.845   4.587  0.00  0.00    +0.249 C 
ATOM      7  O   UNL     1      -0.687  -8.191   4.546  0.00  0.00    -0.270 OA
ATOM      8  C   UNL     1      -0.918  -6.162   5.688  0.00  0.00    +0.090 C 
ATOM      9  C   UNL     1      -0.780  -4.695   5.697  0.00  0.00    +0.031 C 
ATOM     10  N   UNL     1      -0.059  -4.104   4.645  0.00  0.00    -0.287 N 
ATOM     11  C   UNL     1       0.055  -4.812   3.477  0.00  0.00    +0.199 C 
ATOM     12  N   UNL     1       0.172  -4.182   2.325  0.00  0.00    -0.184 NA
ATOM     13  C   UNL     1      -1.323  -3.950   6.672  0.00  0.00    +0.033 C 
ATOM     14  H   UNL     1      -0.018  -4.650  -0.860  0.00  0.00    +0.155 HD
ATOM     15  H   UNL     1       0.343  -3.227   4.742  0.00  0.00    +0.155 HD
ENDROOT
BRANCH   1  20
ATOM     16  C   UNL     1       0.009   1.503   0.007  0.00  0.00    +0.044 C 
ATOM     17  C   UNL     1       0.022  -0.004  -0.001  0.00  0.00    -0.050 A 
ATOM     18  C   UNL     1       0.786  -0.692   0.924  0.00  0.00    +0.005 A 
ATOM     19  C   UNL     1       0.800  -2.073   0.920  0.00  0.00    +0.023 A 
ATOM     20  C   UNL     1       0.045  -2.771  -0.014  0.00  0.00    +0.034 A 
ATOM     21  C   UNL     1      -0.722  -2.077  -0.941  0.00  0.00    +0.023 A 
ATOM     22  C   UNL     1      -0.735  -0.696  -0.928  0.00  0.00    +0.005 A 
ENDBRANCH   1  20
BRANCH   4  23
ATOM     23  C   UNL     1       1.988  -7.186   2.538  0.00  0.00    -0.005 A 
ATOM     24  C   UNL     1       2.514  -7.316   3.810  0.00  0.00    +0.011 A 
ATOM     25  C   UNL     1       3.865  -7.545   3.980  0.00  0.00    +0.046 A 
ATOM     26  C   UNL     1       4.696  -7.644   2.872  0.00  0.00    +0.120 A 
ATOM     27  C   UNL     1       4.166  -7.513   1.597  0.00  0.00    +0.046 A 
ATOM     28  C   UNL     1       2.812  -7.290   1.432  0.00  0.00    +0.011 A 
BRANCH  26  29
ATOM     29  O   UNL     1       6.026  -7.868   3.037  0.00  0.00    -0.495 OA
ATOM     30  C   UNL     1       6.820  -7.958   1.852  0.00  0.00    +0.277 C 
ENDBRANCH  26  29
ENDBRANCH   4  23
TORSDOF 3
