REMARK  Name = ZINC15686453
REMARK  8 active torsions:
REMARK  status: ('A' for Active; 'I' for Inactive)
REMARK    1  A    between atoms: C_1  and  C_2
REMARK    2  A    between atoms: C_5  and  S_8
REMARK    3  A    between atoms: S_8  and  C_11
REMARK    4  A    between atoms: C_11  and  N_12
REMARK    5  A    between atoms: C_13  and  C_14
REMARK    6  A    between atoms: N_20  and  C_21
REMARK    7  A    between atoms: C_21  and  N_23
REMARK    8  A    between atoms: N_23  and  N_24
REMARK                            x       y       z     vdW  Elec       q    Type
REMARK                         _______ _______ _______ _____ _____    ______ ____
ROOT
ATOM      1  N   UNL     1       2.506  -4.302   1.045  0.00  0.00    -0.313 N 
ATOM      2  C   UNL     1       2.511  -5.240   2.041  0.00  0.00    +0.098 C 
ATOM      3  N   UNL     1       2.139  -6.480   1.781  0.00  0.00    -0.284 N 
ATOM      4  H   UNL     1       2.138  -4.520   0.175  0.00  0.00    +0.149 HD
ATOM      5  H   UNL     1       2.074  -7.128   2.500  0.00  0.00    +0.155 HD
ENDROOT
BRANCH   2   6
ATOM      6  C   UNL     1       2.932  -4.867   3.406  0.00  0.00    +0.011 A 
ATOM      7  C   UNL     1       4.019  -4.010   3.595  0.00  0.00    +0.011 A 
ATOM      8  C   UNL     1       4.406  -3.664   4.873  0.00  0.00    +0.001 A 
ATOM      9  C   UNL     1       3.721  -4.165   5.966  0.00  0.00    +0.000 A 
ATOM     10  C   UNL     1       2.644  -5.014   5.786  0.00  0.00    +0.001 A 
ATOM     11  C   UNL     1       2.241  -5.363   4.514  0.00  0.00    +0.011 A 
ENDBRANCH   2   6
BRANCH   3  12
ATOM     12  C   UNL     1       1.850  -6.845   0.522  0.00  0.00    +0.154 C 
ATOM     13  S   UNL     1       2.952  -7.808  -0.365  0.00  0.00    -0.017 S 
BRANCH  12  14
ATOM     14  N   UNL     1       0.692  -6.452  -0.045  0.00  0.00    -0.232 N 
ATOM     15  H   UNL     1       0.102  -5.844   0.429  0.00  0.00    +0.175 HD
BRANCH  14  16
ATOM     16  N   UNL     1       0.340  -6.920  -1.317  0.00  0.00    -0.235 N 
ATOM     17  C   UNL     1       0.595  -8.147  -1.833  0.00  0.00    +0.244 A 
ATOM     18  N   UNL     1       0.099  -8.171  -3.041  0.00  0.00    -0.137 NA
ATOM     19  N   UNL     1      -0.447  -7.037  -3.307  0.00  0.00    -0.137 NA
ATOM     20  C   UNL     1      -0.330  -6.241  -2.279  0.00  0.00    +0.244 A 
ENDBRANCH  14  16
ENDBRANCH  12  14
ENDBRANCH   3  12
BRANCH   1  21
ATOM     21  C   UNL     1       3.058  -2.968   1.294  0.00  0.00    +0.276 C 
BRANCH  21  22
ATOM     22  S   UNL     1       4.761  -2.893   0.675  0.00  0.00    +0.013 S 
ATOM     23  O   UNL     1       5.481  -4.050   1.079  0.00  0.00    -0.168 OA
ATOM     24  O   UNL     1       5.301  -1.595   0.883  0.00  0.00    -0.168 OA
BRANCH  22  29
ATOM     25  C   UNL     1       4.261  -3.408  -5.316  0.00  0.00    +0.044 C 
ATOM     26  C   UNL     1       4.386  -3.279  -3.820  0.00  0.00    -0.050 A 
ATOM     27  C   UNL     1       4.355  -2.030  -3.229  0.00  0.00    +0.005 A 
ATOM     28  C   UNL     1       4.470  -1.912  -1.856  0.00  0.00    +0.027 A 
ATOM     29  C   UNL     1       4.614  -3.043  -1.075  0.00  0.00    +0.090 A 
ATOM     30  C   UNL     1       4.644  -4.293  -1.666  0.00  0.00    +0.027 A 
ATOM     31  C   UNL     1       4.525  -4.411  -3.038  0.00  0.00    +0.005 A 
ENDBRANCH  22  29
ENDBRANCH  21  22
ENDBRANCH   1  21
TORSDOF 7
