REMARK  Name = ZINC61718685
REMARK  7 active torsions:
REMARK  status: ('A' for Active; 'I' for Inactive)
REMARK    1  A    between atoms: C_1  and  C_2
REMARK    2  A    between atoms: C_2  and  C_3
REMARK    3  A    between atoms: C_2  and  O_4
REMARK    4  A    between atoms: O_4  and  C_5
REMARK    5  A    between atoms: C_9  and  C_11
REMARK    6  A    between atoms: C_14  and  O_23
REMARK    7  A    between atoms: N_21  and  C_22
REMARK                            x       y       z     vdW  Elec       q    Type
REMARK                         _______ _______ _______ _____ _____    ______ ____
ROOT
ATOM      1  C   UNL     1      -4.404  -4.127  -1.111  0.00  0.00    +0.068 C 
ATOM      2  C   UNL     1      -4.790  -4.451  -2.563  0.00  0.00    +0.109 C 
ATOM      3  C   UNL     1      -5.904  -5.457  -2.600  0.00  0.00    +0.190 C 
ATOM      4  N   UNL     1      -6.080  -6.391  -1.728  0.00  0.00    -0.197 NA
ATOM      5  C   UNL     1      -5.231  -6.488  -0.630  0.00  0.00    +0.169 A 
ATOM      6  C   UNL     1      -4.437  -5.402  -0.343  0.00  0.00    +0.045 A 
ATOM      7  S   UNL     1      -3.546  -5.933   1.089  0.00  0.00    -0.055 S 
ATOM      8  C   UNL     1      -4.308  -7.547   1.226  0.00  0.00    +0.160 A 
ATOM      9  N   UNL     1      -5.136  -7.539   0.193  0.00  0.00    -0.206 NA
ATOM     10  N   UNL     1      -4.086  -8.544   2.162  0.00  0.00    -0.326 N 
ATOM     11  C   UNL     1      -4.831  -9.803   2.083  0.00  0.00    +0.127 C 
ATOM     12  H   UNL     1      -3.438  -8.408   2.871  0.00  0.00    +0.148 HD
ENDROOT
BRANCH   1  17
ATOM     13  C   UNL     1      -1.538  -1.739  -0.505  0.00  0.00    +0.121 A 
ATOM     14  C   UNL     1      -0.465  -2.469  -0.997  0.00  0.00    +0.045 A 
ATOM     15  C   UNL     1      -0.671  -3.729  -1.522  0.00  0.00    +0.004 A 
ATOM     16  C   UNL     1      -1.945  -4.265  -1.558  0.00  0.00    +0.004 A 
ATOM     17  C   UNL     1      -3.016  -3.541  -1.069  0.00  0.00    -0.035 A 
ATOM     18  C   UNL     1      -2.815  -2.281  -0.538  0.00  0.00    +0.050 A 
BRANCH  13  19
ATOM     19  O   UNL     1      -1.339  -0.499   0.012  0.00  0.00    -0.489 OA
BRANCH  19  21
ATOM     20  C   UNL     1      -1.982   1.168   1.640  0.00  0.00    +0.051 C 
ATOM     21  C   UNL     1      -2.466   0.143   0.612  0.00  0.00    +0.167 C 
ATOM     22  C   UNL     1      -3.283   0.853  -0.469  0.00  0.00    +0.051 C 
ENDBRANCH  19  21
ENDBRANCH  13  19
ENDBRANCH   1  17
BRANCH   3  23
ATOM     23  O   UNL     1      -6.786  -5.378  -3.620  0.00  0.00    -0.495 OA
ATOM     24  H   UNL     1      -7.481  -6.051  -3.593  0.00  0.00    +0.293 HD
ENDBRANCH   3  23
TORSDOF 4
