REMARK  Name = ZINC32666613
REMARK  11 active torsions:
REMARK  status: ('A' for Active; 'I' for Inactive)
REMARK    1  A    between atoms: C_1  and  C_2
REMARK    2  A    between atoms: C_2  and  N_3
REMARK    3  A    between atoms: N_3  and  C_4
REMARK    4  A    between atoms: C_5  and  N_20
REMARK    5  A    between atoms: N_6  and  C_13
REMARK    6  A    between atoms: C_13  and  C_14
REMARK    7  A    between atoms: C_21  and  C_23
REMARK    8  A    between atoms: C_23  and  O_24
REMARK    9  A    between atoms: O_24  and  C_25
REMARK   10  A    between atoms: C_25  and  C_27
REMARK   11  A    between atoms: C_28  and  C_29
REMARK                            x       y       z     vdW  Elec       q    Type
REMARK                         _______ _______ _______ _____ _____    ______ ____
ROOT
ATOM      1  N   UNL     1      -3.352  -7.809   0.045  0.00  0.00    -0.262 N 
ATOM      2  C   UNL     1      -2.396  -6.877   0.238  0.00  0.00    +0.258 C 
ATOM      3  O   UNL     1      -1.246  -7.217   0.427  0.00  0.00    -0.272 OA
ENDROOT
BRANCH   1   4
ATOM      4  C   UNL     1      -3.002  -9.173  -0.033  0.00  0.00    +0.140 A 
ATOM      5  C   UNL     1      -2.193  -9.633  -1.051  0.00  0.00    +0.128 A 
ATOM      6  N   UNL     1      -1.865 -10.968  -1.098  0.00  0.00    -0.276 N 
ATOM      7  C   UNL     1      -2.336 -11.818  -0.167  0.00  0.00    +0.331 A 
ATOM      8  O   UNL     1      -2.038 -12.995  -0.228  0.00  0.00    -0.246 OA
ATOM      9  N   UNL     1      -3.131 -11.388   0.830  0.00  0.00    -0.273 N 
ATOM     10  H   UNL     1      -3.505 -12.100   1.580  0.00  0.00    +0.173 HD
ATOM     11  C   UNL     1      -3.478 -10.090   0.924  0.00  0.00    +0.277 A 
ATOM     12  O   UNL     1      -4.198  -9.711   1.832  0.00  0.00    -0.266 OA
BRANCH   5  13
ATOM     13  N   UNL     1      -1.717  -8.766  -2.006  0.00  0.00    -0.343 N 
ATOM     14  H   UNL     1      -1.072  -9.140  -2.815  0.00  0.00    +0.144 HD
ATOM     15  H   UNL     1      -1.980  -7.699  -1.960  0.00  0.00    +0.144 HD
ENDBRANCH   5  13
BRANCH   6  16
ATOM     16  C   UNL     1      -1.002 -11.469  -2.170  0.00  0.00    +0.163 C 
BRANCH  16  17
ATOM     17  C   UNL     1      -1.851 -11.888  -3.343  0.00  0.00    -0.028 A 
ATOM     18  C   UNL     1      -2.314 -13.187  -3.432  0.00  0.00    +0.005 A 
ATOM     19  C   UNL     1      -3.097 -13.569  -4.505  0.00  0.00    +0.000 A 
ATOM     20  C   UNL     1      -3.406 -12.656  -5.496  0.00  0.00    +0.000 A 
ATOM     21  C   UNL     1      -2.938 -11.358  -5.410  0.00  0.00    +0.000 A 
ATOM     22  C   UNL     1      -2.160 -10.974  -4.333  0.00  0.00    +0.005 A 
ENDBRANCH  16  17
ENDBRANCH   6  16
ENDBRANCH   1   4
BRANCH   1  24
ATOM     23  C   UNL     1      -5.089  -7.181  -1.559  0.00  0.00    +0.025 C 
ATOM     24  C   UNL     1      -4.754  -7.404  -0.082  0.00  0.00    +0.110 C 
ENDBRANCH   1  24
BRANCH   2  25
ATOM     25  C   UNL     1      -2.754  -5.413   0.217  0.00  0.00    +0.328 C 
BRANCH  25  26
ATOM     26  O   UNL     1      -1.561  -4.619   0.447  0.00  0.00    -0.452 OA
BRANCH  26  27
ATOM     27  C   UNL     1      -1.710  -3.278   0.459  0.00  0.00    +0.332 C 
ATOM     28  O   UNL     1      -2.808  -2.787   0.283  0.00  0.00    -0.246 OA
BRANCH  27  29
ATOM     29  C   UNL     1      -0.549  -2.414   0.685  0.00  0.00    +0.094 C 
ATOM     30  C   UNL     1      -0.699  -1.073   0.698  0.00  0.00    +0.042 C 
BRANCH  30  31
ATOM     31  C   UNL     1       0.465  -0.206   0.924  0.00  0.00    +0.103 A 
ATOM     32  N   UNL     1       1.721  -0.546   1.131  0.00  0.00    -0.240 NA
ATOM     33  C   UNL     1       2.690   0.355   1.323  0.00  0.00    +0.079 A 
ATOM     34  C   UNL     1       4.070   0.121   1.555  0.00  0.00    +0.029 A 
ATOM     35  C   UNL     1       4.931   1.157   1.732  0.00  0.00    +0.002 A 
ATOM     36  C   UNL     1       4.502   2.478   1.696  0.00  0.00    +0.001 A 
ATOM     37  C   UNL     1       3.166   2.752   1.474  0.00  0.00    +0.017 A 
ATOM     38  C   UNL     1       2.285   1.713   1.293  0.00  0.00    +0.040 A 
ATOM     39  S   UNL     1       0.540   1.579   0.988  0.00  0.00    -0.068 S 
ENDBRANCH  30  31
ENDBRANCH  27  29
ENDBRANCH  26  27
ENDBRANCH  25  26
ENDBRANCH   2  25
TORSDOF 10
