REMARK  Name = ZINC48912844
REMARK  4 active torsions:
REMARK  status: ('A' for Active; 'I' for Inactive)
REMARK    1  A    between atoms: C_1  and  C_2
REMARK    2  A    between atoms: C_2  and  S_3
REMARK    3  A    between atoms: S_3  and  C_4
REMARK    4  A    between atoms: C_6  and  C_10
REMARK                            x       y       z     vdW  Elec       q    Type
REMARK                         _______ _______ _______ _____ _____    ______ ____
ROOT
ATOM      1  C   UNL     1       0.792  -2.345  -1.354  0.00  0.00    +0.098 A 
ATOM      2  C   UNL     1       1.368  -3.132  -2.347  0.00  0.00    +0.047 A 
ATOM      3  C   UNL     1       1.313  -4.521  -2.223  0.00  0.00    +0.041 A 
ATOM      4  C   UNL     1       0.677  -5.061  -1.098  0.00  0.00    +0.033 A 
ATOM      5  C   UNL     1       0.132  -4.210  -0.160  0.00  0.00    +0.113 A 
ATOM      6  N   UNL     1       0.206  -2.901  -0.305  0.00  0.00    -0.249 NA
ENDROOT
BRANCH   3   7
ATOM      7  C   UNL     1       1.911  -5.400  -3.254  0.00  0.00    +0.250 C 
ATOM      8  O   UNL     1       2.458  -4.914  -4.223  0.00  0.00    -0.270 OA
ATOM      9  N   UNL     1       1.848  -6.739  -3.116  0.00  0.00    -0.261 N 
ATOM     10  C   UNL     1       2.405  -7.559  -4.078  0.00  0.00    +0.156 C 
ATOM     11  N   UNL     1       3.026  -7.193  -5.162  0.00  0.00    -0.262 NA
ATOM     12  C   UNL     1       3.543  -8.171  -6.101  0.00  0.00    +0.155 C 
ATOM     13  C   UNL     1       3.671  -9.570  -5.438  0.00  0.00    +0.100 C 
ATOM     14  S   UNL     1       2.433  -9.344  -4.092  0.00  0.00    -0.089 S 
ATOM     15  H   UNL     1       1.411  -7.127  -2.342  0.00  0.00    +0.157 HD
ENDBRANCH   3   7
BRANCH   1  16
ATOM     16  S   UNL     1       0.851  -0.589  -1.490  0.00  0.00    -0.106 S 
BRANCH  16  18
ATOM     17  C   UNL     1      -0.019   1.526   0.010  0.00  0.00    +0.015 C 
ATOM     18  C   UNL     1       0.002  -0.004   0.002  0.00  0.00    +0.072 C 
ENDBRANCH  16  18
ENDBRANCH   1  16
TORSDOF 3
