REMARK  Name = ZINC03308543
REMARK  7 active torsions:
REMARK  status: ('A' for Active; 'I' for Inactive)
REMARK    1  A    between atoms: C_1  and  C_2
REMARK    2  A    between atoms: C_2  and  C_3
REMARK    3  A    between atoms: C_2  and  C_4
REMARK    4  A    between atoms: C_4  and  N_5
REMARK    5  A    between atoms: C_14  and  C_16
REMARK    6  A    between atoms: N_18  and  N_19
REMARK    7  A    between atoms: N_21  and  C_29
REMARK                            x       y       z     vdW  Elec       q    Type
REMARK                         _______ _______ _______ _____ _____    ______ ____
ROOT
ATOM      1  N   UNL     1      -1.175   3.515   0.032  0.00  0.00    -0.228 N 
ATOM      2  C   UNL     1      -1.261   2.168   0.020  0.00  0.00    +0.275 A 
ATOM      3  O   UNL     1      -2.345   1.614   0.021  0.00  0.00    -0.266 OA
ATOM      4  C   UNL     1      -0.017   1.387   0.010  0.00  0.00    +0.050 A 
ATOM      5  C   UNL     1       0.002  -0.004   0.002  0.00  0.00    +0.014 A 
ATOM      6  C   UNL     1       1.213  -0.663  -0.013  0.00  0.00    +0.001 A 
ATOM      7  C   UNL     1       2.407   0.046  -0.021  0.00  0.00    +0.001 A 
ATOM      8  C   UNL     1       2.409   1.425  -0.014  0.00  0.00    +0.011 A 
ATOM      9  C   UNL     1       1.199   2.109   0.002  0.00  0.00    +0.020 A 
ATOM     10  C   UNL     1       1.114   3.579   0.011  0.00  0.00    +0.155 A 
ATOM     11  N   UNL     1      -0.065   4.151   0.025  0.00  0.00    -0.163 NA
ENDROOT
BRANCH  10  12
ATOM     12  C   UNL     1       2.342   4.398   0.003  0.00  0.00    +0.284 C 
ATOM     13  O   UNL     1       3.433   3.858  -0.011  0.00  0.00    -0.267 OA
ATOM     14  N   UNL     1       2.255   5.742   0.011  0.00  0.00    -0.199 N 
ATOM     15  H   UNL     1       1.385   6.172   0.022  0.00  0.00    +0.178 HD
BRANCH  14  16
ATOM     16  N   UNL     1       3.420   6.520   0.003  0.00  0.00    -0.154 NA
ATOM     17  C   UNL     1       3.336   7.823   0.011  0.00  0.00    +0.191 A 
ATOM     18  N   UNL     1       4.353   8.757   0.006  0.00  0.00    -0.321 N 
ATOM     19  C   UNL     1       4.047  10.109   0.016  0.00  0.00    +0.057 A 
ATOM     20  C   UNL     1       4.948  11.187   0.013  0.00  0.00    +0.027 A 
ATOM     21  C   UNL     1       4.495  12.485   0.024  0.00  0.00    +0.002 A 
ATOM     22  C   UNL     1       3.142  12.774   0.039  0.00  0.00    +0.001 A 
ATOM     23  C   UNL     1       2.231  11.730   0.043  0.00  0.00    +0.017 A 
ATOM     24  C   UNL     1       2.683  10.432   0.032  0.00  0.00    +0.039 A 
ATOM     25  S   UNL     1       1.876   8.850   0.023  0.00  0.00    -0.048 S 
ATOM     26  C   UNL     1       5.752   8.320  -0.011  0.00  0.00    +0.151 C 
ENDBRANCH  14  16
ENDBRANCH  10  12
BRANCH   1  27
ATOM     27  C   UNL     1      -2.418   4.289   0.049  0.00  0.00    +0.150 C 
BRANCH  27  29
ATOM     28  C   UNL     1      -1.796   5.442   2.176  0.00  0.00    +0.009 C 
ATOM     29  C   UNL     1      -2.837   4.550   1.497  0.00  0.00    +0.004 C 
ATOM     30  C   UNL     1      -4.198   5.250   1.516  0.00  0.00    +0.009 C 
ENDBRANCH  27  29
ENDBRANCH   1  27
TORSDOF 4
