REMARK  Name = ZINC39534490
REMARK  11 active torsions:
REMARK  status: ('A' for Active; 'I' for Inactive)
REMARK    1  A    between atoms: C_1  and  C_2
REMARK    2  A    between atoms: C_2  and  C_3
REMARK    3  A    between atoms: C_2  and  S_4
REMARK    4  A    between atoms: S_4  and  C_7
REMARK    5  A    between atoms: C_10  and  C_13
REMARK    6  A    between atoms: C_13  and  C_15
REMARK    7  A    between atoms: C_13  and  N_18
REMARK    8  A    between atoms: C_15  and  N_16
REMARK    9  A    between atoms: N_16  and  O_17
REMARK   10  A    between atoms: C_22  and  S_25
REMARK   11  A    between atoms: S_25  and  C_26
REMARK                            x       y       z     vdW  Elec       q    Type
REMARK                         _______ _______ _______ _____ _____    ______ ____
ROOT
ATOM      1  C   UNL     1      -1.166  -6.629   0.503  0.00  0.00    -0.021 C 
ENDROOT
BRANCH   1   2
ATOM      2  N   UNL     1      -0.270  -7.034   1.594  0.00  0.00    +0.387 N 
ATOM      3  C   UNL     1       1.018  -6.341   1.454  0.00  0.00    -0.062 C 
ATOM      4  C   UNL     1       1.945  -6.748   2.601  0.00  0.00    +0.063 C 
ATOM      5  N   UNL     1       2.147  -8.204   2.570  0.00  0.00    -0.308 NA
ATOM      6  C   UNL     1       0.864  -8.911   2.685  0.00  0.00    +0.095 C 
ATOM      7  C   UNL     1      -0.054  -8.486   1.537  0.00  0.00    -0.048 C 
ATOM      8  H   UNL     1       2.640  -8.483   1.735  0.00  0.00    +0.123 HD
ATOM      9  H   UNL     1      -0.687  -6.791   2.480  0.00  0.00    -0.081 HD
BRANCH   6  10
ATOM     10  S   UNL     1       1.150 -10.701   2.601  0.00  0.00    -0.147 S 
ATOM     11  C   UNL     1       2.936 -10.872   2.865  0.00  0.00    +0.086 C 
ENDBRANCH   6  10
ENDBRANCH   1   2
BRANCH   1  15
ATOM     12  C   UNL     1      -1.712  -2.393   0.605  0.00  0.00    +0.088 A 
ATOM     13  C   UNL     1      -1.568  -3.043  -0.607  0.00  0.00    +0.027 A 
ATOM     14  C   UNL     1      -1.391  -4.413  -0.640  0.00  0.00    +0.004 A 
ATOM     15  C   UNL     1      -1.357  -5.135   0.539  0.00  0.00    -0.060 A 
ATOM     16  C   UNL     1      -1.500  -4.485   1.751  0.00  0.00    +0.004 A 
ATOM     17  C   UNL     1      -1.673  -3.114   1.784  0.00  0.00    +0.027 A 
BRANCH  12  18
ATOM     18  S   UNL     1      -1.937  -0.646   0.647  0.00  0.00    -0.001 S 
ATOM     19  O   UNL     1      -2.632  -0.400   1.862  0.00  0.00    -0.169 OA
ATOM     20  O   UNL     1      -2.529  -0.327  -0.604  0.00  0.00    -0.169 OA
BRANCH  18  22
ATOM     21  C   UNL     1      -0.337   1.557   0.905  0.00  0.00    +0.032 C 
ATOM     22  C   UNL     1      -0.259   0.038   0.737  0.00  0.00    +0.130 C 
ATOM     23  C   UNL     1       0.476  -0.570   1.933  0.00  0.00    +0.032 C 
ENDBRANCH  18  22
ENDBRANCH  12  18
ENDBRANCH   1  15
BRANCH   1  24
ATOM     24  C   UNL     1      -2.520  -7.321   0.671  0.00  0.00    +0.100 C 
BRANCH  24  25
ATOM     25  N   UNL     1      -3.388  -6.982  -0.465  0.00  0.00    -0.205 NA
ATOM     26  H   UNL     1      -2.987  -7.302  -1.334  0.00  0.00    +0.153 HD
BRANCH  25  27
ATOM     27  O   UNL     1      -4.733  -7.524  -0.276  0.00  0.00    -0.315 OA
ATOM     28  H   UNL     1      -5.342  -7.326  -1.001  0.00  0.00    +0.236 HD
ENDBRANCH  25  27
ENDBRANCH  24  25
ENDBRANCH   1  24
TORSDOF 8
