REMARK  Name = ZINC18200488
REMARK  3 active torsions:
REMARK  status: ('A' for Active; 'I' for Inactive)
REMARK    1  A    between atoms: C_1  and  C_2
REMARK    2  A    between atoms: C_5  and  C_7
REMARK    3  A    between atoms: C_25  and  C_28
REMARK                            x       y       z     vdW  Elec       q    Type
REMARK                         _______ _______ _______ _____ _____    ______ ____
ROOT
ATOM      1  C   UNL     1      -1.286  -0.774   0.019  0.00  0.00    +0.099 C 
ATOM      2  C   UNL     1       0.002  -0.004   0.002  0.00  0.00    +0.067 A 
ATOM      3  C   UNL     1       1.202  -0.649  -0.018  0.00  0.00    +0.113 A 
ATOM      4  N   UNL     1       2.365   0.083  -0.024  0.00  0.00    -0.295 N 
ATOM      5  H   UNL     1       3.248  -0.386  -0.037  0.00  0.00    +0.172 HD
ATOM      6  C   UNL     1       2.322   1.428  -0.014  0.00  0.00    +0.328 A 
ATOM      7  O   UNL     1       3.360   2.061  -0.019  0.00  0.00    -0.247 OA
ATOM      8  N   UNL     1       1.146   2.083   0.002  0.00  0.00    -0.275 N 
ATOM      9  H   UNL     1       1.136   3.083   0.009  0.00  0.00    +0.173 HD
ATOM     10  C   UNL     1      -0.017   1.403   0.010  0.00  0.00    +0.260 A 
ATOM     11  O   UNL     1      -1.078   2.002   0.018  0.00  0.00    -0.267 OA
ATOM     12  N   UNL     1       1.248  -2.020  -0.035  0.00  0.00    -0.303 N 
ATOM     13  C   UNL     1       0.157  -2.752  -0.419  0.00  0.00    +0.017 C 
ATOM     14  C   UNL     1      -1.075  -2.200  -0.421  0.00  0.00    +0.025 C 
ATOM     15  C   UNL     1      -2.200  -2.940  -0.829  0.00  0.00    +0.162 C 
ATOM     16  O   UNL     1      -3.296  -2.416  -0.811  0.00  0.00    -0.292 OA
ATOM     17  C   UNL     1      -2.071  -4.367  -1.287  0.00  0.00    +0.091 C 
ATOM     18  C   UNL     1      -0.676  -4.575  -1.886  0.00  0.00    +0.068 C 
ATOM     19  C   UNL     1       0.366  -4.187  -0.835  0.00  0.00    +0.063 C 
ATOM     20  H   UNL     1       2.062  -2.476   0.229  0.00  0.00    +0.153 HD
ENDROOT
BRANCH   1  25
ATOM     21  C   UNL     1      -2.549  -1.194   5.526  0.00  0.00    +0.051 C 
ATOM     22  C   UNL     1      -2.449  -0.967   4.040  0.00  0.00    -0.013 A 
ATOM     23  C   UNL     1      -3.343  -0.386   3.202  0.00  0.00    +0.011 A 
ATOM     24  C   UNL     1      -3.035  -0.284   1.859  0.00  0.00    +0.012 A 
ATOM     25  C   UNL     1      -1.847  -0.766   1.418  0.00  0.00    +0.002 A 
ATOM     26  S   UNL     1      -1.123  -1.397   2.923  0.00  0.00    -0.097 S 
ENDBRANCH   1  25
BRANCH  18  27
ATOM     27  C   UNL     1      -0.499  -6.023  -2.265  0.00  0.00    +0.109 A 
ATOM     28  C   UNL     1      -0.231  -6.486  -3.499  0.00  0.00    +0.045 A 
ATOM     29  C   UNL     1      -0.145  -7.893  -3.399  0.00  0.00    +0.041 A 
ATOM     30  C   UNL     1      -0.373  -8.207  -2.111  0.00  0.00    +0.195 A 
ATOM     31  O   UNL     1      -0.587  -7.070  -1.429  0.00  0.00    -0.468 OA
ENDBRANCH  18  27
TORSDOF 2
