REMARK  Name = ZINC50351601
REMARK  5 active torsions:
REMARK  status: ('A' for Active; 'I' for Inactive)
REMARK    1  A    between atoms: C_5  and  C_8
REMARK    2  A    between atoms: C_5  and  N_21
REMARK    3  A    between atoms: C_8  and  N_9
REMARK    4  A    between atoms: N_9  and  S_10
REMARK    5  A    between atoms: S_10  and  C_13
REMARK                            x       y       z     vdW  Elec       q    Type
REMARK                         _______ _______ _______ _____ _____    ______ ____
ROOT
ATOM      1  N   UNL     1       2.003  -1.801  -1.021  0.00  0.00    -0.196 NA
ATOM      2  H   UNL     1       1.618  -2.470  -0.434  0.00  0.00    +0.148 HD
ENDROOT
BRANCH   1   3
ATOM      3  S   UNL     1       1.967  -2.019  -2.662  0.00  0.00    +0.032 S 
ATOM      4  O   UNL     1       1.329  -3.276  -2.846  0.00  0.00    -0.158 OA
ATOM      5  O   UNL     1       1.384  -0.829  -3.174  0.00  0.00    -0.158 OA
BRANCH   3   6
ATOM      6  C   UNL     1       3.709  -2.124  -3.157  0.00  0.00    +0.151 C 
ATOM      7  C   UNL     1       3.790  -2.412  -4.653  0.00  0.00    +0.050 C 
ATOM      8  C   UNL     1       5.230  -2.238  -5.142  0.00  0.00    +0.168 C 
ATOM      9  S   UNL     1       6.285  -3.463  -4.310  0.00  0.00    -0.031 S 
ATOM     10  O   UNL     1       5.824  -4.763  -4.652  0.00  0.00    -0.174 OA
ATOM     11  O   UNL     1       7.644  -3.125  -4.549  0.00  0.00    -0.174 OA
ATOM     12  C   UNL     1       5.909  -3.159  -2.558  0.00  0.00    +0.168 C 
ATOM     13  C   UNL     1       4.393  -3.230  -2.358  0.00  0.00    +0.050 C 
ENDBRANCH   3   6
ENDBRANCH   1   3
BRANCH   1  14
ATOM     14  C   UNL     1       2.617  -0.597  -0.456  0.00  0.00    +0.092 C 
BRANCH  14  19
ATOM     15  C   UNL     1       0.676   1.981  -0.242  0.00  0.00    -0.000 C 
ATOM     16  C   UNL     1       2.197   2.211  -0.120  0.00  0.00    -0.000 C 
ATOM     17  C   UNL     1       2.587   2.066   1.326  0.00  0.00    -0.001 C 
ATOM     18  C   UNL     1       3.064   0.641   1.667  0.00  0.00    -0.012 C 
ATOM     19  C   UNL     1       2.201  -0.452   1.009  0.00  0.00    -0.057 C 
ATOM     20  C   UNL     1       0.730  -0.137   1.068  0.00  0.00    -0.012 C 
ATOM     21  C   UNL     1       0.327   0.569  -0.243  0.00  0.00    -0.001 C 
BRANCH  19  22
ATOM     22  N   UNL     1       2.442  -1.727   1.698  0.00  0.00    +0.383 N 
ATOM     23  H   UNL     1       2.193  -1.635   2.672  0.00  0.00    -0.089 HD
ATOM     24  H   UNL     1       1.880  -2.450   1.274  0.00  0.00    -0.089 HD
ATOM     25  H   UNL     1       3.418  -1.971   1.621  0.00  0.00    -0.089 HD
ENDBRANCH  19  22
ENDBRANCH  14  19
ENDBRANCH   1  14
TORSDOF 5
