REMARK  Name = ZINC50426723
REMARK  8 active torsions:
REMARK  status: ('A' for Active; 'I' for Inactive)
REMARK    1  A    between atoms: C_1  and  C_2
REMARK    2  A    between atoms: C_2  and  C_3
REMARK    3  A    between atoms: C_3  and  C_5
REMARK    4  A    between atoms: C_3  and  C_6
REMARK    5  A    between atoms: C_6  and  N_7
REMARK    6  A    between atoms: C_9  and  C_20
REMARK    7  A    between atoms: C_12  and  C_19
REMARK    8  A    between atoms: C_14  and  N_18
REMARK                            x       y       z     vdW  Elec       q    Type
REMARK                         _______ _______ _______ _____ _____    ______ ____
ROOT
ATOM      1  N   UNL     1       1.514  -2.382  -2.564  0.00  0.00    -0.269 N 
ATOM      2  C   UNL     1       0.846  -2.593  -3.771  0.00  0.00    +0.045 A 
ATOM      3  C   UNL     1      -0.500  -2.453  -4.104  0.00  0.00    -0.029 A 
ATOM      4  C   UNL     1      -0.928  -2.724  -5.387  0.00  0.00    +0.005 A 
ATOM      5  C   UNL     1      -0.028  -3.136  -6.352  0.00  0.00    +0.004 A 
ATOM      6  C   UNL     1       1.310  -3.277  -6.029  0.00  0.00    -0.044 A 
ATOM      7  C   UNL     1       1.740  -3.007  -4.750  0.00  0.00    +0.003 A 
ATOM      8  C   UNL     1       3.099  -3.061  -4.089  0.00  0.00    +0.171 C 
ATOM      9  C   UNL     1       2.831  -2.628  -2.663  0.00  0.00    +0.241 C 
ATOM     10  O   UNL     1       3.652  -2.523  -1.776  0.00  0.00    -0.273 OA
ATOM     11  C   UNL     1       2.296  -3.726  -7.077  0.00  0.00    +0.044 C 
ATOM     12  C   UNL     1      -1.490  -2.005  -3.060  0.00  0.00    +0.045 C 
ENDROOT
BRANCH   8  13
ATOM     13  N   UNL     1       3.636  -4.428  -4.126  0.00  0.00    -0.316 NA
ATOM     14  H   UNL     1       4.543  -4.472  -3.687  0.00  0.00    +0.119 HD
ATOM     15  H   UNL     1       2.995  -5.080  -3.700  0.00  0.00    +0.119 HD
ENDBRANCH   8  13
BRANCH   1  16
ATOM     16  C   UNL     1       0.855  -1.939  -1.333  0.00  0.00    +0.117 C 
BRANCH  16  17
ATOM     17  C   UNL     1       0.339  -3.157  -0.564  0.00  0.00    +0.003 C 
ATOM     18  C   UNL     1       1.522  -4.025  -0.129  0.00  0.00    +0.009 C 
BRANCH  17  20
ATOM     19  C   UNL     1      -1.055  -3.900   1.372  0.00  0.00    +0.004 C 
ATOM     20  C   UNL     1      -0.433  -2.690   0.671  0.00  0.00    +0.001 C 
ENDBRANCH  17  20
ENDBRANCH  16  17
ENDBRANCH   1  16
TORSDOF 4
