REMARK  Name = ZINC04140488
REMARK  4 active torsions:
REMARK  status: ('A' for Active; 'I' for Inactive)
REMARK    1  A    between atoms: C_1  and  O_2
REMARK    2  A    between atoms: O_2  and  C_3
REMARK    3  A    between atoms: C_3  and  C_5
REMARK    4  A    between atoms: C_8  and  C_11
REMARK                            x       y       z     vdW  Elec       q    Type
REMARK                         _______ _______ _______ _____ _____    ______ ____
ROOT
ATOM      1  C   UNL     1       1.136   6.060  -0.005  0.00  0.00    +0.105 C 
ATOM      2  C   UNL     1       2.239   5.456  -0.856  0.00  0.00    +0.029 C 
ATOM      3  C   UNL     1       3.592   6.178  -0.864  0.00  0.00    +0.033 C 
ATOM      4  C   UNL     1       4.558   5.019  -1.119  0.00  0.00    -0.030 C 
ATOM      5  C   UNL     1       4.024   3.881  -0.692  0.00  0.00    -0.023 C 
ATOM      6  C   UNL     1       2.696   4.175  -0.096  0.00  0.00    +0.049 C 
ATOM      7  C   UNL     1       1.585   3.200  -0.142  0.00  0.00    -0.019 A 
ATOM      8  C   UNL     1       1.796   1.840  -0.220  0.00  0.00    +0.006 A 
ATOM      9  C   UNL     1       0.725   0.967  -0.229  0.00  0.00    +0.000 A 
ATOM     10  C   UNL     1      -0.567   1.457  -0.164  0.00  0.00    +0.002 A 
ATOM     11  C   UNL     1      -0.789   2.816  -0.087  0.00  0.00    +0.023 A 
ATOM     12  C   UNL     1       0.281   3.703  -0.084  0.00  0.00    +0.031 A 
ATOM     13  N   UNL     1       0.029   5.080  -0.032  0.00  0.00    -0.336 N 
ATOM     14  H   UNL     1      -0.888   5.396  -0.013  0.00  0.00    +0.147 HD
ENDROOT
BRANCH   1  18
ATOM     15  C   UNL     1       2.508   6.629   4.006  0.00  0.00    +0.059 A 
ATOM     16  C   UNL     1       2.670   7.642   3.059  0.00  0.00    +0.015 A 
ATOM     17  C   UNL     1       2.226   7.452   1.767  0.00  0.00    +0.006 A 
ATOM     18  C   UNL     1       1.620   6.261   1.408  0.00  0.00    -0.027 A 
ATOM     19  C   UNL     1       1.451   5.254   2.343  0.00  0.00    +0.006 A 
ATOM     20  C   UNL     1       1.896   5.429   3.637  0.00  0.00    +0.015 A 
BRANCH  15  21
ATOM     21  C   UNL     1       2.981   6.826   5.391  0.00  0.00    +0.339 C 
ATOM     22  O   UNL     1       3.512   7.871   5.709  0.00  0.00    -0.245 OA
BRANCH  21  24
ATOM     23  C   UNL     1       3.311   6.109   7.644  0.00  0.00    +0.280 C 
ATOM     24  O   UNL     1       2.822   5.846   6.303  0.00  0.00    -0.464 OA
ENDBRANCH  21  24
ENDBRANCH  15  21
ENDBRANCH   1  18
TORSDOF 3
