REMARK  Name = ZINC12714613
REMARK  11 active torsions:
REMARK  status: ('A' for Active; 'I' for Inactive)
REMARK    1  A    between atoms: C_1  and  C_2
REMARK    2  A    between atoms: C_5  and  C_7
REMARK    3  A    between atoms: C_7  and  C_9
REMARK    4  A    between atoms: C_7  and  N_17
REMARK    5  A    between atoms: N_11  and  C_12
REMARK    6  A    between atoms: N_17  and  C_18
REMARK    7  A    between atoms: C_20  and  C_25
REMARK    8  A    between atoms: C_22  and  C_24
REMARK    9  A    between atoms: C_26  and  C_28
REMARK   10  A    between atoms: C_29  and  N_36
REMARK   11  A    between atoms: C_30  and  C_33
REMARK                            x       y       z     vdW  Elec       q    Type
REMARK                         _______ _______ _______ _____ _____    ______ ____
ROOT
ATOM      1  N   UNL     1       0.800  -2.919   0.810  0.00  0.00    -0.248 N 
ATOM      2  C   UNL     1       1.047  -2.659   2.109  0.00  0.00    +0.262 C 
ATOM      3  O   UNL     1       2.182  -2.414   2.476  0.00  0.00    -0.269 OA
ENDROOT
BRANCH   1   4
ATOM      4  C   UNL     1      -0.455  -3.396   0.418  0.00  0.00    +0.038 A 
ATOM      5  C   UNL     1      -1.453  -2.505   0.046  0.00  0.00    +0.027 A 
ATOM      6  C   UNL     1      -2.690  -2.980  -0.344  0.00  0.00    -0.048 A 
ATOM      7  C   UNL     1      -2.938  -4.340  -0.355  0.00  0.00    +0.006 A 
ATOM      8  C   UNL     1      -1.948  -5.230   0.020  0.00  0.00    -0.048 A 
ATOM      9  C   UNL     1      -0.707  -4.762   0.406  0.00  0.00    +0.027 A 
ATOM     10  C   UNL     1      -2.223  -6.712   0.006  0.00  0.00    +0.044 C 
ATOM     11  C   UNL     1      -3.772  -2.014  -0.754  0.00  0.00    +0.044 C 
ENDBRANCH   1   4
BRANCH   2  12
ATOM     12  C   UNL     1      -0.050  -2.671   3.079  0.00  0.00    +0.116 A 
ATOM     13  C   UNL     1      -0.002  -2.557   4.470  0.00  0.00    +0.076 A 
ATOM     14  C   UNL     1      -1.268  -2.613   5.053  0.00  0.00    +0.155 A 
ATOM     15  N   UNL     1      -2.325  -2.759   4.285  0.00  0.00    -0.203 NA
ATOM     16  S   UNL     1      -1.802  -2.826   2.800  0.00  0.00    +0.019 S 
BRANCH  14  17
ATOM     17  C   UNL     1      -1.418  -2.510   6.516  0.00  0.00    +0.262 C 
ATOM     18  O   UNL     1      -0.436  -2.376   7.221  0.00  0.00    -0.269 OA
ATOM     19  N   UNL     1      -2.644  -2.565   7.073  0.00  0.00    -0.324 N 
ATOM     20  H   UNL     1      -3.428  -2.672   6.511  0.00  0.00    +0.145 HD
ATOM     21  H   UNL     1      -2.744  -2.497   8.036  0.00  0.00    +0.145 HD
ENDBRANCH  14  17
BRANCH  13  22
ATOM     22  N   UNL     1       1.174  -2.406   5.191  0.00  0.00    -0.355 N 
ATOM     23  H   UNL     1       2.026  -2.374   4.729  0.00  0.00    +0.142 HD
ATOM     24  H   UNL     1       1.144  -2.332   6.158  0.00  0.00    +0.142 HD
ENDBRANCH  13  22
ENDBRANCH   2  12
BRANCH   1  25
ATOM     25  C   UNL     1       1.847  -2.702  -0.193  0.00  0.00    +0.233 C 
BRANCH  25  30
ATOM     26  C   UNL     1      -0.887   0.161  -3.318  0.00  0.00    +0.086 C 
ATOM     27  C   UNL     1       0.253  -0.327  -2.462  0.00  0.00    +0.102 A 
ATOM     28  C   UNL     1       1.435   0.293  -2.299  0.00  0.00    +0.045 A 
ATOM     29  C   UNL     1       2.202  -0.510  -1.424  0.00  0.00    +0.047 A 
ATOM     30  C   UNL     1       1.442  -1.573  -1.104  0.00  0.00    +0.135 A 
ATOM     31  O   UNL     1       0.263  -1.456  -1.736  0.00  0.00    -0.462 OA
ENDBRANCH  25  30
BRANCH  25  32
ATOM     32  C   UNL     1       2.034  -3.959  -1.003  0.00  0.00    +0.242 C 
ATOM     33  O   UNL     1       1.361  -4.939  -0.766  0.00  0.00    -0.273 OA
ATOM     34  N   UNL     1       2.951  -3.993  -1.990  0.00  0.00    -0.311 N 
ATOM     35  H   UNL     1       3.490  -3.209  -2.179  0.00  0.00    +0.149 HD
BRANCH  34  36
ATOM     36  C   UNL     1       3.134  -5.215  -2.778  0.00  0.00    +0.073 C 
ATOM     37  C   UNL     1       4.160  -6.139  -2.089  0.00  0.00    +0.022 C 
ATOM     38  C   UNL     1       4.950  -6.770  -3.262  0.00  0.00    +0.002 C 
ATOM     39  C   UNL     1       5.071  -5.595  -4.264  0.00  0.00    +0.002 C 
ATOM     40  C   UNL     1       3.713  -4.869  -4.160  0.00  0.00    +0.022 C 
ENDBRANCH  34  36
ENDBRANCH  25  32
ENDBRANCH   1  25
TORSDOF 8
