REMARK  Name = ZINC60385438
REMARK  10 active torsions:
REMARK  status: ('A' for Active; 'I' for Inactive)
REMARK    1  A    between atoms: C_1  and  C_2
REMARK    2  A    between atoms: C_4  and  C_26
REMARK    3  A    between atoms: C_5  and  C_9
REMARK    4  A    between atoms: C_6  and  C_8
REMARK    5  A    between atoms: C_9  and  O_11
REMARK    6  A    between atoms: O_11  and  C_12
REMARK    7  A    between atoms: C_12  and  C_14
REMARK    8  A    between atoms: C_12  and  C_15
REMARK    9  A    between atoms: N_17  and  C_18
REMARK   10  A    between atoms: C_18  and  C_24
REMARK                            x       y       z     vdW  Elec       q    Type
REMARK                         _______ _______ _______ _____ _____    ______ ____
ROOT
ATOM      1  C   UNL     1      -1.005  -6.365  -0.028  0.00  0.00    +0.259 C 
ATOM      2  C   UNL     1      -0.979  -6.866  -1.473  0.00  0.00    +0.062 C 
ENDROOT
BRANCH   1   3
ATOM      3  C   UNL     1      -2.196  -6.951   0.686  0.00  0.00    +0.255 C 
ATOM      4  O   UNL     1      -3.087  -6.226   1.075  0.00  0.00    -0.272 OA
ATOM      5  N   UNL     1      -2.272  -8.281   0.891  0.00  0.00    -0.294 N 
ATOM      6  H   UNL     1      -1.560  -8.861   0.579  0.00  0.00    +0.150 HD
BRANCH   5   7
ATOM      7  C   UNL     1      -3.430  -8.850   1.584  0.00  0.00    +0.121 C 
ATOM      8  C   UNL     1      -3.527  -8.253   2.990  0.00  0.00    +0.041 C 
ATOM      9  C   UNL     1      -4.737  -8.848   3.713  0.00  0.00    +0.003 C 
ATOM     10  C   UNL     1      -4.575 -10.366   3.814  0.00  0.00    +0.000 C 
ATOM     11  C   UNL     1      -4.478 -10.963   2.409  0.00  0.00    +0.003 C 
ATOM     12  C   UNL     1      -3.268 -10.368   1.685  0.00  0.00    +0.041 C 
BRANCH   7  13
ATOM     13  C   UNL     1      -4.655  -8.536   0.832  0.00  0.00    +0.088 C 
ATOM     14  N   UNL     1      -5.601  -8.294   0.251  0.00  0.00    -0.194 NA
ENDBRANCH   7  13
ENDBRANCH   5   7
ENDBRANCH   1   3
BRANCH   1  15
ATOM     15  O   UNL     1      -1.098  -4.939  -0.019  0.00  0.00    -0.449 OA
BRANCH  15  16
ATOM     16  C   UNL     1       0.059  -4.250  -0.021  0.00  0.00    +0.340 C 
ATOM     17  O   UNL     1       1.119  -4.844  -0.030  0.00  0.00    -0.245 OA
BRANCH  16  22
ATOM     18  C   UNL     1      -0.018   1.503   0.010  0.00  0.00    +0.044 C 
ATOM     19  C   UNL     1       0.002  -0.004   0.002  0.00  0.00    -0.050 A 
ATOM     20  C   UNL     1       0.006  -0.686  -1.202  0.00  0.00    +0.007 A 
ATOM     21  C   UNL     1       0.024  -2.065  -1.217  0.00  0.00    -0.036 A 
ATOM     22  C   UNL     1       0.040  -2.773  -0.013  0.00  0.00    +0.065 A 
ATOM     23  C   UNL     1       0.036  -2.079   1.198  0.00  0.00    -0.036 A 
ATOM     24  C   UNL     1       0.023  -0.699   1.198  0.00  0.00    +0.007 A 
ATOM     25  C   UNL     1       0.052  -2.834   2.502  0.00  0.00    +0.044 C 
ATOM     26  C   UNL     1       0.028  -2.807  -2.529  0.00  0.00    +0.044 C 
ENDBRANCH  16  22
ENDBRANCH  15  16
ENDBRANCH   1  15
TORSDOF 6
