REMARK  Name = ZINC67564475
REMARK  12 active torsions:
REMARK  status: ('A' for Active; 'I' for Inactive)
REMARK    1  A    between atoms: C_1  and  C_2
REMARK    2  A    between atoms: C_6  and  C_29
REMARK    3  A    between atoms: C_7  and  O_8
REMARK    4  A    between atoms: O_8  and  C_9
REMARK    5  A    between atoms: C_9  and  C_10
REMARK    6  A    between atoms: C_10  and  C_12
REMARK    7  A    between atoms: C_10  and  O_28
REMARK    8  A    between atoms: C_12  and  N_13
REMARK    9  A    between atoms: N_16  and  C_17
REMARK   10  A    between atoms: C_19  and  C_24
REMARK   11  A    between atoms: C_22  and  C_23
REMARK   12  A    between atoms: N_26  and  C_27
REMARK                            x       y       z     vdW  Elec       q    Type
REMARK                         _______ _______ _______ _____ _____    ______ ____
ROOT
ATOM      1  N   UNL     1      -2.204   1.972   6.206  0.00  0.00    -0.297 N 
ATOM      2  C   UNL     1      -3.264   2.264   6.986  0.00  0.00    +0.304 C 
ATOM      3  O   UNL     1      -4.382   1.932   6.641  0.00  0.00    -0.253 OA
ATOM      4  N   UNL     1      -3.085   2.923   8.147  0.00  0.00    -0.269 N 
ATOM      5  H   UNL     1      -1.312   2.237   6.481  0.00  0.00    +0.150 HD
ATOM      6  H   UNL     1      -2.188   3.116   8.462  0.00  0.00    +0.156 HD
ENDROOT
BRANCH   4   7
ATOM      7  C   UNL     1      -4.193   3.330   8.899  0.00  0.00    +0.038 A 
ATOM      8  C   UNL     1      -5.415   3.537   8.277  0.00  0.00    +0.036 A 
ATOM      9  C   UNL     1      -6.516   3.942   9.031  0.00  0.00    +0.038 A 
ATOM     10  C   UNL     1      -6.381   4.135  10.407  0.00  0.00    +0.013 A 
ATOM     11  C   UNL     1      -5.161   3.926  11.017  0.00  0.00    +0.006 A 
ATOM     12  C   UNL     1      -4.070   3.520  10.270  0.00  0.00    -0.029 A 
ATOM     13  C   UNL     1      -2.743   3.288  10.945  0.00  0.00    +0.045 C 
BRANCH   9  14
ATOM     14  C   UNL     1      -7.822   4.165   8.375  0.00  0.00    +0.244 C 
ATOM     15  O   UNL     1      -7.937   3.997   7.177  0.00  0.00    -0.270 OA
ATOM     16  N   UNL     1      -8.885   4.556   9.106  0.00  0.00    -0.314 N 
ATOM     17  C   UNL     1     -10.179   4.778   8.456  0.00  0.00    +0.128 C 
ATOM     18  H   UNL     1      -8.793   4.691  10.062  0.00  0.00    +0.149 HD
ENDBRANCH   9  14
ENDBRANCH   4   7
BRANCH   1  19
ATOM     19  C   UNL     1      -2.399   1.255   4.943  0.00  0.00    +0.140 C 
BRANCH  19  20
ATOM     20  C   UNL     1      -1.046   1.053   4.258  0.00  0.00    +0.169 C 
BRANCH  20  21
ATOM     21  O   UNL     1      -0.449   2.325   3.997  0.00  0.00    -0.387 OA
ATOM     22  H   UNL     1      -0.977   2.896   3.422  0.00  0.00    +0.210 HD
ENDBRANCH  20  21
BRANCH  20  23
ATOM     23  C   UNL     1      -1.249   0.304   2.939  0.00  0.00    +0.261 C 
BRANCH  23  24
ATOM     24  O   UNL     1       0.022   0.013   2.356  0.00  0.00    -0.489 OA
BRANCH  24  31
ATOM     25  C   UNL     1      -0.044   1.557  -0.009  0.00  0.00    +0.047 C 
ATOM     26  C   UNL     1      -0.012   0.050  -0.023  0.00  0.00    -0.009 A 
ATOM     27  C   UNL     1      -0.008  -0.630  -1.225  0.00  0.00    +0.007 A 
ATOM     28  C   UNL     1       0.021  -2.012  -1.238  0.00  0.00    +0.001 A 
ATOM     29  C   UNL     1       0.047  -2.717  -0.049  0.00  0.00    +0.007 A 
ATOM     30  C   UNL     1       0.043  -2.042   1.156  0.00  0.00    -0.009 A 
ATOM     31  C   UNL     1       0.020  -0.654   1.172  0.00  0.00    +0.126 A 
ATOM     32  C   UNL     1       0.072  -2.811   2.451  0.00  0.00    +0.047 C 
ENDBRANCH  24  31
ENDBRANCH  23  24
ENDBRANCH  20  23
ENDBRANCH  19  20
ENDBRANCH   1  19
TORSDOF 8
