REMARK  Name = ZINC50439801
REMARK  8 active torsions:
REMARK  status: ('A' for Active; 'I' for Inactive)
REMARK    1  A    between atoms: C_1  and  C_2
REMARK    2  A    between atoms: C_4  and  N_12
REMARK    3  A    between atoms: C_5  and  N_9
REMARK    4  A    between atoms: C_7  and  C_8
REMARK    5  A    between atoms: C_13  and  C_15
REMARK    6  A    between atoms: C_15  and  C_17
REMARK    7  A    between atoms: C_15  and  N_21
REMARK    8  A    between atoms: C_17  and  C_18
REMARK                            x       y       z     vdW  Elec       q    Type
REMARK                         _______ _______ _______ _____ _____    ______ ____
ROOT
ATOM      1  N   UNL     1       0.032  -2.758  -2.362  0.00  0.00    -0.285 N 
ATOM      2  C   UNL     1      -0.643  -2.258  -3.416  0.00  0.00    +0.203 C 
ATOM      3  O   UNL     1      -1.169  -1.168  -3.337  0.00  0.00    -0.277 OA
ATOM      4  H   UNL     1       0.507  -3.600  -2.445  0.00  0.00    +0.155 HD
ENDROOT
BRANCH   1   8
ATOM      5  C   UNL     1       0.102   1.515   0.069  0.00  0.00    +0.044 C 
ATOM      6  C   UNL     1       0.082   0.008   0.061  0.00  0.00    -0.046 A 
ATOM      7  C   UNL     1       0.067  -0.675  -1.140  0.00  0.00    +0.029 A 
ATOM      8  C   UNL     1       0.048  -2.063  -1.147  0.00  0.00    +0.064 A 
ATOM      9  C   UNL     1       0.044  -2.761   0.054  0.00  0.00    +0.148 A 
ATOM     10  C   UNL     1       0.060  -2.072   1.251  0.00  0.00    +0.038 A 
ATOM     11  C   UNL     1       0.084  -0.690   1.254  0.00  0.00    -0.045 A 
ATOM     12  C   UNL     1       0.106   0.059   2.562  0.00  0.00    +0.044 C 
BRANCH   9  13
ATOM     13  N   UNL     1       0.024  -4.241   0.051  0.00  0.00    +0.058 N 
ATOM     14  O   UNL     1      -0.068  -4.846   1.093  0.00  0.00    -0.126 OA
ATOM     15  O   UNL     1       0.100  -4.845  -0.994  0.00  0.00    -0.126 OA
ENDBRANCH   9  13
ENDBRANCH   1   8
BRANCH   2  16
ATOM     16  C   UNL     1      -0.744  -3.053  -4.692  0.00  0.00    +0.022 C 
BRANCH  16  17
ATOM     17  N   UNL     1      -1.877  -2.560  -5.487  0.00  0.00    +0.386 N 
ATOM     18  H   UNL     1      -2.729  -2.663  -4.958  0.00  0.00    -0.089 HD
ATOM     19  H   UNL     1      -1.734  -1.586  -5.708  0.00  0.00    -0.089 HD
ATOM     20  H   UNL     1      -1.944  -3.092  -6.341  0.00  0.00    -0.089 HD
ENDBRANCH  16  17
BRANCH  16  21
ATOM     21  C   UNL     1       0.549  -2.896  -5.494  0.00  0.00    +0.088 C 
BRANCH  21  22
ATOM     22  C   UNL     1       0.497  -3.787  -6.709  0.00  0.00    +0.209 C 
ATOM     23  O   UNL     1      -0.478  -4.479  -6.913  0.00  0.00    -0.276 OA
ATOM     24  N   UNL     1       1.535  -3.814  -7.569  0.00  0.00    -0.329 N 
ATOM     25  H   UNL     1       2.315  -3.261  -7.406  0.00  0.00    +0.145 HD
ATOM     26  H   UNL     1       1.502  -4.388  -8.351  0.00  0.00    +0.145 HD
ENDBRANCH  21  22
ENDBRANCH  16  21
ENDBRANCH   2  16
TORSDOF 6
