REMARK  Name = ZINC54893732
REMARK  11 active torsions:
REMARK  status: ('A' for Active; 'I' for Inactive)
REMARK    1  A    between atoms: C_1  and  C_2
REMARK    2  A    between atoms: C_2  and  C_4
REMARK    3  A    between atoms: C_2  and  N_16
REMARK    4  A    between atoms: C_7  and  O_12
REMARK    5  A    between atoms: C_8  and  O_10
REMARK    6  A    between atoms: O_10  and  C_11
REMARK    7  A    between atoms: O_12  and  C_13
REMARK    8  A    between atoms: C_13  and  C_14
REMARK    9  A    between atoms: C_14  and  O_15
REMARK   10  A    between atoms: C_17  and  C_18
REMARK   11  A    between atoms: C_23  and  O_24
REMARK                            x       y       z     vdW  Elec       q    Type
REMARK                         _______ _______ _______ _____ _____    ______ ____
ROOT
ATOM      1  C   UNL     1      -0.006   1.516  -0.003  0.00  0.00    +0.035 C 
ATOM      2  C   UNL     1       0.004  -0.014  -0.004  0.00  0.00    +0.106 C 
ENDROOT
BRANCH   2   3
ATOM      3  C   UNL     1       0.701  -0.511  -1.244  0.00  0.00    -0.022 A 
ATOM      4  C   UNL     1       2.082  -0.541  -1.293  0.00  0.00    +0.009 A 
ATOM      5  C   UNL     1       2.727  -0.997  -2.428  0.00  0.00    +0.050 A 
ATOM      6  C   UNL     1       1.988  -1.425  -3.520  0.00  0.00    +0.162 A 
ATOM      7  C   UNL     1       0.597  -1.394  -3.470  0.00  0.00    +0.162 A 
ATOM      8  C   UNL     1      -0.042  -0.941  -2.327  0.00  0.00    +0.055 A 
BRANCH   7   9
ATOM      9  O   UNL     1      -0.132  -1.813  -4.539  0.00  0.00    -0.491 OA
ATOM     10  C   UNL     1      -1.555  -1.754  -4.416  0.00  0.00    +0.277 C 
ENDBRANCH   7   9
BRANCH   6  11
ATOM     11  O   UNL     1       2.620  -1.872  -4.637  0.00  0.00    -0.486 OA
BRANCH  11  12
ATOM     12  C   UNL     1       4.049  -1.875  -4.618  0.00  0.00    +0.257 C 
BRANCH  12  13
ATOM     13  C   UNL     1       4.577  -2.408  -5.951  0.00  0.00    +0.196 C 
BRANCH  13  14
ATOM     14  O   UNL     1       4.215  -1.508  -7.000  0.00  0.00    -0.392 OA
ATOM     15  H   UNL     1       4.517  -1.783  -7.877  0.00  0.00    +0.210 HD
ENDBRANCH  13  14
ENDBRANCH  12  13
ENDBRANCH  11  12
ENDBRANCH   6  11
ENDBRANCH   2   3
BRANCH   2  16
ATOM     16  N   UNL     1       0.713  -0.498   1.183  0.00  0.00    -0.383 N 
ATOM     17  C   UNL     1       0.100  -1.246   2.043  0.00  0.00    +0.090 C 
ATOM     18  H   UNL     1       1.642  -0.258   1.324  0.00  0.00    +0.160 HD
BRANCH  17  19
ATOM     19  C   UNL     1       0.842  -1.825   3.178  0.00  0.00    +0.033 A 
ATOM     20  C   UNL     1       0.213  -2.725   4.042  0.00  0.00    +0.033 A 
ATOM     21  C   UNL     1       0.913  -3.263   5.102  0.00  0.00    +0.042 A 
ATOM     22  C   UNL     1       2.238  -2.913   5.313  0.00  0.00    +0.023 A 
ATOM     23  C   UNL     1       2.870  -2.024   4.466  0.00  0.00    +0.047 A 
ATOM     24  C   UNL     1       2.183  -1.479   3.393  0.00  0.00    +0.125 A 
ATOM     25 CL   UNL     1       0.132  -4.381   6.175  0.00  0.00    -0.084 Cl
BRANCH  24  26
ATOM     26  O   UNL     1       2.804  -0.609   2.556  0.00  0.00    -0.506 OA
ATOM     27  H   UNL     1       2.729   0.317   2.825  0.00  0.00    +0.292 HD
ENDBRANCH  24  26
ENDBRANCH  17  19
ENDBRANCH   2  16
TORSDOF 9
