REMARK  Name = ZINC02204865
REMARK  10 active torsions:
REMARK  status: ('A' for Active; 'I' for Inactive)
REMARK    1  A    between atoms: C_1  and  C_2
REMARK    2  A    between atoms: C_2  and  C_3
REMARK    3  A    between atoms: C_3  and  C_4
REMARK    4  A    between atoms: C_4  and  C_5
REMARK    5  A    between atoms: C_8  and  N_11
REMARK    6  A    between atoms: N_11  and  C_12
REMARK    7  A    between atoms: C_17  and  O_25
REMARK    8  A    between atoms: C_18  and  O_23
REMARK    9  A    between atoms: O_23  and  C_24
REMARK   10  A    between atoms: O_25  and  C_26
REMARK                            x       y       z     vdW  Elec       q    Type
REMARK                         _______ _______ _______ _____ _____    ______ ____
ROOT
ATOM      1  C   UNL     1      -3.277   5.387   0.356  0.00  0.00    +0.296 C 
ATOM      2  C   UNL     1      -1.988   4.962   1.012  0.00  0.00    +0.029 A 
ATOM      3  C   UNL     1      -1.001   5.644   1.681  0.00  0.00    +0.013 A 
ATOM      4  C   UNL     1       0.096   4.964   2.187  0.00  0.00    +0.050 A 
ATOM      5  C   UNL     1       0.203   3.593   2.026  0.00  0.00    +0.162 A 
ATOM      6  C   UNL     1      -0.787   2.890   1.346  0.00  0.00    +0.176 A 
ATOM      7  C   UNL     1      -1.896   3.576   0.835  0.00  0.00    +0.112 A 
ATOM      8  C   UNL     1      -3.084   3.132   0.091  0.00  0.00    +0.345 C 
ATOM      9  O   UNL     1      -3.314   1.982  -0.229  0.00  0.00    -0.245 OA
ATOM     10  O   UNL     1      -3.880   4.179  -0.184  0.00  0.00    -0.435 OA
ENDROOT
BRANCH   1  11
ATOM     11  N   UNL     1      -4.170   5.995   1.346  0.00  0.00    -0.306 N 
ATOM     12  H   UNL     1      -4.182   5.661   2.257  0.00  0.00    +0.150 HD
BRANCH  11  16
ATOM     13  C   UNL     1      -6.651   9.154   0.252  0.00  0.00    -0.047 A 
ATOM     14  C   UNL     1      -6.670   8.680   1.550  0.00  0.00    +0.005 A 
ATOM     15  C   UNL     1      -5.848   7.632   1.917  0.00  0.00    +0.023 A 
ATOM     16  C   UNL     1      -5.002   7.054   0.979  0.00  0.00    +0.030 A 
ATOM     17  C   UNL     1      -4.981   7.537  -0.323  0.00  0.00    +0.023 A 
ATOM     18  C   UNL     1      -5.809   8.582  -0.684  0.00  0.00    +0.005 A 
BRANCH  13  19
ATOM     19  C   UNL     1      -7.549  10.298  -0.144  0.00  0.00    +0.035 C 
BRANCH  19  20
ATOM     20  C   UNL     1      -6.817  11.623   0.080  0.00  0.00    +0.004 C 
BRANCH  20  22
ATOM     21  C   UNL     1      -6.997  14.108  -0.098  0.00  0.00    +0.004 C 
ATOM     22  C   UNL     1      -7.729  12.783  -0.323  0.00  0.00    -0.003 C 
ENDBRANCH  20  22
ENDBRANCH  19  20
ENDBRANCH  13  19
ENDBRANCH  11  16
ENDBRANCH   1  11
BRANCH   6  23
ATOM     23  O   UNL     1      -0.682   1.547   1.184  0.00  0.00    -0.491 OA
ATOM     24  C   UNL     1      -0.013   1.086   0.008  0.00  0.00    +0.277 C 
ENDBRANCH   6  23
BRANCH   5  25
ATOM     25  O   UNL     1       1.280   2.932   2.530  0.00  0.00    -0.491 OA
ATOM     26  C   UNL     1       2.258   3.715   3.216  0.00  0.00    +0.277 C 
ENDBRANCH   5  25
TORSDOF 7
