REMARK  Name = ZINC07524720
REMARK  11 active torsions:
REMARK  status: ('A' for Active; 'I' for Inactive)
REMARK    1  A    between atoms: C_1  and  C_2
REMARK    2  A    between atoms: C_2  and  C_3
REMARK    3  A    between atoms: C_9  and  C_13
REMARK    4  A    between atoms: C_13  and  N_14
REMARK    5  A    between atoms: N_14  and  C_15
REMARK    6  A    between atoms: N_14  and  C_16
REMARK    7  A    between atoms: C_16  and  C_17
REMARK    8  A    between atoms: N_19  and  C_20
REMARK    9  A    between atoms: C_21  and  C_28
REMARK   10  A    between atoms: C_23  and  C_27
REMARK   11  A    between atoms: C_25  and  C_26
REMARK                            x       y       z     vdW  Elec       q    Type
REMARK                         _______ _______ _______ _____ _____    ______ ____
ROOT
ATOM      1  N   UNL     1       3.561  -4.423   6.923  0.00  0.00    +0.387 N 
ATOM      2  C   UNL     1       3.993  -5.760   6.493  0.00  0.00    -0.095 C 
ATOM      3  H   UNL     1       2.611  -4.264   6.623  0.00  0.00    -0.081 HD
ENDROOT
BRANCH   1   4
ATOM      4  C   UNL     1       4.441  -3.409   6.327  0.00  0.00    -0.022 C 
BRANCH   4  11
ATOM      5  C   UNL     1       4.298  -4.758   0.152  0.00  0.00    +0.102 A 
ATOM      6  N   UNL     1       3.906  -3.653   0.709  0.00  0.00    -0.159 NA
ATOM      7  N   UNL     1       3.982  -3.461   2.085  0.00  0.00    -0.171 N 
ATOM      8  C   UNL     1       3.604  -2.353   2.787  0.00  0.00    +0.275 A 
ATOM      9  O   UNL     1       3.139  -1.387   2.201  0.00  0.00    -0.266 OA
ATOM     10  C   UNL     1       3.750  -2.325   4.174  0.00  0.00    +0.093 A 
ATOM     11  C   UNL     1       4.275  -3.419   4.829  0.00  0.00    +0.033 A 
ATOM     12  N   UNL     1       4.633  -4.483   4.115  0.00  0.00    -0.228 NA
ATOM     13  C   UNL     1       4.493  -4.501   2.814  0.00  0.00    +0.199 A 
ATOM     14  S   UNL     1       4.843  -5.713   1.559  0.00  0.00    -0.033 S 
BRANCH   5  16
ATOM     15  C   UNL     1       3.727  -3.982  -2.132  0.00  0.00    +0.011 C 
ATOM     16  C   UNL     1       4.290  -5.140  -1.306  0.00  0.00    +0.061 C 
ENDBRANCH   5  16
ENDBRANCH   4  11
ENDBRANCH   1   4
BRANCH   1  17
ATOM     17  C   UNL     1       3.633  -4.334   8.388  0.00  0.00    +0.019 C 
BRANCH  17  18
ATOM     18  C   UNL     1       2.641  -5.289   8.999  0.00  0.00    +0.201 C 
ATOM     19  O   UNL     1       1.943  -5.977   8.285  0.00  0.00    -0.278 OA
ATOM     20  N   UNL     1       2.529  -5.379  10.339  0.00  0.00    -0.287 N 
ATOM     21  H   UNL     1       3.137  -4.884  10.911  0.00  0.00    +0.155 HD
BRANCH  20  22
ATOM     22  C   UNL     1       1.537  -6.186  10.906  0.00  0.00    +0.039 A 
ATOM     23  C   UNL     1       1.879  -7.162  11.833  0.00  0.00    -0.029 A 
ATOM     24  C   UNL     1       0.898  -7.958  12.391  0.00  0.00    +0.008 A 
ATOM     25  C   UNL     1      -0.425  -7.783  12.027  0.00  0.00    -0.050 A 
ATOM     26  C   UNL     1      -0.769  -6.812  11.104  0.00  0.00    +0.008 A 
ATOM     27  C   UNL     1       0.207  -6.010  10.548  0.00  0.00    -0.029 A 
ATOM     28  C   UNL     1      -0.170  -4.947   9.547  0.00  0.00    +0.045 C 
ATOM     29  C   UNL     1      -1.494  -8.653  12.638  0.00  0.00    +0.044 C 
ATOM     30  C   UNL     1       3.321  -7.354  12.229  0.00  0.00    +0.045 C 
ENDBRANCH  20  22
ENDBRANCH  17  18
ENDBRANCH   1  17
TORSDOF 6
