REMARK  Name = ZINC20412271
REMARK  8 active torsions:
REMARK  status: ('A' for Active; 'I' for Inactive)
REMARK    1  A    between atoms: C_1  and  O_2
REMARK    2  A    between atoms: O_2  and  C_3
REMARK    3  A    between atoms: C_6  and  C_11
REMARK    4  A    between atoms: C_8  and  O_9
REMARK    5  A    between atoms: O_9  and  C_10
REMARK    6  A    between atoms: C_11  and  C_12
REMARK    7  A    between atoms: C_12  and  N_13
REMARK    8  A    between atoms: C_16  and  C_23
REMARK                            x       y       z     vdW  Elec       q    Type
REMARK                         _______ _______ _______ _____ _____    ______ ____
ROOT
ATOM      1  N   UNL     1      -0.296   7.258  -2.540  0.00  0.00    -0.260 N 
ATOM      2  C   UNL     1      -0.409   8.591  -2.377  0.00  0.00    +0.262 A 
ATOM      3  O   UNL     1      -0.973   9.044  -1.396  0.00  0.00    -0.267 OA
ATOM      4  C   UNL     1       0.134   9.456  -3.344  0.00  0.00    +0.073 A 
ATOM      5  C   UNL     1       0.755   8.925  -4.435  0.00  0.00    +0.260 A 
ATOM      6  N   UNL     1       0.842   7.562  -4.564  0.00  0.00    -0.275 N 
ATOM      7  H   UNL     1       1.341   7.124  -5.442  0.00  0.00    +0.173 HD
ATOM      8  C   UNL     1       0.321   6.753  -3.624  0.00  0.00    +0.332 A 
ATOM      9  O   UNL     1       0.408   5.547  -3.756  0.00  0.00    -0.246 OA
ATOM     10  O   UNL     1       1.279   9.733  -5.380  0.00  0.00    -0.267 OA
ENDROOT
BRANCH   4  11
ATOM     11  C   UNL     1       0.025  10.950  -3.179  0.00  0.00    +0.018 C 
ATOM     12  C   UNL     1       0.812  11.385  -1.964  0.00  0.00    +0.011 A 
ATOM     13  C   UNL     1       0.338  12.283  -1.065  0.00  0.00    -0.022 A 
ATOM     14  C   UNL     1       1.353  12.441  -0.048  0.00  0.00    +0.003 A 
ATOM     15  C   UNL     1       1.425  13.222   1.110  0.00  0.00    +0.010 A 
ATOM     16  C   UNL     1       2.570  13.117   1.860  0.00  0.00    +0.001 A 
ATOM     17  C   UNL     1       3.614  12.281   1.497  0.00  0.00    +0.002 A 
ATOM     18  C   UNL     1       3.570  11.498   0.357  0.00  0.00    +0.026 A 
ATOM     19  C   UNL     1       2.419  11.583  -0.424  0.00  0.00    +0.047 A 
ATOM     20  N   UNL     1       2.054  10.963  -1.585  0.00  0.00    -0.359 N 
ATOM     21  H   UNL     1       2.595  10.227  -2.197  0.00  0.00    +0.166 HD
ATOM     22  C   UNL     1      -1.010  12.948  -1.184  0.00  0.00    +0.018 C 
ATOM     23  C   UNL     1      -1.516  12.743  -2.618  0.00  0.00    -0.076 C 
ATOM     24  N   UNL     1      -1.384  11.326  -2.985  0.00  0.00    +0.388 N 
ATOM     25  H   UNL     1      -1.941  11.154  -3.919  0.00  0.00    -0.084 HD
ATOM     26  H   UNL     1      -1.820  10.715  -2.181  0.00  0.00    -0.084 HD
ENDBRANCH   4  11
BRANCH   1  27
ATOM     27  C   UNL     1      -0.855   6.352  -1.533  0.00  0.00    +0.134 C 
BRANCH  27  28
ATOM     28  C   UNL     1       0.207   6.050  -0.474  0.00  0.00    +0.057 C 
BRANCH  28  32
ATOM     29  C   UNL     1      -1.432   3.411   2.465  0.00  0.00    +0.161 A 
ATOM     30  C   UNL     1      -1.532   4.784   2.629  0.00  0.00    +0.049 A 
ATOM     31  C   UNL     1      -1.003   5.634   1.677  0.00  0.00    +0.007 A 
ATOM     32  C   UNL     1      -0.368   5.119   0.562  0.00  0.00    -0.042 A 
ATOM     33  C   UNL     1      -0.259   3.751   0.395  0.00  0.00    +0.053 A 
ATOM     34  C   UNL     1      -0.787   2.893   1.346  0.00  0.00    +0.162 A 
BRANCH  29  36
ATOM     35  C   UNL     1      -2.603   3.176   4.521  0.00  0.00    +0.277 C 
ATOM     36  O   UNL     1      -1.957   2.573   3.399  0.00  0.00    -0.491 OA
ENDBRANCH  29  36
BRANCH  34  37
ATOM     37  O   UNL     1      -0.682   1.547   1.184  0.00  0.00    -0.491 OA
ATOM     38  C   UNL     1      -0.013   1.086   0.008  0.00  0.00    +0.277 C 
ENDBRANCH  34  37
ENDBRANCH  28  32
ENDBRANCH  27  28
ENDBRANCH   1  27
TORSDOF 6
