REMARK  Name = ZINC61537308
REMARK  6 active torsions:
REMARK  status: ('A' for Active; 'I' for Inactive)
REMARK    1  A    between atoms: C_1  and  C_2
REMARK    2  A    between atoms: C_2  and  C_4
REMARK    3  A    between atoms: C_2  and  N_8
REMARK    4  A    between atoms: C_4  and  C_5
REMARK    5  A    between atoms: C_5  and  C_6
REMARK    6  A    between atoms: C_5  and  C_7
REMARK                            x       y       z     vdW  Elec       q    Type
REMARK                         _______ _______ _______ _____ _____    ______ ____
ROOT
ATOM      1  N   UNL     1       0.561  -0.455   1.218  0.00  0.00    -0.311 N 
ATOM      2  C   UNL     1       1.929  -0.573   1.355  0.00  0.00    +0.221 A 
ATOM      3  N   UNL     1       2.448  -1.000   2.501  0.00  0.00    -0.181 NA
ATOM      4  C   UNL     1       3.766  -1.114   2.629  0.00  0.00    +0.223 A 
ATOM      5  N   UNL     1       4.561  -0.800   1.609  0.00  0.00    -0.184 NA
ATOM      6  C   UNL     1       4.041  -0.375   0.469  0.00  0.00    +0.229 A 
ATOM      7  N   UNL     1       2.729  -0.266   0.338  0.00  0.00    -0.184 NA
ATOM      8 CL   UNL     1       5.082   0.034  -0.858  0.00  0.00    -0.041 Cl
ATOM      9  N   UNL     1       4.309  -1.557   3.818  0.00  0.00    -0.299 N 
ATOM     10  C   UNL     1       3.549  -1.941   5.016  0.00  0.00    +0.108 C 
ATOM     11  C   UNL     1       4.573  -2.342   6.099  0.00  0.00    +0.020 C 
ATOM     12  C   UNL     1       5.867  -1.621   5.637  0.00  0.00    +0.020 C 
ATOM     13  C   UNL     1       5.747  -1.728   4.094  0.00  0.00    +0.108 C 
ATOM     14  H   UNL     1      -0.022  -0.679   1.960  0.00  0.00    +0.149 HD
ENDROOT
BRANCH   1  16
ATOM     15  C   UNL     1      -0.024   1.540  -0.070  0.00  0.00    +0.028 C 
ATOM     16  C   UNL     1      -0.011   0.011  -0.048  0.00  0.00    +0.070 C 
BRANCH  16  17
ATOM     17  C   UNL     1      -1.442  -0.513  -0.183  0.00  0.00    +0.025 C 
BRANCH  17  18
ATOM     18  C   UNL     1      -1.423  -2.042  -0.246  0.00  0.00    -0.015 C 
ATOM     19  C   UNL     1      -2.858  -2.571  -0.235  0.00  0.00    +0.007 C 
ATOM     20  C   UNL     1      -0.723  -2.491  -1.530  0.00  0.00    +0.007 C 
ENDBRANCH  17  18
ENDBRANCH  16  17
ENDBRANCH   1  16
TORSDOF 3
