REMARK  Name = ZINC06429658
REMARK  4 active torsions:
REMARK  status: ('A' for Active; 'I' for Inactive)
REMARK    1  A    between atoms: C_1  and  C_2
REMARK    2  A    between atoms: C_2  and  N_41
REMARK    3  A    between atoms: C_5  and  C_22
REMARK    4  A    between atoms: C_15  and  C_16
REMARK                            x       y       z     vdW  Elec       q    Type
REMARK                         _______ _______ _______ _____ _____    ______ ____
ROOT
ATOM      1  C   UNL     1      -0.184   5.353   1.173  0.00  0.00    -0.040 C 
ATOM      2  C   UNL     1      -0.282   3.855   1.250  0.00  0.00    -0.024 A 
ATOM      3  C   UNL     1       0.808   3.122   1.696  0.00  0.00    +0.076 A 
ATOM      4  C   UNL     1       0.663   1.666   1.759  0.00  0.00    +0.015 A 
ATOM      5  C   UNL     1       1.709   0.847   2.196  0.00  0.00    +0.011 A 
ATOM      6  C   UNL     1       1.532  -0.505   2.243  0.00  0.00    +0.001 A 
ATOM      7  C   UNL     1       0.322  -1.079   1.861  0.00  0.00    +0.002 A 
ATOM      8  C   UNL     1      -0.716  -0.311   1.430  0.00  0.00    +0.028 A 
ATOM      9  C   UNL     1      -0.570   1.087   1.367  0.00  0.00    +0.072 A 
ATOM     10  N   UNL     1      -1.567   1.864   0.942  0.00  0.00    -0.247 NA
ATOM     11  C   UNL     1      -1.461   3.180   0.878  0.00  0.00    +0.068 A 
ATOM     12  C   UNL     1      -2.609   3.978   0.394  0.00  0.00    -0.038 C 
ATOM     13  C   UNL     1      -3.674   3.396  -0.188  0.00  0.00    +0.012 C 
ATOM     14  C   UNL     1      -2.533   5.479   0.581  0.00  0.00    -0.040 C 
ATOM     15  N   UNL     1      -1.159   5.891   0.205  0.00  0.00    +0.385 N 
ATOM     16  H   UNL     1      -0.943   5.518  -0.726  0.00  0.00    -0.081 HD
ENDROOT
BRANCH  13  17
ATOM     17  C   UNL     1      -3.623   1.973  -0.560  0.00  0.00    -0.018 A 
ATOM     18  C   UNL     1      -4.729   1.087  -0.297  0.00  0.00    +0.015 A 
ATOM     19  C   UNL     1      -4.588  -0.199  -0.679  0.00  0.00    +0.046 A 
ATOM     20  S   UNL     1      -2.954  -0.233  -1.387  0.00  0.00    -0.104 S 
ATOM     21  C   UNL     1      -2.513   1.427  -1.169  0.00  0.00    +0.053 A 
ENDBRANCH  13  17
BRANCH   3  22
ATOM     22  C   UNL     1       2.067   3.785   2.093  0.00  0.00    +0.387 C 
ATOM     23  O   UNL     1       2.937   3.980   1.268  0.00  0.00    -0.241 OA
ATOM     24  O   UNL     1       2.251   4.173   3.370  0.00  0.00    -0.241 OA
ENDBRANCH   3  22
BRANCH  15  26
ATOM     25  C   UNL     1      -1.922   7.880  -0.996  0.00  0.00    -0.017 C 
ATOM     26  C   UNL     1      -1.067   7.365   0.165  0.00  0.00    -0.081 C 
ENDBRANCH  15  26
TORSDOF 3
