REMARK  Name = ZINC19597252
REMARK  6 active torsions:
REMARK  status: ('A' for Active; 'I' for Inactive)
REMARK    1  A    between atoms: C_4  and  C_7
REMARK    2  A    between atoms: C_7  and  N_8
REMARK    3  A    between atoms: C_11  and  C_12
REMARK    4  A    between atoms: C_20  and  C_28
REMARK    5  A    between atoms: C_22  and  C_26
REMARK    6  A    between atoms: C_23  and  N_25
REMARK                            x       y       z     vdW  Elec       q    Type
REMARK                         _______ _______ _______ _____ _____    ______ ____
ROOT
ATOM      1  N   UNL     1       1.622   1.816   0.707  0.00  0.00    -0.290 NA
ATOM      2  C   UNL     1       0.392   1.518  -0.049  0.00  0.00    +0.124 C 
ATOM      3  C   UNL     1       0.229   0.012  -0.053  0.00  0.00    +0.010 C 
ATOM      4  C   UNL     1      -0.175  -0.644  -1.161  0.00  0.00    +0.023 C 
ATOM      5  C   UNL     1       0.530  -0.710   1.198  0.00  0.00    +0.136 C 
ATOM      6  C   UNL     1       1.127  -0.068   2.205  0.00  0.00    -0.000 C 
ATOM      7  C   UNL     1       1.489   1.391   2.102  0.00  0.00    +0.120 C 
ATOM      8  C   UNL     1       1.450  -0.796   3.488  0.00  0.00    +0.102 C 
ATOM      9  C   UNL     1       1.416  -2.282   3.272  0.00  0.00    +0.098 C 
ATOM     10  C   UNL     1       0.789  -2.811   2.191  0.00  0.00    +0.199 C 
ATOM     11  O   UNL     1       0.186  -2.018   1.288  0.00  0.00    -0.441 OA
ENDROOT
BRANCH   4  12
ATOM     12  C   UNL     1      -0.087  -2.105  -1.219  0.00  0.00    +0.013 A 
ATOM     13  C   UNL     1      -1.009  -3.017  -1.708  0.00  0.00    +0.015 A 
ATOM     14  C   UNL     1      -0.695  -4.354  -1.654  0.00  0.00    +0.008 A 
ATOM     15  C   UNL     1       0.497  -4.738  -1.127  0.00  0.00    +0.046 A 
ATOM     16  S   UNL     1       1.238  -3.175  -0.685  0.00  0.00    -0.097 S 
ENDBRANCH   4  12
BRANCH   8  17
ATOM     17  C   UNL     1       0.438  -0.422   4.541  0.00  0.00    +0.002 A 
ATOM     18  C   UNL     1       0.634   0.187   5.736  0.00  0.00    +0.012 A 
ATOM     19  C   UNL     1      -0.456   0.434   6.549  0.00  0.00    +0.008 A 
ATOM     20  C   UNL     1      -1.689   0.060   6.128  0.00  0.00    +0.045 A 
ATOM     21  S   UNL     1      -1.332  -0.660   4.534  0.00  0.00    -0.101 S 
ENDBRANCH   8  17
BRANCH  10  22
ATOM     22  N   UNL     1       0.771  -4.172   2.018  0.00  0.00    -0.328 N 
ATOM     23  H   UNL     1       0.266  -4.609   1.144  0.00  0.00    +0.145 HD
ATOM     24  H   UNL     1       1.263  -4.827   2.752  0.00  0.00    +0.145 HD
ENDBRANCH  10  22
BRANCH   9  25
ATOM     25  C   UNL     1       2.052  -3.150   4.217  0.00  0.00    +0.101 C 
ATOM     26  N   UNL     1       2.556  -3.838   4.966  0.00  0.00    -0.191 NA
ENDBRANCH   9  25
BRANCH   1  27
ATOM     27  C   UNL     1       1.959   3.243   0.622  0.00  0.00    +0.120 C 
BRANCH  27  31
ATOM     28  C   UNL     1      -1.040   5.539   2.616  0.00  0.00    +0.000 A 
ATOM     29  C   UNL     1       0.060   5.083   3.317  0.00  0.00    +0.000 A 
ATOM     30  C   UNL     1       1.031   4.340   2.671  0.00  0.00    +0.005 A 
ATOM     31  C   UNL     1       0.901   4.053   1.325  0.00  0.00    -0.033 A 
ATOM     32  C   UNL     1      -0.197   4.513   0.624  0.00  0.00    +0.005 A 
ATOM     33  C   UNL     1      -1.170   5.253   1.270  0.00  0.00    +0.000 A 
ENDBRANCH  27  31
ENDBRANCH   1  27
TORSDOF 6
