REMARK  Name = ZINC02972905
REMARK  4 active torsions:
REMARK  status: ('A' for Active; 'I' for Inactive)
REMARK    1  A    between atoms: C_1  and  C_2
REMARK    2  A    between atoms: C_7  and  N_8
REMARK    3  A    between atoms: C_9  and  C_11
REMARK    4  A    between atoms: N_17  and  C_20
REMARK                            x       y       z     vdW  Elec       q    Type
REMARK                         _______ _______ _______ _____ _____    ______ ____
ROOT
ATOM      1  C   UNL     1       1.516   2.346   1.175  0.00  0.00    +0.118 A 
ATOM      2  C   UNL     1       2.690   1.687   0.868  0.00  0.00    +0.106 A 
ATOM      3  N   UNL     1       3.595   2.286   0.051  0.00  0.00    -0.313 N 
ATOM      4  H   UNL     1       4.441   1.804  -0.178  0.00  0.00    +0.170 HD
ATOM      5  C   UNL     1       3.379   3.509  -0.458  0.00  0.00    +0.334 A 
ATOM      6  O   UNL     1       4.222   4.004  -1.179  0.00  0.00    -0.246 OA
ATOM      7  N   UNL     1       2.260   4.205  -0.193  0.00  0.00    -0.229 N 
ATOM      8  C   UNL     1       1.303   3.686   0.605  0.00  0.00    +0.273 A 
ATOM      9  O   UNL     1       0.288   4.311   0.848  0.00  0.00    -0.266 OA
ENDROOT
BRANCH   7  10
ATOM     10  C   UNL     1       2.084   5.479  -0.750  0.00  0.00    +0.054 A 
ATOM     11  C   UNL     1       2.439   6.610  -0.026  0.00  0.00    +0.026 A 
ATOM     12  C   UNL     1       2.269   7.864  -0.580  0.00  0.00    +0.002 A 
ATOM     13  C   UNL     1       1.738   7.994  -1.850  0.00  0.00    +0.000 A 
ATOM     14  C   UNL     1       1.379   6.871  -2.571  0.00  0.00    +0.002 A 
ATOM     15  C   UNL     1       1.551   5.614  -2.025  0.00  0.00    +0.026 A 
ENDBRANCH   7  10
BRANCH   1  17
ATOM     16  N   UNL     1      -0.575   2.432   2.433  0.00  0.00    -0.281 N 
ATOM     17  C   UNL     1       0.509   1.728   2.052  0.00  0.00    +0.255 C 
ATOM     18  O   UNL     1       0.653   0.581   2.429  0.00  0.00    -0.270 OA
ATOM     19  H   UNL     1      -0.724   3.323   2.079  0.00  0.00    +0.155 HD
BRANCH  16  26
ATOM     20  C   UNL     1      -2.103   4.201   4.055  0.00  0.00    +0.045 C 
ATOM     21  C   UNL     1      -2.253   2.704   4.148  0.00  0.00    -0.029 A 
ATOM     22  C   UNL     1      -3.152   2.154   5.040  0.00  0.00    +0.005 A 
ATOM     23  C   UNL     1      -3.291   0.781   5.125  0.00  0.00    +0.000 A 
ATOM     24  C   UNL     1      -2.530  -0.046   4.318  0.00  0.00    +0.002 A 
ATOM     25  C   UNL     1      -1.632   0.499   3.421  0.00  0.00    +0.023 A 
ATOM     26  C   UNL     1      -1.487   1.878   3.337  0.00  0.00    +0.037 A 
ENDBRANCH  16  26
ENDBRANCH   1  17
TORSDOF 3
