REMARK  Name = ZINC21876985
REMARK  11 active torsions:
REMARK  status: ('A' for Active; 'I' for Inactive)
REMARK    1  A    between atoms: C_1  and  C_2
REMARK    2  A    between atoms: C_2  and  C_26
REMARK    3  A    between atoms: C_7  and  C_9
REMARK    4  A    between atoms: N_11  and  C_12
REMARK    5  A    between atoms: C_12  and  C_13
REMARK    6  A    between atoms: C_13  and  C_14
REMARK    7  A    between atoms: C_19  and  O_20
REMARK    8  A    between atoms: O_20  and  C_21
REMARK    9  A    between atoms: N_24  and  C_25
REMARK   10  A    between atoms: N_28  and  C_29
REMARK   11  A    between atoms: C_29  and  C_30
REMARK                            x       y       z     vdW  Elec       q    Type
REMARK                         _______ _______ _______ _____ _____    ______ ____
ROOT
ATOM      1  C   UNL     1       3.586   2.350  -2.202  0.00  0.00    +0.044 C 
ATOM      2  C   UNL     1       3.933   2.002  -0.754  0.00  0.00    +0.130 C 
ATOM      3  C   UNL     1       3.632   0.522  -0.519  0.00  0.00    +0.179 C 
ATOM      4  N   UNL     1       2.178   0.329  -0.456  0.00  0.00    -0.256 N 
ATOM      5  C   UNL     1       1.348   1.326   0.012  0.00  0.00    +0.124 A 
ATOM      6  C   UNL     1       0.080   0.861  -0.051  0.00  0.00    +0.067 A 
ATOM      7  C   UNL     1       0.192  -0.448  -0.573  0.00  0.00    +0.148 A 
ATOM      8  N   UNL     1       1.476  -0.684  -0.785  0.00  0.00    -0.166 NA
ATOM      9  C   UNL     1       1.890   2.618   0.466  0.00  0.00    +0.265 C 
ATOM     10  O   UNL     1       1.219   3.408   1.102  0.00  0.00    -0.268 OA
ATOM     11  N   UNL     1       3.179   2.878   0.135  0.00  0.00    -0.284 N 
ATOM     12  C   UNL     1       3.831   4.069   0.684  0.00  0.00    +0.133 C 
ENDROOT
BRANCH   7  13
ATOM     13  C   UNL     1      -0.923  -1.383  -0.833  0.00  0.00    +0.264 C 
ATOM     14  O   UNL     1      -2.066  -1.046  -0.595  0.00  0.00    -0.268 OA
ATOM     15  N   UNL     1      -0.671  -2.608  -1.335  0.00  0.00    -0.310 N 
ATOM     16  H   UNL     1       0.363  -2.912  -1.551  0.00  0.00    +0.149 HD
BRANCH  15  17
ATOM     17  C   UNL     1      -1.776  -3.534  -1.594  0.00  0.00    +0.109 C 
BRANCH  17  18
ATOM     18  C   UNL     1      -1.222  -4.845  -2.157  0.00  0.00    +0.057 C 
BRANCH  18  19
ATOM     19  C   UNL     1      -2.359  -5.798  -2.423  0.00  0.00    -0.004 A 
ATOM     20  C   UNL     1      -2.706  -6.742  -1.476  0.00  0.00    +0.007 A 
ATOM     21  C   UNL     1      -3.751  -7.613  -1.717  0.00  0.00    +0.000 A 
ATOM     22  C   UNL     1      -4.446  -7.549  -2.911  0.00  0.00    +0.004 A 
ATOM     23  C   UNL     1      -4.100  -6.611  -3.864  0.00  0.00    +0.046 A 
ATOM     24  C   UNL     1      -3.054  -5.731  -3.622  0.00  0.00    +0.123 A 
BRANCH  24  25
ATOM     25  O   UNL     1      -2.712  -4.807  -4.557  0.00  0.00    -0.495 OA
ATOM     26  C   UNL     1      -3.471  -4.797  -5.768  0.00  0.00    +0.277 C 
ENDBRANCH  24  25
ENDBRANCH  18  19
ENDBRANCH  17  18
ENDBRANCH  15  17
ENDBRANCH   7  13
BRANCH   2  27
ATOM     27  C   UNL     1       5.405   2.239  -0.536  0.00  0.00    +0.239 C 
ATOM     28  O   UNL     1       6.153   2.323  -1.488  0.00  0.00    -0.273 OA
ATOM     29  N   UNL     1       5.891   2.357   0.715  0.00  0.00    -0.309 N 
ATOM     30  H   UNL     1       5.230   2.196   1.579  0.00  0.00    +0.149 HD
BRANCH  29  31
ATOM     31  C   UNL     1       7.300   2.700   0.925  0.00  0.00    +0.139 C 
BRANCH  31  32
ATOM     32  C   UNL     1       7.586   2.770   2.403  0.00  0.00    -0.030 A 
ATOM     33  C   UNL     1       7.439   3.966   3.079  0.00  0.00    +0.008 A 
ATOM     34  C   UNL     1       7.696   4.030   4.436  0.00  0.00    +0.038 A 
ATOM     35  C   UNL     1       8.111   2.897   5.115  0.00  0.00    +0.123 A 
ATOM     36  C   UNL     1       8.263   1.700   4.435  0.00  0.00    +0.038 A 
ATOM     37  C   UNL     1       8.000   1.638   3.080  0.00  0.00    +0.008 A 
ATOM     38  F   UNL     1       8.367   2.959   6.440  0.00  0.00    -0.205 F 
ENDBRANCH  31  32
ENDBRANCH  29  31
ENDBRANCH   2  27
TORSDOF 8
