REMARK  Name = ZINC45547819
REMARK  10 active torsions:
REMARK  status: ('A' for Active; 'I' for Inactive)
REMARK    1  A    between atoms: C_1  and  C_2
REMARK    2  A    between atoms: C_2  and  C_4
REMARK    3  A    between atoms: C_2  and  N_15
REMARK    4  A    between atoms: N_6  and  C_7
REMARK    5  A    between atoms: C_12  and  C_13
REMARK    6  A    between atoms: N_18  and  C_21
REMARK    7  A    between atoms: C_21  and  C_23
REMARK    8  A    between atoms: C_21  and  C_30
REMARK    9  A    between atoms: C_30  and  O_32
REMARK   10  A    between atoms: O_32  and  C_33
REMARK                            x       y       z     vdW  Elec       q    Type
REMARK                         _______ _______ _______ _____ _____    ______ ____
ROOT
ATOM      1  N   UNL     1       1.067  -0.709   0.650  0.00  0.00    +0.389 N 
ATOM      2  C   UNL     1       1.072  -2.032   0.011  0.00  0.00    -0.062 C 
ATOM      3  C   UNL     1       2.107  -2.926   0.697  0.00  0.00    +0.067 C 
ATOM      4  N   UNL     1       3.435  -2.307   0.589  0.00  0.00    -0.290 NA
ATOM      5  C   UNL     1       3.439  -0.971   1.203  0.00  0.00    +0.067 C 
ATOM      6  C   UNL     1       2.393  -0.092   0.512  0.00  0.00    -0.062 C 
ATOM      7  H   UNL     1       0.843  -0.809   1.628  0.00  0.00    -0.081 HD
ENDROOT
BRANCH   1   9
ATOM      8  C   UNL     1       0.108   1.544   0.618  0.00  0.00    -0.004 C 
ATOM      9  C   UNL     1       0.062   0.144   0.002  0.00  0.00    +0.017 C 
BRANCH   9  10
ATOM     10  C   UNL     1      -1.308  -0.450   0.208  0.00  0.00    +0.203 C 
ATOM     11  O   UNL     1      -1.531  -1.138   1.182  0.00  0.00    -0.277 OA
ATOM     12  N   UNL     1      -2.285  -0.218  -0.691  0.00  0.00    -0.286 N 
ATOM     13  H   UNL     1      -2.088   0.270  -1.506  0.00  0.00    +0.155 HD
BRANCH  12  14
ATOM     14  C   UNL     1      -3.579  -0.678  -0.449  0.00  0.00    +0.051 A 
ATOM     15  C   UNL     1      -3.978  -0.990   0.843  0.00  0.00    +0.024 A 
ATOM     16  C   UNL     1      -5.259  -1.446   1.081  0.00  0.00    +0.002 A 
ATOM     17  C   UNL     1      -6.155  -1.596   0.035  0.00  0.00    +0.001 A 
ATOM     18  C   UNL     1      -5.776  -1.292  -1.255  0.00  0.00    +0.021 A 
ATOM     19  C   UNL     1      -4.485  -0.824  -1.510  0.00  0.00    +0.073 A 
BRANCH  19  20
ATOM     20  C   UNL     1      -4.087  -0.500  -2.847  0.00  0.00    +0.101 C 
ATOM     21  N   UNL     1      -3.772  -0.243  -3.907  0.00  0.00    -0.191 NA
ENDBRANCH  19  20
ENDBRANCH  12  14
ENDBRANCH   9  10
ENDBRANCH   1   9
BRANCH   4  22
ATOM     22  C   UNL     1       4.466  -3.164   1.188  0.00  0.00    +0.198 C 
BRANCH  22  23
ATOM     23  C   UNL     1       5.811  -2.497   1.058  0.00  0.00    -0.001 A 
ATOM     24  C   UNL     1       6.001  -1.499   0.121  0.00  0.00    +0.007 A 
ATOM     25  C   UNL     1       7.234  -0.887   0.003  0.00  0.00    +0.000 A 
ATOM     26  C   UNL     1       8.280  -1.273   0.821  0.00  0.00    +0.001 A 
ATOM     27  C   UNL     1       8.092  -2.271   1.758  0.00  0.00    +0.020 A 
ATOM     28  C   UNL     1       6.855  -2.880   1.881  0.00  0.00    +0.046 A 
ATOM     29 CL   UNL     1       6.617  -4.129   3.063  0.00  0.00    -0.083 Cl
ENDBRANCH  22  23
BRANCH  22  30
ATOM     30  C   UNL     1       4.493  -4.491   0.474  0.00  0.00    +0.329 C 
ATOM     31  O   UNL     1       3.731  -4.701  -0.440  0.00  0.00    -0.249 OA
BRANCH  30  32
ATOM     32  O   UNL     1       5.363  -5.440   0.853  0.00  0.00    -0.467 OA
ATOM     33  C   UNL     1       5.333  -6.673   0.133  0.00  0.00    +0.280 C 
ENDBRANCH  30  32
ENDBRANCH  22  30
ENDBRANCH   4  22
TORSDOF 8
