REMARK  Name = ZINC06631826
REMARK  14 active torsions:
REMARK  status: ('A' for Active; 'I' for Inactive)
REMARK    1  A    between atoms: C_1  and  C_2
REMARK    2  A    between atoms: C_2  and  C_3
REMARK    3  A    between atoms: C_3  and  C_5
REMARK    4  A    between atoms: C_3  and  N_13
REMARK    5  A    between atoms: N_7  and  C_8
REMARK    6  A    between atoms: C_8  and  C_9
REMARK    7  A    between atoms: C_9  and  C_10
REMARK    8  A    between atoms: C_10  and  C_11
REMARK    9  A    between atoms: C_10  and  C_12
REMARK   10  A    between atoms: N_13  and  C_14
REMARK   11  A    between atoms: C_14  and  C_15
REMARK   12  A    between atoms: C_22  and  C_24
REMARK   13  A    between atoms: C_25  and  N_32
REMARK   14  A    between atoms: C_26  and  C_29
REMARK                            x       y       z     vdW  Elec       q    Type
REMARK                         _______ _______ _______ _____ _____    ______ ____
ROOT
ATOM      1  N   UNL     1       2.639   0.272   1.216  0.00  0.00    -0.281 N 
ATOM      2  C   UNL     1       3.470   1.199   1.733  0.00  0.00    +0.257 C 
ATOM      3  O   UNL     1       3.058   1.994   2.557  0.00  0.00    -0.269 OA
ENDROOT
BRANCH   2   4
ATOM      4  C   UNL     1       4.869   1.249   1.303  0.00  0.00    +0.115 A 
ATOM      5  C   UNL     1       5.927   1.998   1.822  0.00  0.00    +0.076 A 
ATOM      6  C   UNL     1       7.132   1.791   1.154  0.00  0.00    +0.155 A 
ATOM      7  N   UNL     1       7.177   0.951   0.141  0.00  0.00    -0.203 NA
ATOM      8  S   UNL     1       5.677   0.366  -0.016  0.00  0.00    +0.019 S 
BRANCH   6   9
ATOM      9  C   UNL     1       8.349   2.507   1.579  0.00  0.00    +0.262 C 
ATOM     10  O   UNL     1       8.328   3.203   2.576  0.00  0.00    -0.269 OA
ATOM     11  N   UNL     1       9.484   2.392   0.861  0.00  0.00    -0.324 N 
ATOM     12  H   UNL     1       9.501   1.837   0.066  0.00  0.00    +0.145 HD
ATOM     13  H   UNL     1      10.284   2.863   1.141  0.00  0.00    +0.145 HD
ENDBRANCH   6   9
BRANCH   5  14
ATOM     14  N   UNL     1       5.791   2.864   2.898  0.00  0.00    -0.355 N 
ATOM     15  H   UNL     1       4.953   2.906   3.384  0.00  0.00    +0.142 HD
ATOM     16  H   UNL     1       6.534   3.428   3.163  0.00  0.00    +0.142 HD
ENDBRANCH   5  14
ENDBRANCH   2   4
BRANCH   1  17
ATOM     17  C   UNL     1       1.278   0.135   1.739  0.00  0.00    +0.162 C 
BRANCH  17  18
ATOM     18  C   UNL     1       1.078  -1.265   2.260  0.00  0.00    +0.234 C 
ATOM     19  O   UNL     1       1.984  -2.069   2.200  0.00  0.00    -0.274 OA
ATOM     20  N   UNL     1      -0.107  -1.623   2.793  0.00  0.00    -0.314 N 
ATOM     21  H   UNL     1      -0.831  -0.980   2.841  0.00  0.00    +0.149 HD
BRANCH  20  22
ATOM     22  C   UNL     1      -0.301  -2.984   3.299  0.00  0.00    +0.104 C 
BRANCH  22  23
ATOM     23  C   UNL     1      -1.723  -3.127   3.846  0.00  0.00    +0.022 C 
BRANCH  23  24
ATOM     24  C   UNL     1      -1.926  -4.548   4.375  0.00  0.00    -0.016 C 
ATOM     25  C   UNL     1      -1.005  -4.782   5.574  0.00  0.00    +0.007 C 
ATOM     26  C   UNL     1      -3.382  -4.729   4.806  0.00  0.00    +0.007 C 
ENDBRANCH  23  24
ENDBRANCH  22  23
ENDBRANCH  20  22
ENDBRANCH  17  18
BRANCH  17  28
ATOM     27  C   UNL     1       0.362   1.881   0.204  0.00  0.00    +0.006 C 
ATOM     28  C   UNL     1       0.271   0.411   0.621  0.00  0.00    +0.028 C 
ENDBRANCH  17  28
ENDBRANCH   1  17
BRANCH   1  29
ATOM     29  C   UNL     1       3.098  -0.599   0.131  0.00  0.00    +0.145 C 
BRANCH  29  30
ATOM     30  C   UNL     1       2.472  -0.157  -1.167  0.00  0.00    -0.012 A 
ATOM     31  C   UNL     1       1.618  -1.005  -1.847  0.00  0.00    +0.006 A 
ATOM     32  C   UNL     1       1.044  -0.600  -3.037  0.00  0.00    +0.000 A 
ATOM     33  C   UNL     1       1.323   0.654  -3.548  0.00  0.00    +0.001 A 
ATOM     34  C   UNL     1       2.176   1.503  -2.869  0.00  0.00    +0.020 A 
ATOM     35  C   UNL     1       2.747   1.100  -1.675  0.00  0.00    +0.046 A 
ATOM     36 CL   UNL     1       3.813   2.169  -0.818  0.00  0.00    -0.083 Cl
ENDBRANCH  29  30
ENDBRANCH   1  29
TORSDOF 11
