REMARK  Name = ZINC38586138
REMARK  8 active torsions:
REMARK  status: ('A' for Active; 'I' for Inactive)
REMARK    1  A    between atoms: C_1  and  C_2
REMARK    2  A    between atoms: C_2  and  C_3
REMARK    3  A    between atoms: C_2  and  C_4
REMARK    4  A    between atoms: C_4  and  C_5
REMARK    5  A    between atoms: C_8  and  N_20
REMARK    6  A    between atoms: C_11  and  C_14
REMARK    7  A    between atoms: N_20  and  C_21
REMARK    8  A    between atoms: C_21  and  C_22
REMARK                            x       y       z     vdW  Elec       q    Type
REMARK                         _______ _______ _______ _____ _____    ______ ____
ROOT
ATOM      1  C   UNL     1       2.165  -0.079  -1.208  0.00  0.00    +0.229 C 
ATOM      2  O   UNL     1       2.583   0.551  -0.260  0.00  0.00    -0.274 OA
ATOM      3  N   UNL     1       2.995  -0.406  -2.218  0.00  0.00    -0.236 N 
ATOM      4  C   UNL     1       4.426  -0.071  -2.301  0.00  0.00    +0.106 C 
ATOM      5  N   UNL     1       4.919  -0.677  -3.562  0.00  0.00    -0.292 NA
ATOM      6  C   UNL     1       3.908  -1.737  -3.829  0.00  0.00    +0.171 C 
ATOM      7  N   UNL     1       2.653  -1.115  -3.345  0.00  0.00    -0.217 NA
ATOM      8  H   UNL     1       4.935   0.003  -4.308  0.00  0.00    +0.124 HD
ATOM      9  H   UNL     1       1.959  -1.816  -3.134  0.00  0.00    +0.147 HD
ENDROOT
BRANCH   6  10
ATOM     10  C   UNL     1       3.829  -2.041  -5.303  0.00  0.00    +0.003 A 
ATOM     11  C   UNL     1       2.636  -2.469  -5.868  0.00  0.00    +0.009 A 
ATOM     12  C   UNL     1       2.610  -2.737  -7.228  0.00  0.00    +0.020 A 
ATOM     13  C   UNL     1       3.764  -2.571  -7.970  0.00  0.00    +0.111 A 
ATOM     14  N   UNL     1       4.880  -2.163  -7.399  0.00  0.00    -0.263 NA
ATOM     15  C   UNL     1       4.941  -1.893  -6.109  0.00  0.00    +0.117 A 
ENDBRANCH   6  10
BRANCH   4  16
ATOM     16  N   UNL     1       5.145  -0.638  -1.152  0.00  0.00    +0.403 N 
ATOM     17  H   UNL     1       4.713  -0.324  -0.296  0.00  0.00    -0.081 HD
ATOM     18  H   UNL     1       5.109  -1.645  -1.196  0.00  0.00    -0.081 HD
BRANCH  16  19
ATOM     19  C   UNL     1       6.546  -0.196  -1.184  0.00  0.00    -0.042 C 
BRANCH  19  20
ATOM     20  C   UNL     1       7.283  -0.778  -0.006  0.00  0.00    -0.064 C 
ATOM     21  C   UNL     1       7.992  -1.938  -0.149  0.00  0.00    +0.007 C 
ATOM     22  C   UNL     1       8.689  -2.358   0.999  0.00  0.00    -0.018 C 
ATOM     23  C   UNL     1       9.031  -3.568   1.470  0.00  0.00    +0.025 C 
ATOM     24  C   UNL     1       9.461  -3.443   2.810  0.00  0.00    +0.106 C 
ATOM     25  N   UNL     1       9.533  -2.199   3.189  0.00  0.00    -0.279 NA
ATOM     26  C   UNL     1       9.190  -1.371   2.042  0.00  0.00    +0.158 C 
ATOM     27  C   UNL     1       8.098  -0.371   2.278  0.00  0.00    +0.004 C 
ATOM     28  C   UNL     1       7.245  -0.099   1.286  0.00  0.00    -0.000 C 
ENDBRANCH  19  20
ENDBRANCH  16  19
ENDBRANCH   4  16
BRANCH   1  29
ATOM     29  C   UNL     1       0.718  -0.497  -1.257  0.00  0.00    +0.100 C 
BRANCH  29  31
ATOM     30  C   UNL     1      -0.019   1.526   0.010  0.00  0.00    +0.008 C 
ATOM     31  C   UNL     1       0.002  -0.004   0.002  0.00  0.00    -0.008 C 
ATOM     32  C   UNL     1      -1.433  -0.534   0.013  0.00  0.00    +0.008 C 
ENDBRANCH  29  31
ENDBRANCH   1  29
TORSDOF 6
