REMARK  Name = ZINC11616176
REMARK  11 active torsions:
REMARK  status: ('A' for Active; 'I' for Inactive)
REMARK    1  A    between atoms: C_1  and  C_2
REMARK    2  A    between atoms: C_4  and  O_36
REMARK    3  A    between atoms: C_14  and  C_15
REMARK    4  A    between atoms: C_14  and  O_25
REMARK    5  A    between atoms: C_15  and  C_17
REMARK    6  A    between atoms: C_17  and  O_18
REMARK    7  A    between atoms: O_18  and  C_19
REMARK    8  A    between atoms: C_19  and  C_21
REMARK    9  A    between atoms: C_21  and  C_22
REMARK   10  A    between atoms: C_22  and  C_23
REMARK   11  A    between atoms: C_34  and  C_35
REMARK                            x       y       z     vdW  Elec       q    Type
REMARK                         _______ _______ _______ _____ _____    ______ ____
ROOT
ATOM      1  C   UNL     1       0.021   3.584   1.696  0.00  0.00    +0.015 C 
ATOM      2  C   UNL     1      -1.161   3.616   0.722  0.00  0.00    +0.009 C 
ATOM      3  C   UNL     1      -2.478   3.923   1.422  0.00  0.00    +0.041 C 
ATOM      4  C   UNL     1      -2.575   5.389   1.865  0.00  0.00    +0.120 C 
ATOM      5  C   UNL     1      -2.441   6.307   0.662  0.00  0.00    +0.035 C 
ATOM      6  C   UNL     1      -1.159   6.029  -0.110  0.00  0.00    -0.000 C 
ATOM      7  C   UNL     1      -0.931   4.584  -0.447  0.00  0.00    +0.002 C 
ATOM      8  C   UNL     1      -1.905   4.080  -1.532  0.00  0.00    +0.008 C 
ATOM      9  C   UNL     1      -1.775   2.543  -1.429  0.00  0.00    +0.043 C 
ATOM     10  C   UNL     1      -1.329   2.242   0.013  0.00  0.00    +0.133 C 
ATOM     11  C   UNL     1       0.026   6.632   0.653  0.00  0.00    +0.008 C 
ATOM     12  C   UNL     1      -0.024   8.142   0.405  0.00  0.00    +0.032 C 
ATOM     13  C   UNL     1      -1.427   8.649   0.608  0.00  0.00    -0.056 C 
ATOM     14  C   UNL     1      -1.601   9.981   0.500  0.00  0.00    +0.051 C 
ATOM     15  C   UNL     1      -2.965  10.524   0.694  0.00  0.00    +0.179 C 
ATOM     16  O   UNL     1      -3.173  11.645   1.123  0.00  0.00    -0.288 OA
ATOM     17  C   UNL     1      -4.077   9.630   0.277  0.00  0.00    +0.047 C 
ATOM     18  C   UNL     1      -3.887   8.309   0.397  0.00  0.00    -0.012 C 
ATOM     19  C   UNL     1      -2.592   7.780   0.948  0.00  0.00    +0.013 C 
ATOM     20  C   UNL     1      -2.721   7.955   2.461  0.00  0.00    +0.020 C 
ENDROOT
BRANCH  10  21
ATOM     21  C   UNL     1      -0.009   1.512  -0.001  0.00  0.00    +0.202 C 
ATOM     22  O   UNL     1       0.799   1.741  -0.868  0.00  0.00    -0.291 OA
BRANCH  21  23
ATOM     23  C   UNL     1       0.298   0.490   1.064  0.00  0.00    +0.309 C 
BRANCH  23  24
ATOM     24  O   UNL     1       1.616  -0.072   0.829  0.00  0.00    -0.457 OA
BRANCH  24  25
ATOM     25  C   UNL     1       2.044  -1.004   1.696  0.00  0.00    +0.308 C 
ATOM     26  O   UNL     1       1.340  -1.339   2.619  0.00  0.00    -0.251 OA
BRANCH  25  27
ATOM     27  C   UNL     1       3.401  -1.633   1.516  0.00  0.00    +0.132 C 
BRANCH  27  28
ATOM     28  C   UNL     1       3.641  -2.655   2.629  0.00  0.00    +0.136 C 
BRANCH  28  29
ATOM     29  C   UNL     1       4.999  -3.284   2.449  0.00  0.00    +0.357 C 
ATOM     30  O   UNL     1       5.702  -2.950   1.526  0.00  0.00    -0.246 OA
ATOM     31  O   UNL     1       5.427  -4.216   3.316  0.00  0.00    -0.246 OA
ENDBRANCH  28  29
ENDBRANCH  27  28
ENDBRANCH  25  27
ENDBRANCH  24  25
ENDBRANCH  23  24
ENDBRANCH  21  23
ENDBRANCH  10  21
BRANCH  10  32
ATOM     32  O   UNL     1      -2.314   1.455   0.683  0.00  0.00    -0.380 OA
ATOM     33  H   UNL     1      -2.466   0.589   0.280  0.00  0.00    +0.211 HD
ENDBRANCH  10  32
BRANCH   4  34
ATOM     34  O   UNL     1      -3.882   5.520   2.454  0.00  0.00    -0.391 OA
ATOM     35  H   UNL     1      -4.030   4.942   3.216  0.00  0.00    +0.210 HD
ENDBRANCH   4  34
TORSDOF 9
