REMARK  Name = ZINC48950644
REMARK  4 active torsions:
REMARK  status: ('A' for Active; 'I' for Inactive)
REMARK    1  A    between atoms: C_1  and  N_2
REMARK    2  A    between atoms: N_5  and  N_6
REMARK    3  A    between atoms: C_7  and  C_9
REMARK    4  A    between atoms: C_12  and  C_14
REMARK                            x       y       z     vdW  Elec       q    Type
REMARK                         _______ _______ _______ _____ _____    ______ ____
ROOT
ATOM      1  C   UNL     1       1.382  -4.788  -0.037  0.00  0.00    +0.076 A 
ATOM      2  C   UNL     1       1.616  -6.155  -0.052  0.00  0.00    +0.021 A 
ATOM      3  C   UNL     1       2.908  -6.600  -0.066  0.00  0.00    +0.017 A 
ATOM      4  C   UNL     1       3.933  -5.668  -0.065  0.00  0.00    +0.020 A 
ATOM      5  S   UNL     1       3.039  -4.124  -0.050  0.00  0.00    -0.084 S 
ENDROOT
BRANCH   4   6
ATOM      6  C   UNL     1       5.393  -5.895  -0.078  0.00  0.00    -0.011 A 
ATOM      7  C   UNL     1       5.900  -7.196  -0.101  0.00  0.00    +0.010 A 
ATOM      8  C   UNL     1       7.264  -7.401  -0.114  0.00  0.00    +0.016 A 
ATOM      9  C   UNL     1       8.130  -6.321  -0.104  0.00  0.00    +0.018 A 
ATOM     10  C   UNL     1       7.633  -5.029  -0.081  0.00  0.00    +0.016 A 
ATOM     11  C   UNL     1       6.271  -4.810  -0.074  0.00  0.00    +0.010 A 
ATOM     12 BR   UNL     1       9.998  -6.611  -0.122  0.00  0.00    -0.050 Br
ENDBRANCH   4   6
BRANCH   1  14
ATOM     13  N   UNL     1       0.085  -2.725  -0.013  0.00  0.00    -0.229 N 
ATOM     14  C   UNL     1       0.103  -4.073  -0.021  0.00  0.00    +0.267 C 
ATOM     15  O   UNL     1      -0.942  -4.696  -0.014  0.00  0.00    -0.268 OA
ATOM     16  H   UNL     1       0.918  -2.229  -0.019  0.00  0.00    +0.173 HD
BRANCH  13  21
ATOM     17  C   UNL     1      -0.018   1.461   0.010  0.00  0.00    +0.129 C 
ATOM     18  N   UNL     1       0.002  -0.004   0.002  0.00  0.00    -0.301 N 
ATOM     19  C   UNL     1      -1.156  -0.694   0.009  0.00  0.00    +0.316 C 
ATOM     20  O   UNL     1      -2.217  -0.100   0.023  0.00  0.00    -0.251 OA
ATOM     21  N   UNL     1      -1.137  -2.041   0.002  0.00  0.00    -0.218 N 
ATOM     22  H   UNL     1       0.849  -0.478  -0.009  0.00  0.00    +0.150 HD
ATOM     23  H   UNL     1      -1.971  -2.538   0.007  0.00  0.00    +0.174 HD
ENDBRANCH  13  21
ENDBRANCH   1  14
TORSDOF 3
