REMARK  Name = ZINC36747228
REMARK  5 active torsions:
REMARK  status: ('A' for Active; 'I' for Inactive)
REMARK    1  A    between atoms: C_7  and  C_11
REMARK    2  A    between atoms: C_11  and  N_12
REMARK    3  A    between atoms: N_12  and  C_13
REMARK    4  A    between atoms: C_13  and  C_14
REMARK    5  A    between atoms: C_14  and  C_15
REMARK                            x       y       z     vdW  Elec       q    Type
REMARK                         _______ _______ _______ _____ _____    ______ ____
ROOT
ATOM      1  C   UNL     1      -2.051  -3.068   0.004  0.00  0.00    -0.005 C 
ENDROOT
BRANCH   1   8
ATOM      2  C   UNL     1      -0.017   1.402   0.010  0.00  0.00    +0.036 A 
ATOM      3  C   UNL     1       1.138   2.095   0.002  0.00  0.00    +0.048 A 
ATOM      4  S   UNL     1       2.375   0.808  -0.016  0.00  0.00    -0.090 S 
ATOM      5  C   UNL     1       1.287  -0.591  -0.013  0.00  0.00    +0.104 A 
ATOM      6  C   UNL     1       0.002  -0.004   0.002  0.00  0.00    +0.085 A 
ATOM      7  N   UNL     1      -1.038  -0.873   0.007  0.00  0.00    -0.233 NA
ATOM      8  C   UNL     1      -0.844  -2.167  -0.002  0.00  0.00    +0.117 A 
ATOM      9  N   UNL     1       0.353  -2.726  -0.017  0.00  0.00    -0.195 NA
ATOM     10  C   UNL     1       1.446  -1.963  -0.022  0.00  0.00    +0.288 A 
ATOM     11  O   UNL     1       2.681  -2.520  -0.036  0.00  0.00    -0.265 OA
ENDBRANCH   1   8
BRANCH   1  12
ATOM     12  N   UNL     1      -2.457  -3.353  -1.378  0.00  0.00    +0.384 N 
ATOM     13  H   UNL     1      -2.685  -2.489  -1.847  0.00  0.00    -0.085 HD
ATOM     14  H   UNL     1      -1.700  -3.810  -1.864  0.00  0.00    -0.085 HD
BRANCH  12  15
ATOM     15  C   UNL     1      -3.634  -4.232  -1.372  0.00  0.00    -0.073 C 
BRANCH  15  16
ATOM     16  C   UNL     1      -4.057  -4.529  -2.812  0.00  0.00    +0.076 C 
BRANCH  16  17
ATOM     17  C   UNL     1      -5.264  -5.431  -2.805  0.00  0.00    +0.209 C 
ATOM     18  O   UNL     1      -5.740  -5.800  -1.752  0.00  0.00    -0.276 OA
ATOM     19  N   UNL     1      -5.816  -5.828  -3.969  0.00  0.00    -0.329 N 
ATOM     20  H   UNL     1      -5.435  -5.533  -4.812  0.00  0.00    +0.145 HD
ATOM     21  H   UNL     1      -6.593  -6.408  -3.965  0.00  0.00    +0.145 HD
ENDBRANCH  16  17
ENDBRANCH  15  16
ENDBRANCH  12  15
ENDBRANCH   1  12
TORSDOF 5
