REMARK  Name = ZINC09468888
REMARK  12 active torsions:
REMARK  status: ('A' for Active; 'I' for Inactive)
REMARK    1  A    between atoms: C_1  and  C_2
REMARK    2  A    between atoms: C_2  and  C_4
REMARK    3  A    between atoms: C_2  and  O_17
REMARK    4  A    between atoms: C_4  and  C_6
REMARK    5  A    between atoms: C_7  and  N_16
REMARK    6  A    between atoms: N_8  and  C_15
REMARK    7  A    between atoms: N_11  and  C_14
REMARK    8  A    between atoms: O_17  and  C_18
REMARK    9  A    between atoms: C_18  and  C_20
REMARK   10  A    between atoms: C_25  and  N_26
REMARK   11  A    between atoms: N_26  and  S_27
REMARK   12  A    between atoms: S_27  and  C_30
REMARK                            x       y       z     vdW  Elec       q    Type
REMARK                         _______ _______ _______ _____ _____    ______ ____
ROOT
ATOM      1  O   UNL     1       0.938   3.455  -0.625  0.00  0.00    -0.450 OA
ENDROOT
BRANCH   1   3
ATOM      2  C   UNL     1       1.677   1.854   1.054  0.00  0.00    +0.061 C 
ATOM      3  C   UNL     1       1.110   2.039  -0.354  0.00  0.00    +0.244 C 
BRANCH   3   4
ATOM      4  C   UNL     1      -0.223   1.343  -0.455  0.00  0.00    +0.212 C 
ATOM      5  O   UNL     1      -1.249   1.993  -0.460  0.00  0.00    -0.288 OA
BRANCH   4   6
ATOM      6  C   UNL     1      -0.279  -0.064  -0.548  0.00  0.00    +0.123 A 
ATOM      7  C   UNL     1      -1.509  -0.745  -0.522  0.00  0.00    +0.116 A 
ATOM      8  N   UNL     1      -1.512  -2.107  -0.615  0.00  0.00    -0.284 N 
ATOM      9  C   UNL     1      -0.369  -2.801  -0.731  0.00  0.00    +0.333 A 
ATOM     10  O   UNL     1      -0.425  -4.013  -0.810  0.00  0.00    -0.246 OA
ATOM     11  N   UNL     1       0.835  -2.206  -0.761  0.00  0.00    -0.263 N 
ATOM     12  C   UNL     1       0.945  -0.864  -0.682  0.00  0.00    +0.269 A 
ATOM     13  O   UNL     1       2.037  -0.328  -0.715  0.00  0.00    -0.267 OA
ATOM     14  C   UNL     1       2.043  -3.025  -0.888  0.00  0.00    +0.157 C 
ATOM     15  C   UNL     1      -2.788  -2.825  -0.590  0.00  0.00    +0.155 C 
BRANCH   7  16
ATOM     16  N   UNL     1      -2.677  -0.057  -0.405  0.00  0.00    -0.344 N 
ATOM     17  H   UNL     1      -3.502  -0.443  -0.739  0.00  0.00    +0.144 HD
ATOM     18  H   UNL     1      -2.685   0.819   0.012  0.00  0.00    +0.144 HD
ENDBRANCH   7  16
ENDBRANCH   4   6
ENDBRANCH   3   4
ENDBRANCH   1   3
BRANCH   1  19
ATOM     19  C   UNL     1       1.980   4.103  -1.182  0.00  0.00    +0.342 C 
ATOM     20  O   UNL     1       3.005   3.500  -1.434  0.00  0.00    -0.245 OA
BRANCH  19  21
ATOM     21  C   UNL     1       1.878   5.540  -1.484  0.00  0.00    +0.081 A 
ATOM     22  C   UNL     1       0.701   6.238  -1.196  0.00  0.00    +0.017 A 
ATOM     23  C   UNL     1       0.611   7.582  -1.482  0.00  0.00    +0.001 A 
ATOM     24  C   UNL     1       1.683   8.250  -2.054  0.00  0.00    +0.002 A 
ATOM     25  C   UNL     1       2.852   7.576  -2.345  0.00  0.00    +0.025 A 
ATOM     26  C   UNL     1       2.963   6.221  -2.059  0.00  0.00    +0.062 A 
BRANCH  26  27
ATOM     27  N   UNL     1       4.140   5.542  -2.345  0.00  0.00    -0.215 N 
ATOM     28  H   UNL     1       4.108   4.621  -2.647  0.00  0.00    +0.174 HD
BRANCH  27  29
ATOM     29  S   UNL     1       5.600   6.305  -2.170  0.00  0.00    +0.079 S 
ATOM     30  O   UNL     1       6.601   5.323  -2.399  0.00  0.00    -0.149 OA
ATOM     31  O   UNL     1       5.523   7.506  -2.925  0.00  0.00    -0.149 OA
BRANCH  29  32
ATOM     32  C   UNL     1       5.739   6.781  -0.479  0.00  0.00    +0.146 A 
ATOM     33  C   UNL     1       6.262   6.088   0.563  0.00  0.00    +0.036 A 
ATOM     34  C   UNL     1       6.266   6.667   1.818  0.00  0.00    +0.010 A 
ATOM     35  C   UNL     1       5.747   7.910   1.970  0.00  0.00    +0.047 A 
ATOM     36  S   UNL     1       5.235   8.303   0.306  0.00  0.00    -0.077 S 
ENDBRANCH  29  32
ENDBRANCH  27  29
ENDBRANCH  26  27
ENDBRANCH  19  21
ENDBRANCH   1  19
TORSDOF 9
