REMARK  Name = ZINC29549476
REMARK  7 active torsions:
REMARK  status: ('A' for Active; 'I' for Inactive)
REMARK    1  A    between atoms: C_1  and  C_2
REMARK    2  A    between atoms: C_6  and  C_33
REMARK    3  A    between atoms: C_7  and  N_8
REMARK    4  A    between atoms: C_16  and  C_31
REMARK    5  A    between atoms: C_18  and  O_20
REMARK    6  A    between atoms: O_20  and  C_21
REMARK    7  A    between atoms: C_25  and  C_27
REMARK                            x       y       z     vdW  Elec       q    Type
REMARK                         _______ _______ _______ _____ _____    ______ ____
ROOT
ATOM      1  N   UNL     1       1.025  -4.727  -0.887  0.00  0.00    -0.326 N 
ATOM      2  C   UNL     1       0.313  -4.306   0.328  0.00  0.00    +0.124 C 
ATOM      3  C   UNL     1       0.379  -2.782   0.452  0.00  0.00    +0.125 C 
ATOM      4  N   UNL     1       1.785  -2.357   0.495  0.00  0.00    -0.310 N 
ATOM      5  C   UNL     1       2.497  -2.778  -0.720  0.00  0.00    +0.125 C 
ATOM      6  C   UNL     1       2.431  -4.302  -0.844  0.00  0.00    +0.124 C 
ATOM      7  C   UNL     1       1.885  -0.980   0.680  0.00  0.00    +0.161 A 
ATOM      8  C   UNL     1       3.140  -0.383   0.747  0.00  0.00    +0.169 A 
ATOM      9  C   UNL     1       3.228   0.988   0.930  0.00  0.00    +0.029 A 
ATOM     10  C   UNL     1       2.053   1.719   1.041  0.00  0.00    +0.191 A 
ATOM     11  C   UNL     1       0.834   1.059   0.965  0.00  0.00    +0.259 A 
ATOM     12  N   UNL     1       0.784  -0.252   0.789  0.00  0.00    -0.192 NA
ATOM     13  F   UNL     1       2.096   3.057   1.221  0.00  0.00    -0.200 F 
ATOM     14  C   UNL     1       4.570   1.670   1.008  0.00  0.00    +0.050 C 
ATOM     15  F   UNL     1       4.259  -1.131   0.634  0.00  0.00    -0.202 F 
ENDROOT
BRANCH   1  22
ATOM     16  C   UNL     1       0.046  -5.679  -3.383  0.00  0.00    +0.045 C 
ATOM     17  C   UNL     1       0.452  -6.617  -2.275  0.00  0.00    -0.029 A 
ATOM     18  C   UNL     1       0.359  -7.982  -2.457  0.00  0.00    +0.005 A 
ATOM     19  C   UNL     1       0.726  -8.844  -1.439  0.00  0.00    +0.001 A 
ATOM     20  C   UNL     1       1.192  -8.341  -0.238  0.00  0.00    +0.005 A 
ATOM     21  C   UNL     1       1.293  -6.976  -0.051  0.00  0.00    -0.029 A 
ATOM     22  C   UNL     1       0.925  -6.108  -1.072  0.00  0.00    +0.036 A 
ATOM     23  C   UNL     1       1.801  -6.429   1.257  0.00  0.00    +0.045 C 
ENDBRANCH   1  22
BRANCH  11  24
ATOM     24  O   UNL     1      -0.320   1.767   1.067  0.00  0.00    -0.436 OA
BRANCH  24  25
ATOM     25  C   UNL     1      -1.493   1.105   0.886  0.00  0.00    +0.131 A 
ATOM     26  C   UNL     1      -1.983   0.275   1.886  0.00  0.00    +0.046 A 
ATOM     27  C   UNL     1      -3.176  -0.401   1.707  0.00  0.00    +0.004 A 
ATOM     28  C   UNL     1      -3.887  -0.254   0.532  0.00  0.00    +0.011 A 
ATOM     29  C   UNL     1      -3.402   0.577  -0.477  0.00  0.00    +0.016 A 
ATOM     30  C   UNL     1      -2.202   1.262  -0.293  0.00  0.00    +0.057 A 
BRANCH  29  31
ATOM     31  C   UNL     1      -4.163   0.736  -1.738  0.00  0.00    +0.094 C 
ATOM     32  N   UNL     1      -3.708   1.513  -2.679  0.00  0.00    -0.387 N 
ATOM     33  N   UNL     1      -5.351   0.062  -1.915  0.00  0.00    -0.345 N 
ATOM     34  H   UNL     1      -4.273   1.631  -3.615  0.00  0.00    +0.157 HD
ATOM     35  H   UNL     1      -5.916   0.180  -2.851  0.00  0.00    +0.144 HD
ATOM     36  H   UNL     1      -5.735  -0.594  -1.120  0.00  0.00    +0.144 HD
ATOM     37  H   UNL     1      -2.760   2.052  -2.537  0.00  0.00    +0.157 HD
ENDBRANCH  29  31
ENDBRANCH  24  25
ENDBRANCH  11  24
TORSDOF 4
