REMARK  Name = ZINC66148075
REMARK  10 active torsions:
REMARK  status: ('A' for Active; 'I' for Inactive)
REMARK    1  A    between atoms: C_1  and  C_2
REMARK    2  A    between atoms: C_2  and  C_4
REMARK    3  A    between atoms: C_2  and  N_19
REMARK    4  A    between atoms: C_4  and  C_5
REMARK    5  A    between atoms: N_7  and  C_8
REMARK    6  A    between atoms: C_8  and  C_9
REMARK    7  A    between atoms: C_9  and  C_11
REMARK    8  A    between atoms: C_9  and  N_12
REMARK    9  A    between atoms: N_15  and  C_18
REMARK   10  A    between atoms: C_20  and  C_22
REMARK                            x       y       z     vdW  Elec       q    Type
REMARK                         _______ _______ _______ _____ _____    ______ ____
ROOT
ATOM      1  C   UNL     1       0.428  -2.338   1.170  0.00  0.00    +0.215 C 
ATOM      2  O   UNL     1       0.067  -3.021   0.235  0.00  0.00    -0.276 OA
ATOM      3  N   UNL     1       1.166  -2.883   2.157  0.00  0.00    -0.314 N 
ATOM      4  H   UNL     1       1.455  -2.337   2.905  0.00  0.00    +0.149 HD
ENDROOT
BRANCH   1   5
ATOM      5  C   UNL     1       0.051  -0.880   1.228  0.00  0.00    +0.117 C 
BRANCH   5   7
ATOM      6  C   UNL     1      -1.058   0.986  -0.009  0.00  0.00    +0.028 C 
ATOM      7  C   UNL     1      -0.781  -0.519  -0.004  0.00  0.00    +0.079 C 
BRANCH   7   8
ATOM      8  N   UNL     1      -2.050  -1.250   0.032  0.00  0.00    -0.312 N 
ATOM      9  C   UNL     1      -2.713  -1.506  -1.113  0.00  0.00    +0.216 C 
ATOM     10  O   UNL     1      -2.259  -1.133  -2.173  0.00  0.00    -0.276 OA
ATOM     11  H   UNL     1      -2.414  -1.548   0.880  0.00  0.00    +0.149 HD
BRANCH   9  12
ATOM     12  C   UNL     1      -4.019  -2.258  -1.075  0.00  0.00    +0.075 C 
ATOM     13  C   UNL     1      -3.795  -3.680  -0.523  0.00  0.00    +0.013 C 
ATOM     14  C   UNL     1      -4.757  -4.566  -1.352  0.00  0.00    +0.001 C 
ATOM     15  C   UNL     1      -4.667  -3.939  -2.765  0.00  0.00    +0.001 C 
ATOM     16  C   UNL     1      -4.574  -2.422  -2.501  0.00  0.00    +0.013 C 
ENDBRANCH   9  12
ENDBRANCH   7   8
ENDBRANCH   5   7
ENDBRANCH   1   5
BRANCH   3  17
ATOM     17  C   UNL     1       1.532  -4.301   2.101  0.00  0.00    +0.122 C 
BRANCH  17  18
ATOM     18  C   UNL     1       2.462  -4.634   3.269  0.00  0.00    +0.070 C 
ATOM     19  C   UNL     1       2.755  -6.136   3.276  0.00  0.00    +0.026 C 
BRANCH  18  20
ATOM     20  N   UNL     1       1.816  -4.256   4.533  0.00  0.00    -0.302 NA
ATOM     21  C   UNL     1       2.771  -4.304   5.649  0.00  0.00    +0.066 C 
ATOM     22  C   UNL     1       2.075  -3.847   6.933  0.00  0.00    -0.064 C 
ATOM     23  N   UNL     1       0.930  -4.725   7.208  0.00  0.00    +0.379 N 
ATOM     24  C   UNL     1      -0.027  -4.647   6.096  0.00  0.00    -0.064 C 
ATOM     25  C   UNL     1       0.651  -5.110   4.805  0.00  0.00    +0.066 C 
ATOM     26  C   UNL     1       0.273  -4.297   8.450  0.00  0.00    -0.096 C 
ATOM     27  H   UNL     1       1.251  -5.676   7.308  0.00  0.00    -0.082 HD
ENDBRANCH  18  20
ENDBRANCH  17  18
ENDBRANCH   3  17
TORSDOF 7
