REMARK  Name = ZINC38288172
REMARK  10 active torsions:
REMARK  status: ('A' for Active; 'I' for Inactive)
REMARK    1  A    between atoms: C_1  and  C_2
REMARK    2  A    between atoms: C_2  and  C_3
REMARK    3  A    between atoms: C_6  and  N_9
REMARK    4  A    between atoms: C_10  and  C_12
REMARK    5  A    between atoms: C_15  and  C_31
REMARK    6  A    between atoms: C_16  and  C_17
REMARK    7  A    between atoms: C_16  and  C_18
REMARK    8  A    between atoms: N_20  and  O_21
REMARK    9  A    between atoms: O_21  and  C_22
REMARK   10  A    between atoms: C_22  and  C_24
REMARK                            x       y       z     vdW  Elec       q    Type
REMARK                         _______ _______ _______ _____ _____    ______ ____
ROOT
ATOM      1  C   UNL     1       4.715  -2.327  -5.947  0.00  0.00    +0.058 C 
ATOM      2  C   UNL     1       4.360  -3.723  -6.545  0.00  0.00    +0.018 C 
ATOM      3  C   UNL     1       5.536  -4.048  -7.494  0.00  0.00    +0.014 C 
ATOM      4  C   UNL     1       6.490  -2.820  -7.371  0.00  0.00    +0.015 C 
ATOM      5  C   UNL     1       6.279  -2.437  -5.864  0.00  0.00    -0.010 C 
ATOM      6  C   UNL     1       6.931  -1.103  -5.494  0.00  0.00    +0.013 C 
ATOM      7  C   UNL     1       6.727  -3.566  -4.933  0.00  0.00    +0.013 C 
ATOM      8  C   UNL     1       5.739  -1.677  -8.068  0.00  0.00    +0.066 C 
ATOM      9  N   UNL     1       6.034  -1.121  -9.182  0.00  0.00    -0.083 NA
ATOM     10  C   UNL     1       4.571  -1.329  -7.138  0.00  0.00    +0.071 C 
ATOM     11  C   UNL     1       7.937  -3.053  -7.811  0.00  0.00    +0.018 C 
ENDROOT
BRANCH   1  13
ATOM     12  N   UNL     1       2.657  -1.834  -4.665  0.00  0.00    -0.285 N 
ATOM     13  C   UNL     1       4.000  -1.949  -4.676  0.00  0.00    +0.224 C 
ATOM     14  O   UNL     1       4.634  -1.749  -3.661  0.00  0.00    -0.275 OA
ATOM     15  H   UNL     1       2.145  -2.058  -5.458  0.00  0.00    +0.155 HD
BRANCH  12  19
ATOM     16  C   UNL     1       0.707  -0.510  -1.231  0.00  0.00    -0.048 A 
ATOM     17  C   UNL     1       1.838  -1.298  -1.121  0.00  0.00    +0.005 A 
ATOM     18  C   UNL     1       2.487  -1.738  -2.258  0.00  0.00    +0.023 A 
ATOM     19  C   UNL     1       2.002  -1.389  -3.512  0.00  0.00    +0.033 A 
ATOM     20  C   UNL     1       0.865  -0.599  -3.618  0.00  0.00    +0.023 A 
ATOM     21  C   UNL     1       0.218  -0.166  -2.478  0.00  0.00    +0.005 A 
BRANCH  16  23
ATOM     22  C   UNL     1      -1.057  -1.057   0.425  0.00  0.00    +0.009 C 
ATOM     23  C   UNL     1       0.001  -0.031   0.012  0.00  0.00    +0.032 C 
ENDBRANCH  16  23
ENDBRANCH  12  19
ENDBRANCH   1  13
BRANCH   9  24
ATOM     24  O   UNL     1       7.165  -1.556  -9.913  0.00  0.00    -0.312 OA
BRANCH  24  25
ATOM     25  C   UNL     1       7.362  -0.889 -11.066  0.00  0.00    +0.366 C 
ATOM     26  O   UNL     1       6.599  -0.002 -11.393  0.00  0.00    -0.243 OA
BRANCH  25  27
ATOM     27  C   UNL     1       8.507  -1.235 -11.934  0.00  0.00    +0.061 A 
ATOM     28  C   UNL     1       9.383  -2.258 -11.564  0.00  0.00    +0.015 A 
ATOM     29  C   UNL     1      10.449  -2.576 -12.379  0.00  0.00    +0.001 A 
ATOM     30  C   UNL     1      10.652  -1.884 -13.560  0.00  0.00    +0.000 A 
ATOM     31  C   UNL     1       9.787  -0.870 -13.933  0.00  0.00    +0.001 A 
ATOM     32  C   UNL     1       8.713  -0.546 -13.130  0.00  0.00    +0.015 A 
ENDBRANCH  25  27
ENDBRANCH  24  25
ENDBRANCH   9  24
TORSDOF 6
