REMARK  Name = ZINC01617286
REMARK  5 active torsions:
REMARK  status: ('A' for Active; 'I' for Inactive)
REMARK    1  A    between atoms: C_4  and  C_7
REMARK    2  A    between atoms: C_10  and  N_19
REMARK    3  A    between atoms: N_19  and  C_20
REMARK    4  A    between atoms: C_20  and  N_22
REMARK    5  A    between atoms: N_22  and  N_23
REMARK                            x       y       z     vdW  Elec       q    Type
REMARK                         _______ _______ _______ _____ _____    ______ ____
ROOT
ATOM      1  C   UNL     1       3.644  -2.069   0.274  0.00  0.00    +0.206 C 
ATOM      2  C   UNL     1       2.515  -2.762  -0.500  0.00  0.00    +0.076 C 
ATOM      3  C   UNL     1       1.180  -2.191  -0.017  0.00  0.00    +0.110 C 
ATOM      4  C   UNL     1       1.248  -0.684  -0.001  0.00  0.00    +0.015 A 
ATOM      5  C   UNL     1       0.066   0.036   0.042  0.00  0.00    +0.009 A 
ATOM      6  C   UNL     1       0.091   1.416   0.063  0.00  0.00    +0.001 A 
ATOM      7  C   UNL     1       1.301   2.086   0.042  0.00  0.00    +0.004 A 
ATOM      8  C   UNL     1       2.482   1.374  -0.002  0.00  0.00    +0.046 A 
ATOM      9  C   UNL     1       2.460  -0.017  -0.025  0.00  0.00    +0.126 A 
ATOM     10  O   UNL     1       3.643  -0.683  -0.073  0.00  0.00    -0.484 OA
ENDROOT
BRANCH   1  14
ATOM     11  C   UNL     1       7.396  -3.815  -0.782  0.00  0.00    +0.000 A 
ATOM     12  C   UNL     1       6.718  -4.259   0.337  0.00  0.00    +0.000 A 
ATOM     13  C   UNL     1       5.504  -3.694   0.679  0.00  0.00    +0.007 A 
ATOM     14  C   UNL     1       4.968  -2.685  -0.099  0.00  0.00    -0.007 A 
ATOM     15  C   UNL     1       5.643  -2.244  -1.221  0.00  0.00    +0.007 A 
ATOM     16  C   UNL     1       6.860  -2.806  -1.560  0.00  0.00    +0.000 A 
ENDBRANCH   1  14
BRANCH   3  17
ATOM     17  N   UNL     1       0.901  -2.681   1.335  0.00  0.00    -0.319 N 
ATOM     18  H   UNL     1       1.183  -2.164   2.106  0.00  0.00    +0.148 HD
BRANCH  17  19
ATOM     19  C   UNL     1       0.253  -3.850   1.508  0.00  0.00    +0.144 C 
ATOM     20  S   UNL     1      -0.123  -4.828   0.154  0.00  0.00    -0.018 S 
BRANCH  19  21
ATOM     21  N   UNL     1      -0.099  -4.249   2.746  0.00  0.00    -0.265 N 
ATOM     22  H   UNL     1      -0.565  -5.090   2.870  0.00  0.00    +0.168 HD
BRANCH  21  23
ATOM     23  N   UNL     1       0.201  -3.468   3.826  0.00  0.00    -0.255 NA
ATOM     24  H   UNL     1      -0.123  -3.894   4.681  0.00  0.00    +0.140 HD
ATOM     25  H   UNL     1       1.190  -3.276   3.870  0.00  0.00    +0.140 HD
ENDBRANCH  21  23
ENDBRANCH  19  21
ENDBRANCH  17  19
ENDBRANCH   3  17
TORSDOF 5
