REMARK  Name = ZINC62070898
REMARK  8 active torsions:
REMARK  status: ('A' for Active; 'I' for Inactive)
REMARK    1  A    between atoms: C_1  and  C_2
REMARK    2  A    between atoms: C_2  and  C_4
REMARK    3  A    between atoms: C_2  and  C_17
REMARK    4  A    between atoms: C_4  and  N_5
REMARK    5  A    between atoms: C_6  and  C_8
REMARK    6  A    between atoms: C_13  and  N_14
REMARK    7  A    between atoms: N_14  and  N_15
REMARK    8  A    between atoms: C_17  and  N_18
REMARK                            x       y       z     vdW  Elec       q    Type
REMARK                         _______ _______ _______ _____ _____    ______ ____
ROOT
ATOM      1  N   UNL     1       2.143  -0.085   1.182  0.00  0.00    -0.311 N 
ATOM      2  C   UNL     1       2.996  -0.438   2.164  0.00  0.00    +0.246 C 
ATOM      3  O   UNL     1       2.599  -1.093   3.108  0.00  0.00    -0.270 OA
ATOM      4  H   UNL     1       2.459   0.438   0.429  0.00  0.00    +0.149 HD
ENDROOT
BRANCH   2   5
ATOM      5  C   UNL     1       4.411  -0.030   2.092  0.00  0.00    +0.060 A 
ATOM      6  C   UNL     1       4.900   0.617   0.954  0.00  0.00    +0.035 A 
ATOM      7  C   UNL     1       6.224   0.996   0.894  0.00  0.00    +0.042 A 
ATOM      8  C   UNL     1       7.075   0.738   1.958  0.00  0.00    +0.022 A 
ATOM      9  C   UNL     1       6.607   0.100   3.088  0.00  0.00    +0.026 A 
ATOM     10  C   UNL     1       5.274  -0.284   3.170  0.00  0.00    +0.053 A 
ATOM     11 CL   UNL     1       6.829   1.798  -0.521  0.00  0.00    -0.084 Cl
BRANCH  10  12
ATOM     12  N   UNL     1       4.799  -0.921   4.309  0.00  0.00    -0.282 N 
ATOM     13  H   UNL     1       3.889  -1.257   4.334  0.00  0.00    +0.166 HD
BRANCH  12  14
ATOM     14  N   UNL     1       5.613  -1.073   5.396  0.00  0.00    -0.256 NA
ATOM     15  H   UNL     1       5.133  -1.552   6.143  0.00  0.00    +0.140 HD
ATOM     16  H   UNL     1       6.463  -1.556   5.146  0.00  0.00    +0.140 HD
ENDBRANCH  12  14
ENDBRANCH  10  12
ENDBRANCH   2   5
BRANCH   1  17
ATOM     17  C   UNL     1       0.737  -0.490   1.253  0.00  0.00    +0.106 C 
BRANCH  17  19
ATOM     18  C   UNL     1      -0.026   1.566   0.055  0.00  0.00    +0.007 C 
ATOM     19  C   UNL     1      -0.008   0.036   0.024  0.00  0.00    -0.014 C 
BRANCH  19  20
ATOM     20  C   UNL     1      -1.444  -0.491   0.034  0.00  0.00    -0.074 C 
BRANCH  20  21
ATOM     21  N   UNL     1      -2.123  -0.085  -1.204  0.00  0.00    +0.380 N 
ATOM     22  C   UNL     1      -1.540  -0.802  -2.366  0.00  0.00    -0.079 C 
ATOM     23  C   UNL     1      -2.663  -0.724  -3.431  0.00  0.00    -0.020 C 
ATOM     24  C   UNL     1      -3.949  -0.887  -2.588  0.00  0.00    -0.020 C 
ATOM     25  C   UNL     1      -3.547  -0.483  -1.158  0.00  0.00    -0.079 C 
ATOM     26  H   UNL     1      -2.045   0.912  -1.333  0.00  0.00    -0.082 HD
ENDBRANCH  20  21
ENDBRANCH  19  20
ENDBRANCH  17  19
ENDBRANCH   1  17
TORSDOF 7
