REMARK  Name = ZINC40915873
REMARK  7 active torsions:
REMARK  status: ('A' for Active; 'I' for Inactive)
REMARK    1  A    between atoms: C_1  and  C_2
REMARK    2  A    between atoms: C_3  and  C_22
REMARK    3  A    between atoms: C_4  and  C_12
REMARK    4  A    between atoms: C_15  and  O_18
REMARK    5  A    between atoms: O_18  and  C_19
REMARK    6  A    between atoms: C_19  and  C_20
REMARK    7  A    between atoms: C_19  and  C_21
REMARK                            x       y       z     vdW  Elec       q    Type
REMARK                         _______ _______ _______ _____ _____    ______ ____
ROOT
ATOM      1  C   UNL     1       0.976   0.512   0.269  0.00  0.00    +0.061 C 
ATOM      2  C   UNL     1       0.772  -0.975   0.129  0.00  0.00    +0.018 C 
ATOM      3  C   UNL     1      -0.477  -1.462   0.143  0.00  0.00    +0.060 C 
ATOM      4  C   UNL     1      -0.789  -2.928  -0.002  0.00  0.00    +0.177 C 
ATOM      5  N   UNL     1       0.440  -3.703   0.141  0.00  0.00    -0.221 N 
ATOM      6  C   UNL     1       1.680  -3.153   0.130  0.00  0.00    +0.218 A 
ATOM      7  N   UNL     1       2.549  -4.116   0.271  0.00  0.00    -0.201 NA
ATOM      8  C   UNL     1       1.908  -5.284   0.379  0.00  0.00    +0.247 A 
ATOM      9  N   UNL     1       0.617  -5.076   0.305  0.00  0.00    -0.156 NA
ATOM     10  N   UNL     1       1.873  -1.784  -0.014  0.00  0.00    -0.287 N 
ATOM     11  H   UNL     1       2.749  -1.415  -0.204  0.00  0.00    +0.155 HD
ENDROOT
BRANCH   4  12
ATOM     12  C   UNL     1      -1.389  -3.182  -1.360  0.00  0.00    -0.018 A 
ATOM     13  C   UNL     1      -0.666  -2.885  -2.501  0.00  0.00    +0.009 A 
ATOM     14  C   UNL     1      -1.215  -3.117  -3.747  0.00  0.00    +0.046 A 
ATOM     15  C   UNL     1      -2.492  -3.649  -3.854  0.00  0.00    +0.121 A 
ATOM     16  C   UNL     1      -3.215  -3.946  -2.708  0.00  0.00    +0.046 A 
ATOM     17  C   UNL     1      -2.660  -3.717  -1.464  0.00  0.00    +0.009 A 
BRANCH  15  18
ATOM     18  O   UNL     1      -3.033  -3.877  -5.079  0.00  0.00    -0.489 OA
BRANCH  18  19
ATOM     19  C   UNL     1      -2.282  -3.438  -6.213  0.00  0.00    +0.167 C 
ATOM     20  C   UNL     1      -1.260  -4.511  -6.594  0.00  0.00    +0.051 C 
ATOM     21  C   UNL     1      -3.230  -3.196  -7.390  0.00  0.00    +0.051 C 
ENDBRANCH  18  19
ENDBRANCH  15  18
ENDBRANCH   4  12
BRANCH   3  22
ATOM     22  C   UNL     1      -1.552  -0.556   0.300  0.00  0.00    +0.241 C 
ATOM     23  O   UNL     1      -1.331   0.636   0.420  0.00  0.00    -0.271 OA
ATOM     24  N   UNL     1      -2.820  -1.011   0.319  0.00  0.00    -0.325 N 
ATOM     25  H   UNL     1      -2.996  -1.961   0.224  0.00  0.00    +0.145 HD
ATOM     26  H   UNL     1      -3.557  -0.390   0.427  0.00  0.00    +0.145 HD
ENDBRANCH   3  22
TORSDOF 4
