REMARK  Name = ZINC66856617
REMARK  3 active torsions:
REMARK  status: ('A' for Active; 'I' for Inactive)
REMARK    1  A    between atoms: C_8  and  C_13
REMARK    2  A    between atoms: N_15  and  C_16
REMARK    3  A    between atoms: C_19  and  C_22
REMARK                            x       y       z     vdW  Elec       q    Type
REMARK                         _______ _______ _______ _____ _____    ______ ____
ROOT
ATOM      1  C   UNL     1       2.720  -4.213   0.491  0.00  0.00    +0.265 C 
ATOM      2  O   UNL     1       1.824  -4.868   0.987  0.00  0.00    -0.268 OA
ATOM      3  N   UNL     1       3.782  -4.832  -0.062  0.00  0.00    -0.280 N 
ATOM      4  H   UNL     1       4.463  -4.313  -0.517  0.00  0.00    +0.155 HD
ENDROOT
BRANCH   1  12
ATOM      5  C   UNL     1       0.363   1.369   1.611  0.00  0.00    +0.001 A 
ATOM      6  C   UNL     1       1.399   2.095   1.038  0.00  0.00    +0.001 A 
ATOM      7  C   UNL     1       2.482   1.453   0.475  0.00  0.00    +0.014 A 
ATOM      8  C   UNL     1       2.536   0.062   0.481  0.00  0.00    +0.046 A 
ATOM      9  C   UNL     1       1.482  -0.679   1.065  0.00  0.00    -0.011 A 
ATOM     10  C   UNL     1       0.395  -0.008   1.629  0.00  0.00    +0.009 A 
ATOM     11  C   UNL     1       1.566  -2.139   1.056  0.00  0.00    +0.039 A 
ATOM     12  C   UNL     1       2.644  -2.740   0.494  0.00  0.00    +0.105 A 
ATOM     13  N   UNL     1       3.671  -2.018  -0.074  0.00  0.00    -0.318 N 
ATOM     14  H   UNL     1       4.421  -2.495  -0.464  0.00  0.00    +0.169 HD
ATOM     15  C   UNL     1       3.667  -0.671  -0.106  0.00  0.00    +0.257 A 
ATOM     16  O   UNL     1       4.592  -0.066  -0.617  0.00  0.00    -0.267 OA
ENDBRANCH   1  12
BRANCH   3  17
ATOM     17  C   UNL     1       3.900  -6.221   0.019  0.00  0.00    +0.034 A 
ATOM     18  C   UNL     1       2.764  -7.019  -0.048  0.00  0.00    +0.024 A 
ATOM     19  C   UNL     1       2.878  -8.390   0.032  0.00  0.00    +0.013 A 
ATOM     20  C   UNL     1       4.136  -8.977   0.180  0.00  0.00    +0.019 A 
ATOM     21  C   UNL     1       5.275  -8.173   0.246  0.00  0.00    +0.013 A 
ATOM     22  C   UNL     1       5.155  -6.803   0.161  0.00  0.00    +0.024 A 
BRANCH  20  23
ATOM     23  C   UNL     1       4.262 -10.448   0.267  0.00  0.00    +0.164 A 
ATOM     24  N   UNL     1       5.301 -11.123   0.716  0.00  0.00    -0.129 NA
ATOM     25  N   UNL     1       5.062 -12.388   0.647  0.00  0.00    -0.134 NA
ATOM     26  C   UNL     1       3.875 -12.588   0.158  0.00  0.00    +0.134 A 
ATOM     27  N   UNL     1       3.325 -11.365  -0.096  0.00  0.00    -0.311 N 
ATOM     28  C   UNL     1       1.990 -11.149  -0.652  0.00  0.00    +0.125 C 
ATOM     29  C   UNL     1       1.501 -12.459  -1.280  0.00  0.00    +0.022 C 
ATOM     30  C   UNL     1       1.674 -13.605  -0.279  0.00  0.00    +0.009 C 
ATOM     31  C   UNL     1       3.172 -13.897  -0.100  0.00  0.00    +0.076 C 
ENDBRANCH  20  23
ENDBRANCH   3  17
TORSDOF 3
