REMARK  Name = ZINC39995866
REMARK  8 active torsions:
REMARK  status: ('A' for Active; 'I' for Inactive)
REMARK    1  A    between atoms: C_1  and  C_2
REMARK    2  A    between atoms: C_2  and  C_4
REMARK    3  A    between atoms: C_2  and  S_15
REMARK    4  A    between atoms: N_6  and  C_7
REMARK    5  A    between atoms: C_8  and  C_12
REMARK    6  A    between atoms: S_15  and  C_16
REMARK    7  A    between atoms: C_20  and  C_25
REMARK    8  A    between atoms: N_21  and  C_22
REMARK                            x       y       z     vdW  Elec       q    Type
REMARK                         _______ _______ _______ _____ _____    ______ ____
ROOT
ATOM      1  C   UNL     1      -2.284  -0.111   1.583  0.00  0.00    +0.238 C 
ATOM      2  N   UNL     1      -2.040   1.341   1.618  0.00  0.00    -0.237 N 
ATOM      3  N   UNL     1      -1.366   1.602   2.816  0.00  0.00    -0.169 NA
ATOM      4  C   UNL     1      -1.173   0.506   3.501  0.00  0.00    +0.147 C 
ATOM      5  N   UNL     1      -1.699  -0.610   2.838  0.00  0.00    -0.282 N 
ATOM      6  H   UNL     1      -2.296   1.988   0.943  0.00  0.00    +0.171 HD
ENDROOT
BRANCH   4   7
ATOM      7  C   UNL     1      -0.523   0.454   4.744  0.00  0.00    +0.022 C 
ATOM      8  C   UNL     1      -0.067   1.532   5.503  0.00  0.00    +0.006 A 
ATOM      9  C   UNL     1      -0.102   2.927   5.295  0.00  0.00    +0.010 A 
ATOM     10  C   UNL     1       0.430   3.760   6.226  0.00  0.00    +0.001 A 
ATOM     11  C   UNL     1       1.018   3.272   7.394  0.00  0.00    +0.002 A 
ATOM     12  C   UNL     1       1.087   1.944   7.659  0.00  0.00    +0.026 A 
ATOM     13  C   UNL     1       0.552   1.011   6.733  0.00  0.00    +0.043 A 
ATOM     14  N   UNL     1       0.494  -0.306   6.757  0.00  0.00    -0.380 N 
ATOM     15  C   UNL     1      -0.177  -0.783   5.543  0.00  0.00    +0.152 C 
ATOM     16  H   UNL     1       0.837  -0.870   7.467  0.00  0.00    +0.160 HD
ENDBRANCH   4   7
BRANCH   5  17
ATOM     17  C   UNL     1      -1.673  -2.000   3.301  0.00  0.00    +0.078 C 
ATOM     18  C   UNL     1      -2.236  -3.068   2.361  0.00  0.00    +0.024 C 
ATOM     19  C   UNL     1      -3.014  -2.665   3.615  0.00  0.00    +0.024 C 
ENDBRANCH   5  17
BRANCH   1  20
ATOM     20  S   UNL     1      -1.454  -0.860   0.155  0.00  0.00    -0.106 S 
BRANCH  20  22
ATOM     21  C   UNL     1       0.429   1.122   0.247  0.00  0.00    +0.029 C 
ATOM     22  C   UNL     1       0.287  -0.397   0.367  0.00  0.00    +0.133 C 
BRANCH  22  23
ATOM     23  C   UNL     1       1.118  -1.064  -0.699  0.00  0.00    +0.230 C 
ATOM     24  O   UNL     1       0.608  -1.389  -1.750  0.00  0.00    -0.274 OA
ATOM     25  N   UNL     1       2.428  -1.299  -0.484  0.00  0.00    -0.278 N 
ATOM     26  H   UNL     1       2.836  -1.039   0.357  0.00  0.00    +0.155 HD
BRANCH  25  27
ATOM     27  C   UNL     1       3.192  -1.913  -1.465  0.00  0.00    +0.084 A 
ATOM     28  C   UNL     1       4.540  -2.236  -1.417  0.00  0.00    +0.065 A 
ATOM     29  C   UNL     1       5.092  -2.878  -2.588  0.00  0.00    +0.022 A 
ATOM     30  C   UNL     1       4.232  -3.091  -3.601  0.00  0.00    +0.048 A 
ATOM     31  S   UNL     1       2.697  -2.442  -2.978  0.00  0.00    -0.081 S 
BRANCH  28  32
ATOM     32  C   UNL     1       5.363  -1.942  -0.239  0.00  0.00    +0.244 C 
ATOM     33  O   UNL     1       4.865  -1.400   0.730  0.00  0.00    -0.270 OA
ATOM     34  N   UNL     1       6.669  -2.272  -0.231  0.00  0.00    -0.325 N 
ATOM     35  H   UNL     1       7.066  -2.703  -1.004  0.00  0.00    +0.145 HD
ATOM     36  H   UNL     1       7.213  -2.077   0.548  0.00  0.00    +0.145 HD
ENDBRANCH  28  32
ENDBRANCH  25  27
ENDBRANCH  22  23
ENDBRANCH  20  22
ENDBRANCH   1  20
TORSDOF 7
