REMARK  Name = ZINC06621501
REMARK  6 active torsions:
REMARK  status: ('A' for Active; 'I' for Inactive)
REMARK    1  A    between atoms: C_1  and  N_49
REMARK    2  A    between atoms: C_8  and  O_25
REMARK    3  A    between atoms: C_10  and  C_12
REMARK    4  A    between atoms: C_13  and  C_19
REMARK    5  A    between atoms: C_17  and  O_18
REMARK    6  A    between atoms: O_25  and  C_26
REMARK                            x       y       z     vdW  Elec       q    Type
REMARK                         _______ _______ _______ _____ _____    ______ ____
ROOT
ATOM      1  C   UNL     1       0.092   0.928   0.111  0.00  0.00    -0.095 C 
ATOM      2  C   UNL     1       0.894   3.195   0.415  0.00  0.00    -0.073 C 
ATOM      3  C   UNL     1       0.477   4.538   1.013  0.00  0.00    +0.017 C 
ATOM      4  C   UNL     1      -0.729   5.074   0.284  0.00  0.00    -0.040 A 
ATOM      5  C   UNL     1      -1.043   6.417   0.427  0.00  0.00    +0.053 A 
ATOM      6  C   UNL     1      -2.143   6.955  -0.220  0.00  0.00    +0.170 A 
ATOM      7  C   UNL     1      -2.938   6.140  -1.019  0.00  0.00    +0.208 A 
ATOM      8  C   UNL     1      -2.621   4.797  -1.161  0.00  0.00    +0.167 A 
ATOM      9  C   UNL     1      -1.513   4.264  -0.509  0.00  0.00    -0.008 A 
ATOM     10  C   UNL     1      -1.206   2.801  -0.701  0.00  0.00    +0.004 C 
ATOM     11  O   UNL     1      -3.950   6.894  -1.541  0.00  0.00    -0.449 OA
ATOM     12  C   UNL     1      -3.531   8.262  -1.383  0.00  0.00    +0.467 C 
ATOM     13  O   UNL     1      -2.654   8.220  -0.241  0.00  0.00    -0.452 OA
ATOM     14  N   UNL     1      -0.304   2.331   0.364  0.00  0.00    +0.386 N 
ATOM     15  H   UNL     1      -0.793   2.383   1.265  0.00  0.00    -0.081 HD
ENDROOT
BRANCH  10  16
ATOM     16  C   UNL     1      -2.488   2.012  -0.636  0.00  0.00    +0.031 A 
ATOM     17  C   UNL     1      -3.259   1.819   0.474  0.00  0.00    +0.071 A 
ATOM     18  N   UNL     1      -4.324   1.054   0.103  0.00  0.00    -0.273 N 
ATOM     19  H   UNL     1      -5.067   0.750   0.699  0.00  0.00    +0.189 HD
ATOM     20  N   UNL     1      -4.192   0.769  -1.262  0.00  0.00    -0.136 NA
ATOM     21  C   UNL     1      -3.097   1.341  -1.702  0.00  0.00    +0.234 A 
BRANCH  17  22
ATOM     22  C   UNL     1      -2.989   2.346   1.831  0.00  0.00    +0.000 A 
ATOM     23  C   UNL     1      -1.774   2.072   2.459  0.00  0.00    +0.010 A 
ATOM     24  C   UNL     1      -1.526   2.571   3.722  0.00  0.00    +0.001 A 
ATOM     25  C   UNL     1      -2.484   3.331   4.369  0.00  0.00    +0.000 A 
ATOM     26  C   UNL     1      -3.693   3.601   3.753  0.00  0.00    +0.001 A 
ATOM     27  C   UNL     1      -3.951   3.113   2.488  0.00  0.00    +0.010 A 
ENDBRANCH  17  22
BRANCH  21  28
ATOM     28  O   UNL     1      -2.632   1.289  -2.979  0.00  0.00    -0.491 OA
ATOM     29  H   UNL     1      -3.256   0.745  -3.540  0.00  0.00    +0.294 HD
ENDBRANCH  21  28
ENDBRANCH  10  16
BRANCH   8  30
ATOM     30  O   UNL     1      -3.397   3.997  -1.941  0.00  0.00    -0.491 OA
ATOM     31  C   UNL     1      -3.127   4.000  -3.344  0.00  0.00    +0.277 C 
ENDBRANCH   8  30
TORSDOF 4
