REMARK  Name = ZINC11391815
REMARK  9 active torsions:
REMARK  status: ('A' for Active; 'I' for Inactive)
REMARK    1  A    between atoms: C_1  and  C_2
REMARK    2  A    between atoms: C_2  and  C_3
REMARK    3  A    between atoms: C_3  and  C_4
REMARK    4  A    between atoms: C_4  and  N_5
REMARK    5  A    between atoms: N_5  and  C_6
REMARK    6  A    between atoms: C_14  and  C_16
REMARK    7  A    between atoms: C_16  and  S_17
REMARK    8  A    between atoms: S_17  and  C_18
REMARK    9  A    between atoms: C_22  and  N_24
REMARK                            x       y       z     vdW  Elec       q    Type
REMARK                         _______ _______ _______ _____ _____    ______ ____
ROOT
ATOM      1  N   UNL     1       1.317  -2.501  -2.529  0.00  0.00    -0.296 N 
ATOM      2  C   UNL     1       0.459  -2.616  -3.563  0.00  0.00    +0.226 C 
ATOM      3  O   UNL     1      -0.725  -2.417  -3.393  0.00  0.00    -0.275 OA
ENDROOT
BRANCH   1   4
ATOM      4  C   UNL     1       2.729  -2.848  -2.708  0.00  0.00    +0.098 C 
ATOM      5  C   UNL     1       3.085  -4.051  -1.819  0.00  0.00    +0.046 C 
ATOM      6  C   UNL     1       4.622  -4.222  -1.753  0.00  0.00    +0.168 C 
ATOM      7  S   UNL     1       5.231  -2.506  -2.009  0.00  0.00    -0.029 S 
ATOM      8  O   UNL     1       5.988  -2.458  -3.210  0.00  0.00    -0.174 OA
ATOM      9  O   UNL     1       5.809  -2.035  -0.799  0.00  0.00    -0.174 OA
ATOM     10  C   UNL     1       3.622  -1.649  -2.279  0.00  0.00    +0.188 C 
ENDBRANCH   1   4
BRANCH   1  11
ATOM     11  C   UNL     1       0.837  -2.030  -1.228  0.00  0.00    +0.108 C 
BRANCH  11  12
ATOM     12  C   UNL     1       0.810  -0.500  -1.217  0.00  0.00    +0.019 C 
BRANCH  12  14
ATOM     13  C   UNL     1       0.166   1.520   0.104  0.00  0.00    +0.004 C 
ATOM     14  C   UNL     1       0.193  -0.010   0.094  0.00  0.00    -0.002 C 
ENDBRANCH  12  14
ENDBRANCH  11  12
ENDBRANCH   1  11
BRANCH   2  15
ATOM     15  C   UNL     1       0.972  -2.991  -4.929  0.00  0.00    +0.173 C 
BRANCH  15  16
ATOM     16  S   UNL     1      -0.390  -2.920  -6.126  0.00  0.00    -0.077 S 
BRANCH  16  17
ATOM     17  C   UNL     1       0.361  -3.378  -7.653  0.00  0.00    +0.192 A 
ATOM     18  N   UNL     1       1.652  -3.673  -7.674  0.00  0.00    -0.207 NA
ATOM     19  C   UNL     1       2.253  -4.024  -8.809  0.00  0.00    +0.122 A 
ATOM     20  C   UNL     1       1.505  -4.078  -9.982  0.00  0.00    +0.086 A 
ATOM     21  C   UNL     1       0.151  -3.761  -9.921  0.00  0.00    +0.122 A 
ATOM     22  N   UNL     1      -0.382  -3.424  -8.749  0.00  0.00    -0.207 NA
ATOM     23  N   UNL     1       3.604  -4.330  -8.823  0.00  0.00    -0.343 N 
ATOM     24  H   UNL     1       4.119  -4.290  -8.002  0.00  0.00    +0.144 HD
ATOM     25  H   UNL     1       4.036  -4.585  -9.654  0.00  0.00    +0.144 HD
BRANCH  21  26
ATOM     26  N   UNL     1      -0.632  -3.802 -11.064  0.00  0.00    -0.343 N 
ATOM     27  H   UNL     1      -0.237  -4.052 -11.914  0.00  0.00    +0.144 HD
ATOM     28  H   UNL     1      -1.575  -3.580 -11.014  0.00  0.00    +0.144 HD
ENDBRANCH  21  26
ENDBRANCH  16  17
ENDBRANCH  15  16
ENDBRANCH   2  15
TORSDOF 8
