REMARK  Name = ZINC08847609
REMARK  5 active torsions:
REMARK  status: ('A' for Active; 'I' for Inactive)
REMARK    1  A    between atoms: C_1  and  C_2
REMARK    2  A    between atoms: C_2  and  S_3
REMARK    3  A    between atoms: S_3  and  C_4
REMARK    4  A    between atoms: C_5  and  C_25
REMARK    5  A    between atoms: C_6  and  N_10
REMARK                            x       y       z     vdW  Elec       q    Type
REMARK                         _______ _______ _______ _____ _____    ______ ____
ROOT
ATOM      1  N   UNL     1      -2.468   1.812   0.022  0.00  0.00    -0.185 N 
ATOM      2  C   UNL     1      -3.228   1.681  -1.080  0.00  0.00    +0.261 C 
ATOM      3  O   UNL     1      -2.873   1.914  -2.218  0.00  0.00    -0.269 OA
ATOM      4  C   UNL     1      -4.566   1.205  -0.675  0.00  0.00    +0.071 A 
ATOM      5  C   UNL     1      -4.522   1.080   0.731  0.00  0.00    +0.071 A 
ATOM      6  C   UNL     1      -5.644   0.649   1.421  0.00  0.00    +0.074 A 
ATOM      7  C   UNL     1      -6.807   0.344   0.723  0.00  0.00    +0.080 A 
ATOM      8  C   UNL     1      -6.850   0.467  -0.654  0.00  0.00    +0.080 A 
ATOM      9  C   UNL     1      -5.732   0.897  -1.358  0.00  0.00    +0.074 A 
ATOM     10 CL   UNL     1      -5.795   1.048  -3.087  0.00  0.00    -0.081 Cl
ATOM     11 CL   UNL     1      -8.311   0.081  -1.509  0.00  0.00    -0.080 Cl
ATOM     12 CL   UNL     1      -8.214  -0.195   1.585  0.00  0.00    -0.080 Cl
ATOM     13 CL   UNL     1      -5.599   0.493   3.149  0.00  0.00    -0.081 Cl
ATOM     14  C   UNL     1      -3.158   1.480   1.129  0.00  0.00    +0.261 C 
ATOM     15  O   UNL     1      -2.730   1.506   2.265  0.00  0.00    -0.269 OA
ENDROOT
BRANCH   1  18
ATOM     16  C   UNL     1       1.111   2.290  -0.047  0.00  0.00    +0.138 A 
ATOM     17  C   UNL     1      -0.019   1.431  -0.078  0.00  0.00    +0.125 A 
ATOM     18  C   UNL     1      -1.146   2.240   0.019  0.00  0.00    +0.149 A 
ATOM     19  N   UNL     1      -0.718   3.515   0.112  0.00  0.00    -0.261 N 
ATOM     20  H   UNL     1      -1.303   4.321   0.199  0.00  0.00    +0.190 HD
ATOM     21  N   UNL     1       0.680   3.522   0.066  0.00  0.00    -0.165 NA
BRANCH  17  22
ATOM     22  C   UNL     1      -0.001   0.004  -0.193  0.00  0.00    +0.105 C 
ATOM     23  N   UNL     1       0.013  -1.128  -0.284  0.00  0.00    -0.191 NA
ENDBRANCH  17  22
BRANCH  16  24
ATOM     24  S   UNL     1       2.797   1.788  -0.143  0.00  0.00    -0.103 S 
BRANCH  24  26
ATOM     25  C   UNL     1       5.224   3.049  -0.123  0.00  0.00    +0.015 C 
ATOM     26  C   UNL     1       3.724   3.344  -0.050  0.00  0.00    +0.072 C 
ENDBRANCH  24  26
ENDBRANCH  16  24
ENDBRANCH   1  18
TORSDOF 4
