REMARK  Name = ZINC21879495
REMARK  13 active torsions:
REMARK  status: ('A' for Active; 'I' for Inactive)
REMARK    1  A    between atoms: C_1  and  C_2
REMARK    2  A    between atoms: C_2  and  O_3
REMARK    3  A    between atoms: O_3  and  C_4
REMARK    4  A    between atoms: C_4  and  C_6
REMARK    5  A    between atoms: C_12  and  C_20
REMARK    6  A    between atoms: C_12  and  C_21
REMARK    7  A    between atoms: N_13  and  C_16
REMARK    8  A    between atoms: C_16  and  C_17
REMARK    9  A    between atoms: C_17  and  O_18
REMARK   10  A    between atoms: O_18  and  C_19
REMARK   11  A    between atoms: N_23  and  C_24
REMARK   12  A    between atoms: C_24  and  C_25
REMARK   13  A    between atoms: C_28  and  C_31
REMARK                            x       y       z     vdW  Elec       q    Type
REMARK                         _______ _______ _______ _____ _____    ______ ____
ROOT
ATOM      1  C   UNL     1       1.099   1.950   0.002  0.00  0.00    +0.170 A 
ATOM      2  C   UNL     1      -0.013   1.076   0.008  0.00  0.00    +0.069 A 
ATOM      3  C   UNL     1      -1.098   1.883   0.017  0.00  0.00    +0.124 A 
ATOM      4  N   UNL     1      -0.644   3.186   0.037  0.00  0.00    -0.256 N 
ATOM      5  N   UNL     1       0.632   3.188   0.016  0.00  0.00    -0.164 NA
ATOM      6  C   UNL     1      -1.581   4.316   0.084  0.00  0.00    +0.179 C 
ATOM      7  C   UNL     1      -2.883   3.920  -0.610  0.00  0.00    +0.130 C 
ATOM      8  N   UNL     1      -3.377   2.619  -0.172  0.00  0.00    -0.278 N 
ATOM      9  C   UNL     1      -2.538   1.576   0.038  0.00  0.00    +0.266 C 
ATOM     10  O   UNL     1      -2.952   0.449   0.229  0.00  0.00    -0.268 OA
ATOM     11  C   UNL     1      -3.945   4.980  -0.311  0.00  0.00    +0.044 C 
ENDROOT
BRANCH   7  12
ATOM     12  C   UNL     1      -2.647   3.873  -2.098  0.00  0.00    +0.239 C 
ATOM     13  O   UNL     1      -2.907   4.839  -2.784  0.00  0.00    -0.273 OA
ATOM     14  N   UNL     1      -2.148   2.757  -2.666  0.00  0.00    -0.309 N 
ATOM     15  H   UNL     1      -1.912   1.881  -2.044  0.00  0.00    +0.149 HD
BRANCH  14  16
ATOM     16  C   UNL     1      -1.919   2.712  -4.113  0.00  0.00    +0.139 C 
BRANCH  16  17
ATOM     17  C   UNL     1      -1.360   1.364  -4.490  0.00  0.00    -0.030 A 
ATOM     18  C   UNL     1       0.007   1.162  -4.506  0.00  0.00    +0.005 A 
ATOM     19  C   UNL     1       0.519  -0.076  -4.848  0.00  0.00    +0.003 A 
ATOM     20  C   UNL     1      -0.336  -1.109  -5.184  0.00  0.00    -0.050 A 
ATOM     21  C   UNL     1      -1.704  -0.905  -5.174  0.00  0.00    +0.003 A 
ATOM     22  C   UNL     1      -2.216   0.331  -4.827  0.00  0.00    +0.005 A 
ATOM     23  C   UNL     1       0.222  -2.456  -5.562  0.00  0.00    +0.044 C 
ENDBRANCH  16  17
ENDBRANCH  14  16
ENDBRANCH   7  12
BRANCH   1  24
ATOM     24  C   UNL     1       2.521   1.554  -0.017  0.00  0.00    +0.359 C 
ATOM     25  O   UNL     1       2.823   0.377  -0.030  0.00  0.00    -0.243 OA
BRANCH  24  26
ATOM     26  O   UNL     1       3.483   2.497  -0.021  0.00  0.00    -0.460 OA
BRANCH  26  28
ATOM     27  C   UNL     1       5.802   3.239  -0.042  0.00  0.00    +0.048 C 
ATOM     28  C   UNL     1       4.859   2.034  -0.040  0.00  0.00    +0.229 C 
ENDBRANCH  26  28
ENDBRANCH  24  26
ENDBRANCH   1  24
BRANCH   8  29
ATOM     29  C   UNL     1      -4.814   2.437   0.047  0.00  0.00    +0.137 C 
BRANCH  29  30
ATOM     30  C   UNL     1      -5.472   1.969  -1.253  0.00  0.00    +0.178 C 
BRANCH  30  31
ATOM     31  O   UNL     1      -4.975   0.675  -1.600  0.00  0.00    -0.381 OA
ATOM     32  C   UNL     1      -5.529   0.143  -2.805  0.00  0.00    +0.194 C 
ENDBRANCH  30  31
ENDBRANCH  29  30
ENDBRANCH   8  29
TORSDOF 9
