REMARK  Name = ZINC53640009
REMARK  4 active torsions:
REMARK  status: ('A' for Active; 'I' for Inactive)
REMARK    1  A    between atoms: C_4  and  C_7
REMARK    2  A    between atoms: C_7  and  C_9
REMARK    3  A    between atoms: C_7  and  N_14
REMARK    4  A    between atoms: C_15  and  C_17
REMARK                            x       y       z     vdW  Elec       q    Type
REMARK                         _______ _______ _______ _____ _____    ______ ____
ROOT
ATOM      1  C   UNL     1       3.716  -0.718  -0.022  0.00  0.00    +0.170 C 
ENDROOT
BRANCH   1   5
ATOM      2  C   UNL     1      -0.025   1.343   0.071  0.00  0.00    +0.000 A 
ATOM      3  C   UNL     1       1.158   2.058   0.053  0.00  0.00    +0.000 A 
ATOM      4  C   UNL     1       2.369   1.391   0.023  0.00  0.00    +0.006 A 
ATOM      5  C   UNL     1       2.396   0.009   0.011  0.00  0.00    -0.020 A 
ATOM      6  C   UNL     1       1.214  -0.706   0.030  0.00  0.00    +0.006 A 
ATOM      7  C   UNL     1       0.003  -0.039   0.059  0.00  0.00    +0.000 A 
ENDBRANCH   1   5
BRANCH   1   8
ATOM      8  C   UNL     1       4.066  -1.187   1.366  0.00  0.00    +0.129 A 
ATOM      9  C   UNL     1       4.920  -0.580   2.210  0.00  0.00    +0.047 A 
ATOM     10  C   UNL     1       4.949  -1.355   3.392  0.00  0.00    +0.041 A 
ATOM     11  C   UNL     1       4.111  -2.389   3.200  0.00  0.00    +0.195 A 
ATOM     12  O   UNL     1       3.575  -2.280   1.974  0.00  0.00    -0.466 OA
ENDBRANCH   1   8
BRANCH   1  13
ATOM     13  N   UNL     1       3.614  -1.873  -0.917  0.00  0.00    -0.297 N 
ATOM     14  C   UNL     1       4.721  -2.370  -1.504  0.00  0.00    +0.250 C 
ATOM     15  O   UNL     1       5.789  -1.805  -1.366  0.00  0.00    -0.270 OA
ATOM     16  H   UNL     1       2.751  -2.281  -1.087  0.00  0.00    +0.150 HD
BRANCH  14  17
ATOM     17  C   UNL     1       4.638  -3.597  -2.311  0.00  0.00    +0.101 A 
ATOM     18  C   UNL     1       5.790  -4.189  -2.824  0.00  0.00    +0.020 A 
ATOM     19  C   UNL     1       5.672  -5.351  -3.585  0.00  0.00    +0.018 A 
ATOM     20  C   UNL     1       4.448  -5.891  -3.818  0.00  0.00    +0.086 A 
ATOM     21  N   UNL     1       3.323  -5.322  -3.323  0.00  0.00    -0.328 N 
ATOM     22  C   UNL     1       3.382  -4.202  -2.577  0.00  0.00    +0.261 A 
ATOM     23  O   UNL     1       2.359  -3.707  -2.136  0.00  0.00    -0.267 OA
ATOM     24  H   UNL     1       2.462  -5.729  -3.506  0.00  0.00    +0.168 HD
ENDBRANCH  14  17
ENDBRANCH   1  13
TORSDOF 4
