REMARK  Name = ZINC22750491
REMARK  11 active torsions:
REMARK  status: ('A' for Active; 'I' for Inactive)
REMARK    1  A    between atoms: C_1  and  C_2
REMARK    2  A    between atoms: C_3  and  C_33
REMARK    3  A    between atoms: C_4  and  C_23
REMARK    4  A    between atoms: C_10  and  C_11
REMARK    5  A    between atoms: C_16  and  C_17
REMARK    6  A    between atoms: C_28  and  O_29
REMARK    7  A    between atoms: O_29  and  C_30
REMARK    8  A    between atoms: C_30  and  C_31
REMARK    9  A    between atoms: C_30  and  C_32
REMARK   10  A    between atoms: C_33  and  O_35
REMARK   11  A    between atoms: O_35  and  C_36
REMARK                            x       y       z     vdW  Elec       q    Type
REMARK                         _______ _______ _______ _____ _____    ______ ____
ROOT
ATOM      1  C   UNL     1       6.024   4.675  -2.616  0.00  0.00    +0.066 C 
ATOM      2  C   UNL     1       5.285   4.331  -1.349  0.00  0.00    +0.053 C 
ATOM      3  C   UNL     1       4.165   5.034  -1.005  0.00  0.00    +0.085 C 
ATOM      4  C   UNL     1       3.454   4.658   0.274  0.00  0.00    +0.165 C 
ATOM      5  N   UNL     1       4.032   3.539   1.069  0.00  0.00    -0.275 N 
ATOM      6  C   UNL     1       3.547   3.064   2.225  0.00  0.00    +0.268 A 
ATOM      7  O   UNL     1       2.547   3.539   2.729  0.00  0.00    -0.266 OA
ATOM      8  C   UNL     1       4.264   1.947   2.865  0.00  0.00    +0.081 A 
ATOM      9  C   UNL     1       3.985   1.292   4.021  0.00  0.00    +0.029 C 
ATOM     10  S   UNL     1       5.599   1.688   1.708  0.00  0.00    -0.046 S 
ATOM     11  C   UNL     1       5.167   2.966   0.543  0.00  0.00    +0.178 A 
ATOM     12  N   UNL     1       5.728   3.347  -0.575  0.00  0.00    -0.228 NA
ENDROOT
BRANCH   9  13
ATOM     13  C   UNL     1       4.917   0.282   4.536  0.00  0.00    -0.010 A 
ATOM     14  C   UNL     1       6.284   0.382   4.262  0.00  0.00    +0.009 A 
ATOM     15  C   UNL     1       7.156  -0.568   4.754  0.00  0.00    +0.001 A 
ATOM     16  C   UNL     1       6.686  -1.629   5.511  0.00  0.00    +0.001 A 
ATOM     17  C   UNL     1       5.339  -1.749   5.789  0.00  0.00    +0.016 A 
ATOM     18  C   UNL     1       4.440  -0.799   5.308  0.00  0.00    +0.070 A 
BRANCH  18  19
ATOM     19  C   UNL     1       3.000  -0.924   5.601  0.00  0.00    +0.387 C 
ATOM     20  O   UNL     1       2.208  -0.154   5.095  0.00  0.00    -0.241 OA
ATOM     21  O   UNL     1       2.562  -1.891   6.431  0.00  0.00    -0.241 OA
ENDBRANCH  18  19
ENDBRANCH   9  13
BRANCH   4  22
ATOM     22  C   UNL     1       2.034   4.293  -0.076  0.00  0.00    +0.022 A 
ATOM     23  C   UNL     1       1.002   5.158   0.230  0.00  0.00    +0.009 A 
ATOM     24  C   UNL     1      -0.301   4.823  -0.090  0.00  0.00    +0.001 A 
ATOM     25  C   UNL     1      -0.574   3.619  -0.712  0.00  0.00    +0.004 A 
ATOM     26  C   UNL     1       0.455   2.752  -1.025  0.00  0.00    +0.046 A 
ATOM     27  C   UNL     1       1.763   3.086  -0.705  0.00  0.00    +0.126 A 
BRANCH  27  28
ATOM     28  O   UNL     1       2.777   2.233  -1.008  0.00  0.00    -0.489 OA
BRANCH  28  29
ATOM     29  C   UNL     1       2.419   0.986  -1.605  0.00  0.00    +0.167 C 
ATOM     30  C   UNL     1       2.220   1.179  -3.110  0.00  0.00    +0.051 C 
ATOM     31  C   UNL     1       3.534  -0.034  -1.365  0.00  0.00    +0.051 C 
ENDBRANCH  28  29
ENDBRANCH  27  28
ENDBRANCH   4  22
BRANCH   3  32
ATOM     32  C   UNL     1       3.689   6.077  -1.818  0.00  0.00    +0.339 C 
ATOM     33  O   UNL     1       4.305   6.399  -2.818  0.00  0.00    -0.245 OA
BRANCH  32  34
ATOM     34  O   UNL     1       2.549   6.723  -1.489  0.00  0.00    -0.465 OA
ATOM     35  C   UNL     1       2.064   7.695  -2.417  0.00  0.00    +0.280 C 
ENDBRANCH  32  34
ENDBRANCH   3  32
TORSDOF 7
