REMARK  Name = ZINC21330531
REMARK  9 active torsions:
REMARK  status: ('A' for Active; 'I' for Inactive)
REMARK    1  A    between atoms: C_1  and  N_2
REMARK    2  A    between atoms: C_6  and  C_8
REMARK    3  A    between atoms: C_8  and  C_10
REMARK    4  A    between atoms: C_8  and  O_16
REMARK    5  A    between atoms: O_16  and  C_17
REMARK    6  A    between atoms: C_17  and  C_19
REMARK    7  A    between atoms: C_19  and  C_20
REMARK    8  A    between atoms: C_20  and  N_21
REMARK    9  A    between atoms: N_24  and  C_25
REMARK                            x       y       z     vdW  Elec       q    Type
REMARK                         _______ _______ _______ _____ _____    ______ ____
ROOT
ATOM      1  C   UNL     1      -4.696   1.320   0.766  0.00  0.00    +0.310 C 
ATOM      2  O   UNL     1      -4.728   0.188   1.186  0.00  0.00    -0.251 OA
ENDROOT
BRANCH   1   3
ATOM      3  O   UNL     1      -3.595   1.776   0.148  0.00  0.00    -0.447 OA
BRANCH   3   4
ATOM      4  C   UNL     1      -2.482   0.853   0.018  0.00  0.00    +0.292 C 
BRANCH   4  10
ATOM      5  C   UNL     1       3.582   1.747  -0.023  0.00  0.00    +0.129 C 
ATOM      6  N   UNL     1       2.323   0.998  -0.015  0.00  0.00    -0.302 N 
ATOM      7  C   UNL     1       1.147   1.655   0.000  0.00  0.00    +0.306 C 
ATOM      8  O   UNL     1       1.130   2.871   0.007  0.00  0.00    -0.252 OA
ATOM      9  N   UNL     1      -0.011   0.966   0.007  0.00  0.00    -0.237 N 
ATOM     10  C   UNL     1      -1.187   1.624   0.017  0.00  0.00    +0.266 C 
ATOM     11  O   UNL     1      -1.204   2.836   0.023  0.00  0.00    -0.271 OA
ATOM     12  H   UNL     1       2.338  -0.102  -0.021  0.00  0.00    +0.150 HD
ATOM     13  H   UNL     1       0.004  -0.134   0.006  0.00  0.00    +0.159 HD
ENDBRANCH   4  10
BRANCH   4  14
ATOM     14  C   UNL     1      -2.612   0.087  -1.273  0.00  0.00    +0.002 A 
ATOM     15  C   UNL     1      -3.044   0.730  -2.418  0.00  0.00    +0.008 A 
ATOM     16  C   UNL     1      -3.159   0.029  -3.603  0.00  0.00    +0.000 A 
ATOM     17  C   UNL     1      -2.852  -1.319  -3.642  0.00  0.00    +0.000 A 
ATOM     18  C   UNL     1      -2.426  -1.963  -2.496  0.00  0.00    +0.000 A 
ATOM     19  C   UNL     1      -2.306  -1.261  -1.311  0.00  0.00    +0.008 A 
ENDBRANCH   4  14
ENDBRANCH   3   4
ENDBRANCH   1   3
BRANCH   1  20
ATOM     20  C   UNL     1      -5.891   2.222   0.938  0.00  0.00    +0.139 C 
BRANCH  20  21
ATOM     21  C   UNL     1      -7.001   1.463   1.669  0.00  0.00    +0.117 C 
BRANCH  21  22
ATOM     22  N   UNL     1      -8.163   2.340   1.835  0.00  0.00    -0.299 N 
ATOM     23  C   UNL     1      -9.269   1.882   2.457  0.00  0.00    +0.300 C 
ATOM     24  O   UNL     1      -9.301   0.742   2.878  0.00  0.00    -0.253 OA
ATOM     25  N   UNL     1     -10.338   2.688   2.610  0.00  0.00    -0.294 N 
ATOM     26  H   UNL     1      -8.134   3.371   1.454  0.00  0.00    +0.150 HD
ATOM     27  H   UNL     1     -10.308   3.720   2.228  0.00  0.00    +0.151 HD
BRANCH  25  28
ATOM     28  C   UNL     1     -11.539   2.191   3.285  0.00  0.00    +0.037 C 
ATOM     29  C   UNL     1     -12.092   0.986   2.521  0.00  0.00    +0.029 C 
ATOM     30  C   UNL     1     -13.346   0.467   3.226  0.00  0.00    -0.008 C 
ATOM     31  C   UNL     1     -14.403   1.573   3.267  0.00  0.00    +0.007 C 
ATOM     32  C   UNL     1     -13.851   2.778   4.031  0.00  0.00    -0.008 C 
ATOM     33  C   UNL     1     -12.596   3.297   3.326  0.00  0.00    +0.029 C 
ATOM     34  C   UNL     1     -13.496   2.358   5.459  0.00  0.00    +0.007 C 
ATOM     35  C   UNL     1     -12.440   1.252   5.418  0.00  0.00    -0.008 C 
ATOM     36  C   UNL     1     -12.992   0.047   4.654  0.00  0.00    +0.007 C 
ATOM     37  C   UNL     1     -11.185   1.771   4.713  0.00  0.00    +0.029 C 
ENDBRANCH  25  28
ENDBRANCH  21  22
ENDBRANCH  20  21
ENDBRANCH   1  20
TORSDOF 8
