REMARK  Name = ZINC08933786
REMARK  5 active torsions:
REMARK  status: ('A' for Active; 'I' for Inactive)
REMARK    1  A    between atoms: C_1  and  C_2
REMARK    2  A    between atoms: C_16  and  C_19
REMARK    3  A    between atoms: N_21  and  C_22
REMARK    4  A    between atoms: C_27  and  C_28
REMARK    5  A    between atoms: C_27  and  N_63
REMARK                            x       y       z     vdW  Elec       q    Type
REMARK                         _______ _______ _______ _____ _____    ______ ____
ROOT
ATOM      1  C   UNL     1      -1.411  -0.527   0.034  0.00  0.00    +0.218 C 
ATOM      2  O   UNL     1      -1.776  -1.234   0.949  0.00  0.00    -0.275 OA
ATOM      3  N   UNL     1      -2.270  -0.208  -0.955  0.00  0.00    -0.312 N 
ATOM      4  H   UNL     1      -1.978   0.358  -1.687  0.00  0.00    +0.149 HD
ENDROOT
BRANCH   1  20
ATOM      5  C   UNL     1       1.285   9.728  -0.462  0.00  0.00    +0.066 C 
ATOM      6  C   UNL     1       1.508   8.251  -0.656  0.00  0.00    +0.046 A 
ATOM      7  C   UNL     1       2.295   7.790  -1.690  0.00  0.00    +0.095 A 
ATOM      8  C   UNL     1       2.489   6.418  -1.852  0.00  0.00    +0.275 A 
ATOM      9  O   UNL     1       3.186   6.002  -2.766  0.00  0.00    -0.266 OA
ATOM     10  N   UNL     1       1.900   5.539  -0.988  0.00  0.00    -0.170 N 
ATOM     11  C   UNL     1       1.136   6.082   0.007  0.00  0.00    +0.200 A 
ATOM     12  N   UNL     1       0.948   7.367   0.167  0.00  0.00    -0.227 NA
ATOM     13  S   UNL     1       0.559   4.643   0.881  0.00  0.00    -0.013 S 
ATOM     14  C   UNL     1       1.377   3.414  -0.124  0.00  0.00    +0.184 A 
ATOM     15  N   UNL     1       1.991   4.151  -1.010  0.00  0.00    -0.139 NA
ATOM     16  N   UNL     1       1.359   2.036   0.000  0.00  0.00    -0.307 N 
ATOM     17  C   UNL     1       2.093   1.605   1.197  0.00  0.00    +0.107 C 
ATOM     18  C   UNL     1       2.177   0.078   1.224  0.00  0.00    +0.020 C 
ATOM     19  C   UNL     1       0.761  -0.506   1.233  0.00  0.00    +0.016 C 
ATOM     20  C   UNL     1       0.002  -0.004   0.002  0.00  0.00    +0.092 C 
ATOM     21  C   UNL     1      -0.019   1.526   0.010  0.00  0.00    +0.119 C 
ENDBRANCH   1  20
BRANCH   3  22
ATOM     22  C   UNL     1      -3.643  -0.716  -0.924  0.00  0.00    +0.069 C 
ATOM     23  C   UNL     1      -3.685  -2.115  -1.544  0.00  0.00    +0.003 C 
ATOM     24  C   UNL     1      -5.132  -2.615  -1.566  0.00  0.00    -0.077 C 
ATOM     25  C   UNL     1      -5.973  -0.349  -1.744  0.00  0.00    -0.077 C 
ATOM     26  C   UNL     1      -4.552   0.218  -1.728  0.00  0.00    +0.003 C 
ATOM     27  N   UNL     1      -5.949  -1.686  -2.375  0.00  0.00    +0.382 N 
ATOM     28  H   UNL     1      -5.534  -1.605  -3.310  0.00  0.00    -0.081 HD
BRANCH  27  29
ATOM     29  C   UNL     1      -7.326  -2.208  -2.505  0.00  0.00    -0.043 C 
BRANCH  29  30
ATOM     30  C   UNL     1      -7.293  -3.460  -3.342  0.00  0.00    -0.064 A 
ATOM     31  C   UNL     1      -7.419  -3.377  -4.716  0.00  0.00    +0.002 A 
ATOM     32  C   UNL     1      -7.385  -4.526  -5.484  0.00  0.00    +0.000 A 
ATOM     33  C   UNL     1      -7.232  -5.759  -4.878  0.00  0.00    +0.000 A 
ATOM     34  C   UNL     1      -7.111  -5.842  -3.503  0.00  0.00    +0.000 A 
ATOM     35  C   UNL     1      -7.141  -4.693  -2.735  0.00  0.00    +0.002 A 
ENDBRANCH  29  30
ENDBRANCH  27  29
ENDBRANCH   3  22
TORSDOF 4
