REMARK  Name = ZINC06756808
REMARK  6 active torsions:
REMARK  status: ('A' for Active; 'I' for Inactive)
REMARK    1  A    between atoms: C_4  and  S_8
REMARK    2  A    between atoms: C_5  and  N_7
REMARK    3  A    between atoms: S_8  and  C_9
REMARK    4  A    between atoms: C_9  and  C_10
REMARK    5  A    between atoms: N_12  and  C_13
REMARK    6  A    between atoms: C_16  and  N_20
REMARK                            x       y       z     vdW  Elec       q    Type
REMARK                         _______ _______ _______ _____ _____    ______ ____
ROOT
ATOM      1  C   UNL     1       6.568  -0.087  -0.071  0.00  0.00    +0.227 C 
ATOM      2  O   UNL     1       6.707  -1.292  -0.074  0.00  0.00    -0.275 OA
ATOM      3  N   UNL     1       7.651   0.716  -0.071  0.00  0.00    -0.284 N 
ATOM      4  H   UNL     1       7.541   1.678  -0.134  0.00  0.00    +0.155 HD
ENDROOT
BRANCH   3   5
ATOM      5  C   UNL     1       8.933   0.162   0.018  0.00  0.00    +0.048 A 
ATOM      6  C   UNL     1       9.207  -1.060  -0.583  0.00  0.00    +0.026 A 
ATOM      7  C   UNL     1      10.473  -1.604  -0.492  0.00  0.00    +0.034 A 
ATOM      8  C   UNL     1      11.468  -0.934   0.195  0.00  0.00    +0.127 A 
ATOM      9  C   UNL     1      11.200   0.283   0.795  0.00  0.00    +0.049 A 
ATOM     10  C   UNL     1       9.936   0.836   0.703  0.00  0.00    +0.041 A 
ATOM     11 BR   UNL     1       9.572   2.504   1.516  0.00  0.00    -0.048 Br
BRANCH   8  12
ATOM     12  N   UNL     1      12.824  -1.521   0.290  0.00  0.00    +0.056 N 
ATOM     13  O   UNL     1      13.060  -2.585  -0.233  0.00  0.00    -0.126 OA
ATOM     14  O   UNL     1      13.695  -0.936   0.891  0.00  0.00    -0.126 OA
ENDBRANCH   8  12
ENDBRANCH   3   5
BRANCH   1  15
ATOM     15  C   UNL     1       5.186   0.512  -0.065  0.00  0.00    +0.170 C 
BRANCH  15  16
ATOM     16  S   UNL     1       3.951  -0.816  -0.065  0.00  0.00    -0.114 S 
BRANCH  16  20
ATOM     17  C   UNL     1      -0.017   1.376  -0.048  0.00  0.00    +0.002 A 
ATOM     18  C   UNL     1       1.168   2.088  -0.049  0.00  0.00    +0.001 A 
ATOM     19  C   UNL     1       2.379   1.422  -0.054  0.00  0.00    +0.016 A 
ATOM     20  C   UNL     1       2.408   0.035  -0.058  0.00  0.00    +0.029 A 
ATOM     21  C   UNL     1       1.212  -0.683  -0.057  0.00  0.00    +0.038 A 
ATOM     22  C   UNL     1       0.002  -0.007  -0.052  0.00  0.00    +0.024 A 
BRANCH  21  23
ATOM     23  N   UNL     1       1.234  -2.083  -0.061  0.00  0.00    -0.357 N 
ATOM     24  H   UNL     1       2.082  -2.555  -0.065  0.00  0.00    +0.142 HD
ATOM     25  H   UNL     1       0.402  -2.581  -0.061  0.00  0.00    +0.142 HD
ENDBRANCH  21  23
ENDBRANCH  16  20
ENDBRANCH  15  16
ENDBRANCH   1  15
TORSDOF 6
