REMARK  Name = ZINC29341438
REMARK  10 active torsions:
REMARK  status: ('A' for Active; 'I' for Inactive)
REMARK    1  A    between atoms: C_1  and  C_2
REMARK    2  A    between atoms: C_5  and  N_9
REMARK    3  A    between atoms: C_6  and  C_8
REMARK    4  A    between atoms: C_13  and  C_15
REMARK    5  A    between atoms: C_15  and  C_17
REMARK    6  A    between atoms: C_15  and  S_18
REMARK    7  A    between atoms: S_18  and  C_19
REMARK    8  A    between atoms: C_23  and  C_27
REMARK    9  A    between atoms: C_24  and  C_26
REMARK   10  A    between atoms: N_30  and  C_31
REMARK                            x       y       z     vdW  Elec       q    Type
REMARK                         _______ _______ _______ _____ _____    ______ ____
ROOT
ATOM      1  N   UNL     1      -7.307   1.036  -1.192  0.00  0.00    -0.269 N 
ATOM      2  C   UNL     1      -6.329   0.255  -0.693  0.00  0.00    +0.310 C 
ATOM      3  O   UNL     1      -6.582  -0.875  -0.324  0.00  0.00    -0.252 OA
ATOM      4  N   UNL     1      -5.069   0.728  -0.603  0.00  0.00    -0.239 N 
ATOM      5  C   UNL     1      -4.091  -0.053  -0.103  0.00  0.00    +0.234 C 
ATOM      6  O   UNL     1      -4.343  -1.180   0.265  0.00  0.00    -0.274 OA
ATOM      7  H   UNL     1      -7.099   2.087  -1.440  0.00  0.00    +0.156 HD
ATOM      8  H   UNL     1      -4.840   1.750  -0.937  0.00  0.00    +0.159 HD
ENDROOT
BRANCH   1  13
ATOM      9  C   UNL     1     -12.498  -1.101  -2.015  0.00  0.00    +0.044 C 
ATOM     10  C   UNL     1     -11.119  -0.533  -1.797  0.00  0.00    -0.050 A 
ATOM     11  C   UNL     1     -10.020  -1.373  -1.790  0.00  0.00    +0.005 A 
ATOM     12  C   UNL     1      -8.755  -0.856  -1.589  0.00  0.00    +0.024 A 
ATOM     13  C   UNL     1      -8.587   0.509  -1.395  0.00  0.00    +0.038 A 
ATOM     14  C   UNL     1      -9.693   1.349  -1.398  0.00  0.00    -0.029 A 
ATOM     15  C   UNL     1     -10.955   0.826  -1.605  0.00  0.00    +0.008 A 
ATOM     16  C   UNL     1      -9.516   2.830  -1.182  0.00  0.00    +0.045 C 
ENDBRANCH   1  13
BRANCH   5  17
ATOM     17  C   UNL     1      -2.683   0.475  -0.003  0.00  0.00    +0.137 C 
ATOM     18  C   UNL     1      -2.524   1.257   1.303  0.00  0.00    +0.029 C 
BRANCH  17  19
ATOM     19  S   UNL     1      -1.517  -0.909  -0.023  0.00  0.00    -0.075 S 
BRANCH  19  20
ATOM     20  C   UNL     1       0.007  -0.024  -0.048  0.00  0.00    +0.173 A 
ATOM     21  N   UNL     1      -0.006   1.293  -0.047  0.00  0.00    -0.216 NA
ATOM     22  C   UNL     1       1.126   1.986  -0.066  0.00  0.00    +0.117 A 
ATOM     23  C   UNL     1       2.386   1.358  -0.088  0.00  0.00    +0.075 A 
ATOM     24  C   UNL     1       3.522   2.264  -0.107  0.00  0.00    -0.026 A 
ATOM     25  C   UNL     1       3.304   3.587  -0.103  0.00  0.00    -0.008 A 
ATOM     26  S   UNL     1       1.526   3.715  -0.072  0.00  0.00    -0.073 S 
ATOM     27  C   UNL     1       4.320   4.700  -0.119  0.00  0.00    +0.052 C 
ATOM     28  C   UNL     1       4.928   1.723  -0.133  0.00  0.00    +0.045 C 
ATOM     29  C   UNL     1       2.368  -0.072  -0.088  0.00  0.00    +0.263 A 
ATOM     30  O   UNL     1       3.412  -0.703  -0.106  0.00  0.00    -0.267 OA
ATOM     31  N   UNL     1       1.185  -0.713  -0.068  0.00  0.00    -0.290 N 
ATOM     32  C   UNL     1       1.161  -2.178  -0.068  0.00  0.00    +0.154 C 
ENDBRANCH  19  20
ENDBRANCH  17  19
ENDBRANCH   5  17
TORSDOF 4
