REMARK  Name = ZINC08816193
REMARK  9 active torsions:
REMARK  status: ('A' for Active; 'I' for Inactive)
REMARK    1  A    between atoms: C_1  and  C_2
REMARK    2  A    between atoms: C_5  and  C_32
REMARK    3  A    between atoms: C_6  and  C_8
REMARK    4  A    between atoms: C_10  and  C_28
REMARK    5  A    between atoms: C_11  and  C_16
REMARK    6  A    between atoms: C_16  and  S_17
REMARK    7  A    between atoms: S_17  and  C_18
REMARK    8  A    between atoms: C_28  and  O_30
REMARK    9  A    between atoms: O_30  and  C_31
REMARK                            x       y       z     vdW  Elec       q    Type
REMARK                         _______ _______ _______ _____ _____    ______ ____
ROOT
ATOM      1  C   UNL     1       2.676  -3.843  -0.937  0.00  0.00    +0.144 C 
ATOM      2  C   UNL     1       2.488  -2.385  -1.304  0.00  0.00    +0.079 C 
ATOM      3  C   UNL     1       2.141  -1.529  -0.318  0.00  0.00    +0.034 C 
ATOM      4  N   UNL     1       1.956  -1.966   0.963  0.00  0.00    -0.272 N 
ATOM      5  C   UNL     1       2.104  -3.242   1.340  0.00  0.00    +0.304 C 
ATOM      6  O   UNL     1       1.917  -3.536   2.505  0.00  0.00    -0.252 OA
ATOM      7  N   UNL     1       2.453  -4.211   0.471  0.00  0.00    -0.288 N 
ATOM      8  H   UNL     1       1.704  -1.315   1.636  0.00  0.00    +0.156 HD
ATOM      9  H   UNL     1       2.554  -5.130   0.766  0.00  0.00    +0.151 HD
ENDROOT
BRANCH   1  15
ATOM     10  C   UNL     1      -1.552  -4.196  -3.592  0.00  0.00    +0.044 C 
ATOM     11  C   UNL     1      -0.292  -4.824  -3.055  0.00  0.00    -0.050 A 
ATOM     12  C   UNL     1      -0.002  -6.145  -3.341  0.00  0.00    +0.003 A 
ATOM     13  C   UNL     1       1.154  -6.721  -2.848  0.00  0.00    +0.004 A 
ATOM     14  C   UNL     1       2.021  -5.976  -2.070  0.00  0.00    -0.045 A 
ATOM     15  C   UNL     1       1.732  -4.655  -1.785  0.00  0.00    -0.019 A 
ATOM     16  C   UNL     1       0.573  -4.080  -2.273  0.00  0.00    +0.009 A 
ATOM     17  C   UNL     1       3.281  -6.604  -1.534  0.00  0.00    +0.044 C 
ENDBRANCH   1  15
BRANCH   2  18
ATOM     18  C   UNL     1       2.674  -1.934  -2.631  0.00  0.00    +0.339 C 
ATOM     19  O   UNL     1       3.799  -1.776  -3.068  0.00  0.00    -0.245 OA
BRANCH  18  20
ATOM     20  O   UNL     1       1.605  -1.680  -3.414  0.00  0.00    -0.465 OA
ATOM     21  C   UNL     1       1.865  -1.336  -4.776  0.00  0.00    +0.280 C 
ENDBRANCH  18  20
ENDBRANCH   2  18
BRANCH   3  22
ATOM     22  C   UNL     1       1.950  -0.069  -0.638  0.00  0.00    +0.128 C 
BRANCH  22  23
ATOM     23  S   UNL     1       0.181   0.314  -0.674  0.00  0.00    -0.082 S 
BRANCH  23  24
ATOM     24  C   UNL     1       0.247   2.032  -1.058  0.00  0.00    +0.168 A 
ATOM     25  N   UNL     1      -0.841   2.844  -1.215  0.00  0.00    -0.333 N 
ATOM     26  H   UNL     1      -1.800   2.573  -1.134  0.00  0.00    +0.168 HD
ATOM     27  C   UNL     1      -0.367   4.113  -1.506  0.00  0.00    +0.067 A 
ATOM     28  C   UNL     1      -0.977   5.332  -1.761  0.00  0.00    +0.028 A 
ATOM     29  C   UNL     1      -0.205   6.443  -2.031  0.00  0.00    +0.002 A 
ATOM     30  C   UNL     1       1.179   6.350  -2.049  0.00  0.00    +0.002 A 
ATOM     31  C   UNL     1       1.801   5.148  -1.797  0.00  0.00    +0.030 A 
ATOM     32  C   UNL     1       1.034   4.013  -1.522  0.00  0.00    +0.090 A 
ATOM     33  N   UNL     1       1.347   2.721  -1.242  0.00  0.00    -0.222 NA
ENDBRANCH  23  24
ENDBRANCH  22  23
ENDBRANCH   3  22
TORSDOF 6
