REMARK  Name = ZINC63234614
REMARK  6 active torsions:
REMARK  status: ('A' for Active; 'I' for Inactive)
REMARK    1  A    between atoms: C_7  and  C_10
REMARK    2  A    between atoms: C_10  and  C_11
REMARK    3  A    between atoms: C_11  and  C_13
REMARK    4  A    between atoms: C_11  and  N_24
REMARK    5  A    between atoms: N_15  and  C_16
REMARK    6  A    between atoms: C_25  and  C_27
REMARK                            x       y       z     vdW  Elec       q    Type
REMARK                         _______ _______ _______ _____ _____    ______ ____
ROOT
ATOM      1  C   UNL     1       0.459  -3.656  -1.481  0.00  0.00    +0.163 C 
ENDROOT
BRANCH   1   2
ATOM      2  C   UNL     1      -0.384  -4.905  -1.460  0.00  0.00    +0.238 C 
ATOM      3  O   UNL     1      -1.574  -4.837  -1.683  0.00  0.00    -0.273 OA
ATOM      4  N   UNL     1       0.185  -6.097  -1.193  0.00  0.00    -0.282 N 
ATOM      5  H   UNL     1       1.146  -6.161  -1.078  0.00  0.00    +0.155 HD
BRANCH   4   6
ATOM      6  C   UNL     1      -0.612  -7.244  -1.080  0.00  0.00    +0.069 A 
ATOM      7  C   UNL     1      -1.742  -7.386  -1.874  0.00  0.00    +0.027 A 
ATOM      8  C   UNL     1      -2.526  -8.518  -1.762  0.00  0.00    +0.017 A 
ATOM      9  C   UNL     1      -2.187  -9.510  -0.859  0.00  0.00    +0.021 A 
ATOM     10  C   UNL     1      -1.062  -9.373  -0.066  0.00  0.00    +0.055 A 
ATOM     11  C   UNL     1      -0.270  -8.244  -0.177  0.00  0.00    +0.146 A 
ATOM     12  F   UNL     1       0.832  -8.113   0.593  0.00  0.00    -0.204 F 
ATOM     13 BR   UNL     1      -3.264 -11.057  -0.709  0.00  0.00    -0.050 Br
ENDBRANCH   4   6
ENDBRANCH   1   2
BRANCH   1  14
ATOM     14  N   UNL     1      -0.237  -2.610  -2.235  0.00  0.00    -0.299 N 
ATOM     15  C   UNL     1      -1.448  -2.179  -1.830  0.00  0.00    +0.251 C 
ATOM     16  O   UNL     1      -1.963  -2.658  -0.837  0.00  0.00    -0.270 OA
ATOM     17  H   UNL     1       0.174  -2.228  -3.027  0.00  0.00    +0.150 HD
BRANCH  15  18
ATOM     18  C   UNL     1      -2.144  -1.133  -2.584  0.00  0.00    +0.074 A 
ATOM     19  C   UNL     1      -3.378  -0.551  -2.337  0.00  0.00    +0.021 A 
ATOM     20  C   UNL     1      -3.772   0.416  -3.231  0.00  0.00    +0.008 A 
ATOM     21  C   UNL     1      -2.954   0.730  -4.265  0.00  0.00    +0.046 A 
ATOM     22  S   UNL     1      -1.621  -0.271  -4.055  0.00  0.00    -0.092 S 
ENDBRANCH  15  18
ENDBRANCH   1  14
BRANCH   1  23
ATOM     23  C   UNL     1       0.698  -3.177  -0.048  0.00  0.00    +0.065 C 
BRANCH  23  30
ATOM     24  C   UNL     1      -0.002   1.357  -0.047  0.00  0.00    +0.001 A 
ATOM     25  C   UNL     1       1.181   2.109  -0.064  0.00  0.00    +0.002 A 
ATOM     26  C   UNL     1       2.405   1.541  -0.078  0.00  0.00    +0.026 A 
ATOM     27  C   UNL     1       2.541   0.125  -0.077  0.00  0.00    +0.043 A 
ATOM     28  N   UNL     1       3.598  -0.650  -0.090  0.00  0.00    -0.380 N 
ATOM     29  C   UNL     1       3.152  -2.048  -0.081  0.00  0.00    +0.144 C 
ATOM     30  C   UNL     1       1.641  -2.002  -0.061  0.00  0.00    -0.039 C 
ATOM     31  C   UNL     1       1.306  -0.691  -0.059  0.00  0.00    -0.001 A 
ATOM     32  C   UNL     1       0.014   0.005  -0.044  0.00  0.00    +0.010 A 
ATOM     33  H   UNL     1       4.520  -0.350  -0.102  0.00  0.00    +0.160 HD
ENDBRANCH  23  30
ENDBRANCH   1  23
TORSDOF 6
