REMARK  Name = ZINC67429568
REMARK  6 active torsions:
REMARK  status: ('A' for Active; 'I' for Inactive)
REMARK    1  A    between atoms: C_1  and  C_2
REMARK    2  A    between atoms: C_2  and  C_3
REMARK    3  A    between atoms: C_6  and  N_23
REMARK    4  A    between atoms: C_8  and  S_9
REMARK    5  A    between atoms: S_9  and  N_12
REMARK    6  A    between atoms: N_12  and  C_13
REMARK                            x       y       z     vdW  Elec       q    Type
REMARK                         _______ _______ _______ _____ _____    ______ ____
ROOT
ATOM      1  S   UNL     1       2.745  -0.209   0.267  0.00  0.00    +0.059 S 
ATOM      2  O   UNL     1       2.056  -0.866   1.322  0.00  0.00    -0.153 OA
ATOM      3  O   UNL     1       4.152  -0.312   0.095  0.00  0.00    -0.153 OA
ENDROOT
BRANCH   1   9
ATOM      4  C   UNL     1       2.457  -0.268  -2.447  0.00  0.00    -0.021 A 
ATOM      5  C   UNL     1       1.886  -0.708  -3.626  0.00  0.00    +0.008 A 
ATOM      6  C   UNL     1       0.866  -1.640  -3.595  0.00  0.00    +0.033 A 
ATOM      7  C   UNL     1       0.417  -2.132  -2.383  0.00  0.00    +0.128 A 
ATOM      8  C   UNL     1       0.989  -1.693  -1.204  0.00  0.00    +0.061 A 
ATOM      9  C   UNL     1       2.012  -0.764  -1.236  0.00  0.00    +0.111 A 
BRANCH   7  10
ATOM     10  N   UNL     1      -0.676  -3.130  -2.349  0.00  0.00    +0.056 N 
ATOM     11  O   UNL     1      -1.177  -3.514  -3.380  0.00  0.00    -0.126 OA
ATOM     12  O   UNL     1      -1.069  -3.561  -1.290  0.00  0.00    -0.126 OA
ENDBRANCH   7  10
BRANCH   4  14
ATOM     13  C   UNL     1       4.915   0.029  -2.600  0.00  0.00    +0.009 C 
ATOM     14  C   UNL     1       3.570   0.748  -2.482  0.00  0.00    +0.034 C 
ENDBRANCH   4  14
ENDBRANCH   1   9
BRANCH   1  15
ATOM     15  N   UNL     1       2.404   1.405   0.411  0.00  0.00    -0.187 NA
ATOM     16  H   UNL     1       3.123   2.056   0.400  0.00  0.00    +0.148 HD
BRANCH  15  17
ATOM     17  C   UNL     1       1.015   1.850   0.555  0.00  0.00    +0.077 C 
ATOM     18  C   UNL     1       0.467   2.262  -0.812  0.00  0.00    +0.025 C 
ATOM     19  C   UNL     1      -0.985   2.723  -0.662  0.00  0.00    +0.066 C 
ATOM     20  C   UNL     1      -1.044   3.913   0.296  0.00  0.00    +0.170 C 
ATOM     21  C   UNL     1      -0.492   3.507   1.663  0.00  0.00    +0.066 C 
ATOM     22  C   UNL     1       0.959   3.044   1.510  0.00  0.00    +0.025 C 
ATOM     23  O   UNL     1      -0.257   4.993  -0.235  0.00  0.00    -0.346 OA
ATOM     24  C   UNL     1      -1.206   5.831  -0.937  0.00  0.00    +0.191 C 
ATOM     25  C   UNL     1      -2.457   5.717  -0.031  0.00  0.00    +0.191 C 
ATOM     26  O   UNL     1      -2.400   4.354   0.435  0.00  0.00    -0.346 OA
ENDBRANCH  15  17
ENDBRANCH   1  15
TORSDOF 5
