REMARK  Name = ZINC01626622
REMARK  9 active torsions:
REMARK  status: ('A' for Active; 'I' for Inactive)
REMARK    1  A    between atoms: C_1  and  C_2
REMARK    2  A    between atoms: C_6  and  O_8
REMARK    3  A    between atoms: C_16  and  O_17
REMARK    4  A    between atoms: C_18  and  C_20
REMARK    5  A    between atoms: C_20  and  C_22
REMARK    6  A    between atoms: C_22  and  C_24
REMARK    7  A    between atoms: C_22  and  O_25
REMARK    8  A    between atoms: O_25  and  C_26
REMARK    9  A    between atoms: C_26  and  C_28
REMARK                            x       y       z     vdW  Elec       q    Type
REMARK                         _______ _______ _______ _____ _____    ______ ____
ROOT
ATOM      1  C   UNL     1      -2.636   4.220   0.054  0.00  0.00    +0.044 C 
ATOM      2  C   UNL     1      -1.296   3.530   0.039  0.00  0.00    -0.047 A 
ATOM      3  C   UNL     1      -1.238   2.148   0.031  0.00  0.00    +0.009 A 
ATOM      4  C   UNL     1      -0.018   1.494   0.010  0.00  0.00    -0.018 A 
ATOM      5  C   UNL     1       1.154   2.251   0.003  0.00  0.00    +0.068 A 
ATOM      6  C   UNL     1       1.095   3.650   0.021  0.00  0.00    +0.128 A 
ATOM      7  C   UNL     1      -0.140   4.284   0.038  0.00  0.00    +0.049 A 
ATOM      8  C   UNL     1       2.463   1.568  -0.029  0.00  0.00    +0.201 C 
ATOM      9  O   UNL     1       3.485   2.149   0.284  0.00  0.00    -0.286 OA
ATOM     10  C   UNL     1       2.488   0.154  -0.456  0.00  0.00    +0.068 A 
ATOM     11  C   UNL     1       1.306  -0.587  -0.453  0.00  0.00    -0.018 A 
ATOM     12  C   UNL     1       1.338  -1.902  -0.883  0.00  0.00    +0.005 A 
ATOM     13  C   UNL     1       2.524  -2.478  -1.302  0.00  0.00    +0.004 A 
ATOM     14  C   UNL     1       3.699  -1.752  -1.298  0.00  0.00    +0.046 A 
ATOM     15  C   UNL     1       3.690  -0.430  -0.875  0.00  0.00    +0.128 A 
ATOM     16  C   UNL     1       0.002  -0.004   0.002  0.00  0.00    +0.120 C 
ENDROOT
BRANCH   6  17
ATOM     17  O   UNL     1       2.237   4.382   0.021  0.00  0.00    -0.506 OA
ATOM     18  H   UNL     1       2.187   5.481   0.035  0.00  0.00    +0.292 HD
ENDBRANCH   6  17
BRANCH  15  19
ATOM     19  O   UNL     1       4.838   0.291  -0.866  0.00  0.00    -0.506 OA
ATOM     20  H   UNL     1       5.780  -0.171  -1.196  0.00  0.00    +0.292 HD
ENDBRANCH  15  19
BRANCH  16  21
ATOM     21  C   UNL     1      -0.285  -0.497   1.397  0.00  0.00    +0.185 C 
ATOM     22  O   UNL     1      -0.042   0.206   2.348  0.00  0.00    -0.292 OA
BRANCH  21  23
ATOM     23  C   UNL     1      -0.875  -1.868   1.605  0.00  0.00    +0.240 C 
ATOM     24  C   UNL     1      -2.360  -1.846   1.233  0.00  0.00    +0.060 C 
BRANCH  23  25
ATOM     25  O   UNL     1      -0.731  -2.251   2.998  0.00  0.00    -0.454 OA
BRANCH  25  26
ATOM     26  C   UNL     1      -0.607  -3.562   3.260  0.00  0.00    +0.305 C 
ATOM     27  O   UNL     1      -0.618  -4.362   2.355  0.00  0.00    -0.251 OA
ATOM     28  C   UNL     1      -0.453  -4.034   4.683  0.00  0.00    +0.136 C 
ENDBRANCH  25  26
ENDBRANCH  23  25
ENDBRANCH  21  23
ENDBRANCH  16  21
TORSDOF 6
