REMARK  Name = ZINC64755295
REMARK  6 active torsions:
REMARK  status: ('A' for Active; 'I' for Inactive)
REMARK    1  A    between atoms: C_1  and  C_2
REMARK    2  A    between atoms: C_7  and  N_8
REMARK    3  A    between atoms: C_9  and  C_11
REMARK    4  A    between atoms: C_11  and  S_12
REMARK    5  A    between atoms: S_12  and  C_13
REMARK    6  A    between atoms: C_20  and  C_24
REMARK                            x       y       z     vdW  Elec       q    Type
REMARK                         _______ _______ _______ _____ _____    ______ ____
ROOT
ATOM      1  S   UNL     1      -0.259  -1.133   6.252  0.00  0.00    -0.095 S 
ENDROOT
BRANCH   1   2
ATOM      2  C   UNL     1      -0.384  -0.118   7.687  0.00  0.00    +0.120 A 
ATOM      3  C   UNL     1      -0.469  -0.702   8.952  0.00  0.00    +0.040 A 
ATOM      4  C   UNL     1      -0.565   0.137  10.048  0.00  0.00    +0.052 A 
ATOM      5  C   UNL     1      -0.571   1.513   9.821  0.00  0.00    +0.176 A 
ATOM      6  N   UNL     1      -0.486   1.977   8.586  0.00  0.00    -0.129 NA
ATOM      7  N   UNL     1      -0.392   1.201   7.568  0.00  0.00    -0.141 NA
ATOM      8  N   UNL     1      -0.667   2.401  10.899  0.00  0.00    -0.217 N 
ATOM      9  C   UNL     1      -0.230   3.687  10.918  0.00  0.00    +0.044 A 
ATOM     10  C   UNL     1      -0.510   4.197  12.139  0.00  0.00    +0.044 A 
ATOM     11  C   UNL     1      -1.137   3.197  12.891  0.00  0.00    +0.135 A 
ATOM     12  N   UNL     1      -1.237   2.124  12.149  0.00  0.00    -0.173 NA
ATOM     13  C   UNL     1       0.445   4.414   9.784  0.00  0.00    +0.066 C 
ENDBRANCH   1   2
BRANCH   1  14
ATOM     14  C   UNL     1      -0.168   0.052   4.882  0.00  0.00    +0.172 C 
BRANCH  14  16
ATOM     15  N   UNL     1       0.025  -0.015   2.417  0.00  0.00    -0.285 N 
ATOM     16  C   UNL     1      -0.056  -0.694   3.578  0.00  0.00    +0.227 C 
ATOM     17  O   UNL     1      -0.040  -1.907   3.573  0.00  0.00    -0.275 OA
ATOM     18  H   UNL     1       0.078   0.954   2.425  0.00  0.00    +0.155 HD
BRANCH  15  25
ATOM     19  C   UNL     1      -1.264   1.184   0.181  0.00  0.00    +0.045 C 
ATOM     20  C   UNL     1      -0.584  -0.158   0.084  0.00  0.00    -0.029 A 
ATOM     21  C   UNL     1      -0.568  -0.840  -1.117  0.00  0.00    +0.005 A 
ATOM     22  C   UNL     1       0.055  -2.071  -1.206  0.00  0.00    +0.000 A 
ATOM     23  C   UNL     1       0.666  -2.622  -0.095  0.00  0.00    +0.002 A 
ATOM     24  C   UNL     1       0.655  -1.945   1.108  0.00  0.00    +0.023 A 
ATOM     25  C   UNL     1       0.034  -0.706   1.201  0.00  0.00    +0.036 A 
ENDBRANCH  15  25
ENDBRANCH  14  16
ENDBRANCH   1  14
TORSDOF 4
