REMARK  Name = ZINC60156672
REMARK  10 active torsions:
REMARK  status: ('A' for Active; 'I' for Inactive)
REMARK    1  A    between atoms: C_1  and  C_2
REMARK    2  A    between atoms: N_5  and  S_11
REMARK    3  A    between atoms: C_7  and  C_10
REMARK    4  A    between atoms: S_11  and  C_14
REMARK    5  A    between atoms: C_18  and  C_20
REMARK    6  A    between atoms: N_22  and  C_23
REMARK    7  A    between atoms: C_23  and  C_24
REMARK    8  A    between atoms: C_24  and  C_26
REMARK    9  A    between atoms: C_24  and  N_27
REMARK   10  A    between atoms: C_30  and  C_33
REMARK                            x       y       z     vdW  Elec       q    Type
REMARK                         _______ _______ _______ _____ _____    ______ ____
ROOT
ATOM      1  C   UNL     1      -0.303  -3.097  -1.449  0.00  0.00    +0.106 A 
ATOM      2  C   UNL     1      -0.462  -2.335  -2.593  0.00  0.00    +0.028 A 
ATOM      3  C   UNL     1       0.121  -2.732  -3.783  0.00  0.00    +0.003 A 
ATOM      4  C   UNL     1       0.866  -3.893  -3.836  0.00  0.00    +0.013 A 
ATOM      5  C   UNL     1       1.030  -4.666  -2.686  0.00  0.00    +0.039 A 
ATOM      6  C   UNL     1       0.443  -4.257  -1.487  0.00  0.00    +0.041 A 
ENDROOT
BRANCH   5   7
ATOM      7  C   UNL     1       1.825  -5.912  -2.736  0.00  0.00    +0.244 C 
ATOM      8  O   UNL     1       1.966  -6.583  -1.732  0.00  0.00    -0.270 OA
ATOM      9  N   UNL     1       2.394  -6.302  -3.893  0.00  0.00    -0.313 N 
ATOM     10  H   UNL     1       2.281  -5.766  -4.694  0.00  0.00    +0.149 HD
BRANCH   9  11
ATOM     11  C   UNL     1       3.182  -7.536  -3.943  0.00  0.00    +0.089 C 
BRANCH  11  12
ATOM     12  C   UNL     1       3.822  -7.678  -5.325  0.00  0.00    -0.054 C 
ATOM     13  C   UNL     1       4.718  -8.917  -5.348  0.00  0.00    -0.012 C 
BRANCH  12  14
ATOM     14  N   UNL     1       4.628  -6.485  -5.617  0.00  0.00    +0.382 N 
ATOM     15  C   UNL     1       5.754  -6.416  -4.678  0.00  0.00    -0.078 C 
ATOM     16  C   UNL     1       6.551  -5.133  -4.924  0.00  0.00    -0.016 C 
ATOM     17  C   UNL     1       7.081  -5.136  -6.361  0.00  0.00    -0.018 C 
ATOM     18  C   UNL     1       5.904  -5.283  -7.329  0.00  0.00    -0.016 C 
ATOM     19  C   UNL     1       5.131  -6.560  -6.994  0.00  0.00    -0.078 C 
ATOM     20  C   UNL     1       7.812  -3.821  -6.639  0.00  0.00    +0.007 C 
ATOM     21  H   UNL     1       4.056  -5.660  -5.514  0.00  0.00    -0.081 HD
ENDBRANCH  12  14
ENDBRANCH  11  12
ENDBRANCH   9  11
ENDBRANCH   5   7
BRANCH   1  22
ATOM     22  S   UNL     1      -1.050  -2.582   0.061  0.00  0.00    +0.061 S 
ATOM     23  O   UNL     1      -1.201  -3.748   0.859  0.00  0.00    -0.153 OA
ATOM     24  O   UNL     1      -2.148  -1.752  -0.291  0.00  0.00    -0.153 OA
BRANCH  22  28
ATOM     25  C   UNL     1       1.591   1.786   0.246  0.00  0.00    +0.039 C 
ATOM     26  C   UNL     1       1.502   0.260   0.294  0.00  0.00    +0.131 C 
ATOM     27  C   UNL     1       0.064  -0.159   0.618  0.00  0.00    +0.140 C 
ATOM     28  N   UNL     1       0.043  -1.613   0.843  0.00  0.00    -0.172 NA
ATOM     29  C   UNL     1       1.022  -2.182   1.782  0.00  0.00    +0.140 C 
ATOM     30  C   UNL     1       2.414  -1.664   1.402  0.00  0.00    +0.131 C 
ATOM     31  O   UNL     1       2.378  -0.238   1.308  0.00  0.00    -0.371 OA
ATOM     32  C   UNL     1       3.425  -2.081   2.473  0.00  0.00    +0.039 C 
ENDBRANCH  22  28
ENDBRANCH   1  22
TORSDOF 6
