REMARK  Name = ZINC08704710
REMARK  13 active torsions:
REMARK  status: ('A' for Active; 'I' for Inactive)
REMARK    1  A    between atoms: C_1  and  C_2
REMARK    2  A    between atoms: C_3  and  C_12
REMARK    3  A    between atoms: C_12  and  C_13
REMARK    4  A    between atoms: C_13  and  C_14
REMARK    5  A    between atoms: N_16  and  C_17
REMARK    6  A    between atoms: N_16  and  C_22
REMARK    7  A    between atoms: C_17  and  C_18
REMARK    8  A    between atoms: C_18  and  C_19
REMARK    9  A    between atoms: C_19  and  O_20
REMARK   10  A    between atoms: O_20  and  C_21
REMARK   11  A    between atoms: C_23  and  N_38
REMARK   12  A    between atoms: N_24  and  C_31
REMARK   13  A    between atoms: C_31  and  C_32
REMARK                            x       y       z     vdW  Elec       q    Type
REMARK                         _______ _______ _______ _____ _____    ______ ____
ROOT
ATOM      1  C   UNL     1       2.319   5.023  -0.093  0.00  0.00    +0.220 C 
ATOM      2  O   UNL     1       1.252   5.598  -0.129  0.00  0.00    -0.275 OA
ATOM      3  N   UNL     1       2.359   3.681   0.046  0.00  0.00    -0.264 N 
ENDROOT
BRANCH   3   4
ATOM      4  C   UNL     1       1.160   2.937   0.046  0.00  0.00    +0.140 A 
ATOM      5  C   UNL     1       0.748   2.269   1.181  0.00  0.00    +0.128 A 
ATOM      6  N   UNL     1      -0.425   1.552   1.149  0.00  0.00    -0.276 N 
ATOM      7  C   UNL     1      -1.165   1.506   0.027  0.00  0.00    +0.331 A 
ATOM      8  O   UNL     1      -2.202   0.870   0.021  0.00  0.00    -0.246 OA
ATOM      9  N   UNL     1      -0.777   2.146  -1.090  0.00  0.00    -0.273 N 
ATOM     10  H   UNL     1      -1.342   2.090  -1.914  0.00  0.00    +0.173 HD
ATOM     11  C   UNL     1       0.364   2.863  -1.113  0.00  0.00    +0.277 A 
ATOM     12  O   UNL     1       0.704   3.443  -2.130  0.00  0.00    -0.266 OA
BRANCH   5  13
ATOM     13  N   UNL     1       1.502   2.319   2.329  0.00  0.00    -0.343 N 
ATOM     14  H   UNL     1       2.349   2.791   2.333  0.00  0.00    +0.144 HD
ATOM     15  H   UNL     1       1.186   1.883   3.135  0.00  0.00    +0.144 HD
ENDBRANCH   5  13
BRANCH   6  16
ATOM     16  C   UNL     1      -0.874   0.838   2.347  0.00  0.00    +0.163 C 
BRANCH  16  17
ATOM     17  C   UNL     1      -1.744   1.746   3.177  0.00  0.00    -0.028 A 
ATOM     18  C   UNL     1      -1.178   2.544   4.153  0.00  0.00    +0.005 A 
ATOM     19  C   UNL     1      -1.975   3.381   4.911  0.00  0.00    +0.000 A 
ATOM     20  C   UNL     1      -3.341   3.412   4.699  0.00  0.00    +0.000 A 
ATOM     21  C   UNL     1      -3.909   2.611   3.726  0.00  0.00    +0.000 A 
ATOM     22  C   UNL     1      -3.110   1.778   2.965  0.00  0.00    +0.005 A 
ENDBRANCH  16  17
ENDBRANCH   6  16
ENDBRANCH   3   4
BRANCH   1  23
ATOM     23  C   UNL     1       3.602   5.806  -0.204  0.00  0.00    +0.101 C 
BRANCH  23  24
ATOM     24  C   UNL     1       3.279   7.295  -0.353  0.00  0.00    +0.051 C 
BRANCH  24  27
ATOM     25  C   UNL     1       4.351   7.965  -2.930  0.00  0.00    +0.064 C 
ATOM     26  C   UNL     1       5.067   8.395  -1.675  0.00  0.00    +0.026 A 
ATOM     27  C   UNL     1       4.561   8.078  -0.464  0.00  0.00    +0.036 A 
ATOM     28  C   UNL     1       5.255   8.488   0.700  0.00  0.00    +0.257 A 
ATOM     29  O   UNL     1       4.821   8.210   1.804  0.00  0.00    -0.267 OA
ATOM     30  N   UNL     1       6.401   9.188   0.576  0.00  0.00    -0.275 N 
ATOM     31  H   UNL     1       6.896   9.481   1.393  0.00  0.00    +0.173 HD
ATOM     32  C   UNL     1       6.879   9.494  -0.644  0.00  0.00    +0.327 A 
ATOM     33  O   UNL     1       7.914  10.126  -0.741  0.00  0.00    -0.247 OA
ATOM     34  N   UNL     1       6.230   9.111  -1.758  0.00  0.00    -0.311 N 
ATOM     35  H   UNL     1       6.600   9.352  -2.656  0.00  0.00    +0.170 HD
ENDBRANCH  24  27
ENDBRANCH  23  24
ENDBRANCH   1  23
BRANCH   3  36
ATOM     36  C   UNL     1       3.645   2.998   0.198  0.00  0.00    +0.116 C 
BRANCH  36  37
ATOM     37  C   UNL     1       4.247   2.731  -1.183  0.00  0.00    +0.047 C 
BRANCH  37  38
ATOM     38  C   UNL     1       5.591   2.017  -1.024  0.00  0.00    +0.161 C 
BRANCH  38  39
ATOM     39  O   UNL     1       6.154   1.768  -2.314  0.00  0.00    -0.383 OA
ATOM     40  C   UNL     1       7.417   1.101  -2.279  0.00  0.00    +0.193 C 
ENDBRANCH  38  39
ENDBRANCH  37  38
ENDBRANCH  36  37
ENDBRANCH   3  36
TORSDOF 11
