REMARK  Name = ZINC36219730
REMARK  5 active torsions:
REMARK  status: ('A' for Active; 'I' for Inactive)
REMARK    1  A    between atoms: C_1  and  C_2
REMARK    2  A    between atoms: C_11  and  N_28
REMARK    3  A    between atoms: C_13  and  S_15
REMARK    4  A    between atoms: S_15  and  C_16
REMARK    5  A    between atoms: C_16  and  C_17
REMARK                            x       y       z     vdW  Elec       q    Type
REMARK                         _______ _______ _______ _____ _____    ______ ____
ROOT
ATOM      1  C   UNL     1      -1.968   0.756   0.315  0.00  0.00    +0.008 C 
ATOM      2  C   UNL     1      -1.497  -0.696   0.209  0.00  0.00    -0.009 C 
ATOM      3  C   UNL     1      -0.576  -0.850  -1.005  0.00  0.00    +0.008 C 
ATOM      4  C   UNL     1      -0.302  -2.332  -1.262  0.00  0.00    +0.037 C 
ATOM      5  C   UNL     1       0.203  -2.973   0.028  0.00  0.00    -0.025 A 
ATOM      6  C   UNL     1      -0.006  -2.373   1.221  0.00  0.00    -0.004 A 
ATOM      7  S   UNL     1       0.733  -3.450   2.423  0.00  0.00    -0.073 S 
ATOM      8  C   UNL     1       1.322  -4.702   1.329  0.00  0.00    +0.115 A 
ATOM      9  C   UNL     1       0.920  -4.238   0.051  0.00  0.00    +0.051 A 
ATOM     10  C   UNL     1       1.260  -5.053  -1.068  0.00  0.00    +0.129 A 
ATOM     11  N   UNL     1       1.924  -6.173  -0.793  0.00  0.00    -0.207 NA
ATOM     12  C   UNL     1       2.268  -6.546   0.430  0.00  0.00    +0.191 A 
ATOM     13  N   UNL     1       1.980  -5.828   1.519  0.00  0.00    -0.215 NA
ATOM     14  C   UNL     1      -0.716  -1.077   1.474  0.00  0.00    +0.046 C 
ENDROOT
BRANCH  10  15
ATOM     15  N   UNL     1       0.919  -4.701  -2.361  0.00  0.00    -0.343 N 
ATOM     16  H   UNL     1       1.360  -5.128  -3.112  0.00  0.00    +0.144 HD
ATOM     17  H   UNL     1       0.239  -4.027  -2.518  0.00  0.00    +0.144 HD
ENDBRANCH  10  15
BRANCH  12  18
ATOM     18  S   UNL     1       3.146  -8.060   0.631  0.00  0.00    -0.078 S 
BRANCH  18  19
ATOM     19  C   UNL     1       3.321  -8.694  -1.060  0.00  0.00    +0.151 C 
BRANCH  19  20
ATOM     20  C   UNL     1       4.065 -10.004  -1.031  0.00  0.00    +0.121 A 
ATOM     21  N   UNL     1       4.302 -10.639  -2.209  0.00  0.00    -0.309 N 
ATOM     22  H   UNL     1       3.996 -10.251  -3.044  0.00  0.00    +0.170 HD
ATOM     23  C   UNL     1       4.969 -11.818  -2.206  0.00  0.00    +0.266 A 
ATOM     24  O   UNL     1       5.198 -12.412  -3.246  0.00  0.00    -0.267 OA
ATOM     25  C   UNL     1       5.388 -12.333  -0.979  0.00  0.00    +0.102 A 
ATOM     26  C   UNL     1       5.130 -11.656   0.226  0.00  0.00    +0.085 A 
ATOM     27  N   UNL     1       4.452 -10.467   0.114  0.00  0.00    -0.232 NA
ATOM     28  C   UNL     1       5.605 -12.285   1.385  0.00  0.00    +0.036 A 
ATOM     29  C   UNL     1       6.263 -13.461   1.298  0.00  0.00    +0.048 A 
ATOM     30  S   UNL     1       6.263 -13.784  -0.457  0.00  0.00    -0.090 S 
ENDBRANCH  19  20
ENDBRANCH  18  19
ENDBRANCH  12  18
TORSDOF 4
