REMARK  Name = ZINC18224050
REMARK  13 active torsions:
REMARK  status: ('A' for Active; 'I' for Inactive)
REMARK    1  A    between atoms: C_1  and  C_2
REMARK    2  A    between atoms: C_2  and  C_3
REMARK    3  A    between atoms: C_3  and  N_4
REMARK    4  A    between atoms: N_4  and  C_5
REMARK    5  A    between atoms: C_6  and  N_21
REMARK    6  A    between atoms: N_7  and  C_14
REMARK    7  A    between atoms: C_14  and  C_15
REMARK    8  A    between atoms: C_22  and  C_24
REMARK    9  A    between atoms: C_24  and  O_25
REMARK   10  A    between atoms: O_25  and  C_26
REMARK   11  A    between atoms: C_26  and  C_28
REMARK   12  A    between atoms: C_33  and  N_34
REMARK   13  A    between atoms: N_34  and  C_35
REMARK                            x       y       z     vdW  Elec       q    Type
REMARK                         _______ _______ _______ _____ _____    ______ ____
ROOT
ATOM      1  N   UNL     1       0.657  -1.736  -1.242  0.00  0.00    -0.261 N 
ATOM      2  C   UNL     1       1.736  -2.364  -0.731  0.00  0.00    +0.258 C 
ATOM      3  O   UNL     1       1.825  -3.572  -0.802  0.00  0.00    -0.272 OA
ENDROOT
BRANCH   1   4
ATOM      4  C   UNL     1      -0.418  -2.488  -1.761  0.00  0.00    +0.140 A 
ATOM      5  C   UNL     1      -0.723  -2.442  -3.106  0.00  0.00    +0.128 A 
ATOM      6  N   UNL     1      -1.777  -3.187  -3.582  0.00  0.00    -0.276 N 
ATOM      7  C   UNL     1      -2.502  -3.952  -2.745  0.00  0.00    +0.331 A 
ATOM      8  O   UNL     1      -3.430  -4.603  -3.186  0.00  0.00    -0.246 OA
ATOM      9  N   UNL     1      -2.219  -4.010  -1.432  0.00  0.00    -0.273 N 
ATOM     10  H   UNL     1      -2.756  -4.570  -0.850  0.00  0.00    +0.173 HD
ATOM     11  C   UNL     1      -1.194  -3.304  -0.916  0.00  0.00    +0.277 A 
ATOM     12  O   UNL     1      -0.943  -3.368   0.276  0.00  0.00    -0.266 OA
BRANCH   5  13
ATOM     13  N   UNL     1       0.017  -1.660  -3.960  0.00  0.00    -0.343 N 
ATOM     14  H   UNL     1       0.715  -1.084  -3.609  0.00  0.00    +0.144 HD
ATOM     15  H   UNL     1      -0.158  -1.683  -4.914  0.00  0.00    +0.144 HD
ENDBRANCH   5  13
BRANCH   6  16
ATOM     16  C   UNL     1      -2.112  -3.147  -5.007  0.00  0.00    +0.163 C 
BRANCH  16  17
ATOM     17  C   UNL     1      -1.348  -4.224  -5.733  0.00  0.00    -0.028 A 
ATOM     18  C   UNL     1      -0.095  -3.954  -6.251  0.00  0.00    +0.005 A 
ATOM     19  C   UNL     1       0.606  -4.942  -6.917  0.00  0.00    +0.000 A 
ATOM     20  C   UNL     1       0.053  -6.201  -7.064  0.00  0.00    +0.000 A 
ATOM     21  C   UNL     1      -1.199  -6.472  -6.546  0.00  0.00    +0.000 A 
ATOM     22  C   UNL     1      -1.898  -5.485  -5.876  0.00  0.00    +0.005 A 
ENDBRANCH  16  17
ENDBRANCH   6  16
ENDBRANCH   1   4
BRANCH   1  23
ATOM     23  C   UNL     1       0.602  -0.272  -1.260  0.00  0.00    +0.114 C 
BRANCH  23  25
ATOM     24  C   UNL     1      -0.204   1.754  -0.039  0.00  0.00    +0.005 C 
ATOM     25  C   UNL     1      -0.146   0.225  -0.021  0.00  0.00    +0.016 C 
ENDBRANCH  23  25
ENDBRANCH   1  23
BRANCH   2  26
ATOM     26  C   UNL     1       2.830  -1.565  -0.070  0.00  0.00    +0.328 C 
BRANCH  26  27
ATOM     27  O   UNL     1       3.855  -2.449   0.388  0.00  0.00    -0.452 OA
BRANCH  27  28
ATOM     28  C   UNL     1       4.914  -1.890   1.006  0.00  0.00    +0.341 C 
ATOM     29  O   UNL     1       4.965  -0.685   1.153  0.00  0.00    -0.245 OA
BRANCH  28  30
ATOM     30  C   UNL     1       6.009  -2.740   1.505  0.00  0.00    +0.080 A 
ATOM     31  C   UNL     1       6.018  -4.110   1.227  0.00  0.00    +0.017 A 
ATOM     32  C   UNL     1       7.045  -4.899   1.696  0.00  0.00    +0.001 A 
ATOM     33  C   UNL     1       8.071  -4.343   2.444  0.00  0.00    +0.002 A 
ATOM     34  C   UNL     1       8.077  -2.992   2.726  0.00  0.00    +0.024 A 
ATOM     35  C   UNL     1       7.053  -2.178   2.257  0.00  0.00    +0.041 A 
BRANCH  35  36
ATOM     36  N   UNL     1       7.059  -0.818   2.535  0.00  0.00    -0.346 N 
ATOM     37  C   UNL     1       8.213  -0.213   3.206  0.00  0.00    +0.125 C 
ATOM     38  H   UNL     1       6.300  -0.269   2.285  0.00  0.00    +0.146 HD
ENDBRANCH  35  36
ENDBRANCH  28  30
ENDBRANCH  27  28
ENDBRANCH  26  27
ENDBRANCH   2  26
TORSDOF 11
