REMARK  Name = ZINC67625789
REMARK  9 active torsions:
REMARK  status: ('A' for Active; 'I' for Inactive)
REMARK    1  A    between atoms: C_1  and  C_2
REMARK    2  A    between atoms: N_5  and  C_8
REMARK    3  A    between atoms: C_8  and  C_9
REMARK    4  A    between atoms: C_9  and  C_11
REMARK    5  A    between atoms: C_9  and  O_27
REMARK    6  A    between atoms: C_11  and  N_12
REMARK    7  A    between atoms: N_15  and  C_16
REMARK    8  A    between atoms: C_16  and  C_17
REMARK    9  A    between atoms: C_17  and  C_20
REMARK                            x       y       z     vdW  Elec       q    Type
REMARK                         _______ _______ _______ _____ _____    ______ ____
ROOT
ATOM      1  N   UNL     1       0.443  -5.806   4.816  0.00  0.00    -0.297 N 
ATOM      2  C   UNL     1       0.590  -7.145   4.836  0.00  0.00    +0.300 C 
ATOM      3  O   UNL     1       0.152  -7.818   3.922  0.00  0.00    -0.253 OA
ATOM      4  N   UNL     1       1.222  -7.739   5.867  0.00  0.00    -0.299 N 
ATOM      5  H   UNL     1       0.793  -5.269   5.545  0.00  0.00    +0.150 HD
ATOM      6  H   UNL     1       1.572  -7.203   6.596  0.00  0.00    +0.150 HD
ENDROOT
BRANCH   1   7
ATOM      7  C   UNL     1      -0.244  -5.160   3.695  0.00  0.00    +0.135 C 
BRANCH   7   8
ATOM      8  C   UNL     1      -0.274  -3.647   3.918  0.00  0.00    +0.115 C 
BRANCH   8   9
ATOM      9  O   UNL     1      -0.969  -3.358   5.133  0.00  0.00    -0.392 OA
ATOM     10  H   UNL     1      -1.885  -3.666   5.145  0.00  0.00    +0.210 HD
ENDBRANCH   8   9
BRANCH   8  11
ATOM     11  C   UNL     1      -0.991  -2.972   2.748  0.00  0.00    -0.046 C 
BRANCH  11  16
ATOM     12  C   UNL     1      -0.228   2.659   2.272  0.00  0.00    +0.007 C 
ATOM     13  C   UNL     1      -0.252   1.155   1.990  0.00  0.00    -0.018 C 
ATOM     14  C   UNL     1      -1.696   0.647   2.048  0.00  0.00    -0.016 C 
ATOM     15  C   UNL     1      -1.705  -0.870   1.845  0.00  0.00    -0.078 C 
ATOM     16  N   UNL     1      -0.915  -1.514   2.901  0.00  0.00    +0.381 N 
ATOM     17  C   UNL     1       0.485  -1.085   2.808  0.00  0.00    -0.078 C 
ATOM     18  C   UNL     1       0.579   0.423   3.048  0.00  0.00    -0.016 C 
ATOM     19  H   UNL     1      -1.286  -1.253   3.803  0.00  0.00    -0.082 HD
ENDBRANCH  11  16
ENDBRANCH   8  11
ENDBRANCH   7   8
ENDBRANCH   1   7
BRANCH   4  20
ATOM     20  C   UNL     1       1.381  -9.195   5.888  0.00  0.00    +0.117 C 
BRANCH  20  21
ATOM     21  C   UNL     1       2.150  -9.606   7.146  0.00  0.00    +0.011 C 
ATOM     22  C   UNL     1       1.603 -10.784   7.954  0.00  0.00    +0.014 C 
ATOM     23  C   UNL     1       1.477  -9.360   8.497  0.00  0.00    +0.014 C 
BRANCH  21  24
ATOM     24  C   UNL     1       3.647  -9.446   7.074  0.00  0.00    -0.040 A 
ATOM     25  C   UNL     1       4.383 -10.217   6.194  0.00  0.00    +0.007 A 
ATOM     26  C   UNL     1       5.755 -10.070   6.127  0.00  0.00    +0.038 A 
ATOM     27  C   UNL     1       6.393  -9.151   6.942  0.00  0.00    +0.123 A 
ATOM     28  C   UNL     1       5.655  -8.380   7.824  0.00  0.00    +0.038 A 
ATOM     29  C   UNL     1       4.282  -8.524   7.885  0.00  0.00    +0.007 A 
ATOM     30  F   UNL     1       7.735  -9.008   6.878  0.00  0.00    -0.205 F 
ENDBRANCH  21  24
ENDBRANCH  20  21
ENDBRANCH   4  20
TORSDOF 8
