REMARK  Name = ZINC39468792
REMARK  4 active torsions:
REMARK  status: ('A' for Active; 'I' for Inactive)
REMARK    1  A    between atoms: C_1  and  O_2
REMARK    2  A    between atoms: O_2  and  C_3
REMARK    3  A    between atoms: C_15  and  C_16
REMARK    4  A    between atoms: C_21  and  O_22
REMARK                            x       y       z     vdW  Elec       q    Type
REMARK                         _______ _______ _______ _____ _____    ______ ____
ROOT
ATOM      1  C   UNL     1       0.626  -0.618   1.041  0.00  0.00    +0.124 C 
ATOM      2  C   UNL     1       1.182   0.108   2.016  0.00  0.00    +0.021 C 
ATOM      3  C   UNL     1       1.854  -0.603   3.158  0.00  0.00    +0.008 C 
ATOM      4  C   UNL     1       1.935   0.278   4.399  0.00  0.00    -0.046 C 
ATOM      5  N   UNL     1       2.639  -0.440   5.476  0.00  0.00    +0.399 N 
ATOM      6  C   UNL     1       1.944  -1.676   5.837  0.00  0.00    -0.020 C 
ATOM      7  C   UNL     1       1.785  -2.597   4.620  0.00  0.00    -0.003 C 
ATOM      8  C   UNL     1       1.039  -1.852   3.518  0.00  0.00    +0.016 C 
ATOM      9  C   UNL     1       0.885  -2.704   2.288  0.00  0.00    -0.011 C 
ATOM     10  C   UNL     1       0.688  -2.098   1.105  0.00  0.00    +0.023 C 
ATOM     11  C   UNL     1       2.728  -2.473   6.888  0.00  0.00    +0.159 C 
ATOM     12  O   UNL     1       2.847  -1.689   8.090  0.00  0.00    -0.297 OA
ATOM     13  P   UNL     1       3.384  -0.160   7.946  0.00  0.00    +0.421 P 
ATOM     14  O   UNL     1       4.924  -0.142   7.830  0.00  0.00    -0.239 OA
ATOM     15  N   UNL     1       2.680   0.421   6.552  0.00  0.00    -0.267 NA
ATOM     16  O   UNL     1       2.929   0.683   9.159  0.00  0.00    -0.128 OA
ATOM     17  H   UNL     1       2.329   1.323   6.487  0.00  0.00    +0.113 HD
ATOM     18  H   UNL     1       3.579  -0.655   5.179  0.00  0.00    -0.055 HD
ENDROOT
BRANCH  10  19
ATOM     19  C   UNL     1       0.539  -2.906  -0.130  0.00  0.00    +0.027 A 
ATOM     20  C   UNL     1      -0.651  -3.585  -0.382  0.00  0.00    +0.012 A 
ATOM     21  C   UNL     1      -0.785  -4.335  -1.533  0.00  0.00    +0.001 A 
ATOM     22  C   UNL     1       0.259  -4.416  -2.438  0.00  0.00    +0.004 A 
ATOM     23  C   UNL     1       1.444  -3.746  -2.197  0.00  0.00    +0.046 A 
ATOM     24  C   UNL     1       1.590  -2.985  -1.049  0.00  0.00    +0.125 A 
BRANCH  24  25
ATOM     25  O   UNL     1       2.752  -2.322  -0.814  0.00  0.00    -0.506 OA
ATOM     26  H   UNL     1       3.406  -2.837  -0.322  0.00  0.00    +0.292 HD
ENDBRANCH  24  25
ENDBRANCH  10  19
BRANCH   1  28
ATOM     27  C   UNL     1      -0.017   1.425   0.010  0.00  0.00    +0.277 C 
ATOM     28  O   UNL     1       0.002  -0.004   0.002  0.00  0.00    -0.495 OA
ENDBRANCH   1  28
TORSDOF 3
