REMARK  Name = ZINC03449858
REMARK  4 active torsions:
REMARK  status: ('A' for Active; 'I' for Inactive)
REMARK    1  A    between atoms: C_5  and  C_7
REMARK    2  A    between atoms: N_8  and  N_9
REMARK    3  A    between atoms: C_10  and  C_12
REMARK    4  A    between atoms: C_14  and  N_19
REMARK                            x       y       z     vdW  Elec       q    Type
REMARK                         _______ _______ _______ _____ _____    ______ ____
ROOT
ATOM      1  N   UNL     1       3.595   5.955   0.001  0.00  0.00    -0.202 N 
ATOM      2  C   UNL     1       3.572   7.303   0.008  0.00  0.00    +0.281 C 
ATOM      3  O   UNL     1       2.509   7.892   0.021  0.00  0.00    -0.267 OA
ATOM      4  H   UNL     1       4.444   5.485  -0.010  0.00  0.00    +0.178 HD
ENDROOT
BRANCH   2   5
ATOM      5  C   UNL     1       4.840   8.065   0.001  0.00  0.00    +0.125 A 
ATOM      6  C   UNL     1       4.808   9.457   0.003  0.00  0.00    +0.091 A 
ATOM      7  C   UNL     1       6.013  10.160   0.000  0.00  0.00    +0.067 A 
ATOM      8  C   UNL     1       7.203   9.434  -0.015  0.00  0.00    +0.098 A 
ATOM      9  C   UNL     1       7.152   8.050  -0.021  0.00  0.00    +0.128 A 
ATOM     10 CL   UNL     1       8.631   7.140  -0.039  0.00  0.00    -0.062 Cl
ATOM     11 CL   UNL     1       8.732  10.257  -0.025  0.00  0.00    -0.079 Cl
ATOM     12 CL   UNL     1       3.293  10.304   0.014  0.00  0.00    -0.079 Cl
ATOM     13  N   UNL     1       5.999   7.333  -0.014  0.00  0.00    -0.339 N 
ATOM     14  H   UNL     1       5.995   6.307  -0.019  0.00  0.00    +0.167 HD
BRANCH   7  15
ATOM     15  N   UNL     1       6.027  11.553   0.007  0.00  0.00    -0.356 N 
ATOM     16  H   UNL     1       6.871  12.030   0.001  0.00  0.00    +0.142 HD
ATOM     17  H   UNL     1       5.191  12.046   0.017  0.00  0.00    +0.142 HD
ENDBRANCH   7  15
ENDBRANCH   2   5
BRANCH   1  19
ATOM     18  C   UNL     1       2.417   3.936   0.001  0.00  0.00    +0.139 C 
ATOM     19  N   UNL     1       2.394   5.234   0.008  0.00  0.00    -0.187 NA
BRANCH  18  24
ATOM     20  C   UNL     1      -0.013   1.076   0.008  0.00  0.00    +0.001 A 
ATOM     21  C   UNL     1      -1.222   1.750   0.017  0.00  0.00    +0.001 A 
ATOM     22  C   UNL     1      -1.251   3.132   0.031  0.00  0.00    +0.020 A 
ATOM     23  C   UNL     1      -0.071   3.851   0.023  0.00  0.00    +0.050 A 
ATOM     24  C   UNL     1       1.153   3.176   0.008  0.00  0.00    +0.013 A 
ATOM     25  C   UNL     1       1.173   1.780   0.000  0.00  0.00    +0.011 A 
ATOM     26 CL   UNL     1      -0.109   5.586   0.033  0.00  0.00    -0.083 Cl
ENDBRANCH  18  24
ENDBRANCH   1  19
TORSDOF 4
