REMARK  Name = ZINC28230405
REMARK  11 active torsions:
REMARK  status: ('A' for Active; 'I' for Inactive)
REMARK    1  A    between atoms: C_1  and  C_2
REMARK    2  A    between atoms: C_7  and  C_8
REMARK    3  A    between atoms: C_8  and  N_9
REMARK    4  A    between atoms: C_10  and  C_32
REMARK    5  A    between atoms: C_11  and  N_15
REMARK    6  A    between atoms: C_12  and  C_14
REMARK    7  A    between atoms: C_16  and  C_18
REMARK    8  A    between atoms: N_21  and  C_23
REMARK    9  A    between atoms: C_23  and  N_24
REMARK   10  A    between atoms: C_25  and  C_31
REMARK   11  A    between atoms: C_27  and  C_29
REMARK                            x       y       z     vdW  Elec       q    Type
REMARK                         _______ _______ _______ _____ _____    ______ ____
ROOT
ATOM      1  N   UNL     1      -0.751  -2.187  -4.522  0.00  0.00    -0.277 N 
ATOM      2  C   UNL     1      -0.091  -3.218  -3.958  0.00  0.00    +0.268 C 
ATOM      3  O   UNL     1      -0.099  -4.311  -4.493  0.00  0.00    -0.268 OA
ATOM      4  H   UNL     1      -0.815  -1.222  -3.998  0.00  0.00    +0.155 HD
ENDROOT
BRANCH   1   7
ATOM      5  N   UNL     1      -2.726  -2.135  -7.481  0.00  0.00    -0.262 N 
ATOM      6  C   UNL     1      -2.475  -1.707  -6.216  0.00  0.00    +0.058 A 
ATOM      7  C   UNL     1      -1.358  -2.345  -5.782  0.00  0.00    +0.077 A 
ATOM      8  C   UNL     1      -0.921  -3.194  -6.809  0.00  0.00    +0.081 A 
ATOM      9  N   UNL     1      -1.738  -3.068  -7.823  0.00  0.00    -0.174 NA
ATOM     10  C   UNL     1       0.285  -4.096  -6.755  0.00  0.00    +0.069 C 
ATOM     11  C   UNL     1      -3.287  -0.704  -5.438  0.00  0.00    +0.067 C 
BRANCH   5  12
ATOM     12  C   UNL     1      -3.836  -1.703  -8.333  0.00  0.00    +0.179 C 
BRANCH  12  19
ATOM     13  C   UNL     1      -3.816  -4.194  -9.796  0.00  0.00    +0.044 C 
ATOM     14  C   UNL     1      -4.974  -3.861  -8.892  0.00  0.00    -0.046 A 
ATOM     15  C   UNL     1      -6.025  -4.750  -8.759  0.00  0.00    +0.004 A 
ATOM     16  C   UNL     1      -7.089  -4.443  -7.932  0.00  0.00    +0.000 A 
ATOM     17  C   UNL     1      -7.101  -3.249  -7.236  0.00  0.00    +0.000 A 
ATOM     18  C   UNL     1      -6.049  -2.362  -7.365  0.00  0.00    +0.006 A 
ATOM     19  C   UNL     1      -4.984  -2.670  -8.191  0.00  0.00    -0.023 A 
ENDBRANCH  12  19
ENDBRANCH   5  12
ENDBRANCH   1   7
BRANCH   2  20
ATOM     20  C   UNL     1       0.642  -3.022  -2.691  0.00  0.00    +0.147 A 
ATOM     21  C   UNL     1       1.377  -4.002  -1.983  0.00  0.00    +0.054 A 
ATOM     22  C   UNL     1       1.872  -3.366  -0.895  0.00  0.00    +0.111 A 
ATOM     23  N   UNL     1       1.448  -2.086  -0.952  0.00  0.00    -0.249 N 
ATOM     24  N   UNL     1       0.735  -1.900  -2.005  0.00  0.00    -0.165 NA
BRANCH  23  25
ATOM     25  C   UNL     1       1.760  -1.055   0.041  0.00  0.00    +0.286 C 
BRANCH  25  26
ATOM     26  N   UNL     1       2.376   0.095  -0.627  0.00  0.00    -0.246 N 
ATOM     27  C   UNL     1       3.697   0.275  -0.839  0.00  0.00    +0.052 A 
ATOM     28  C   UNL     1       3.854   1.456  -1.482  0.00  0.00    +0.061 A 
ATOM     29  C   UNL     1       2.585   2.016  -1.669  0.00  0.00    +0.074 A 
ATOM     30  N   UNL     1       1.699   1.201  -1.157  0.00  0.00    -0.173 NA
ATOM     31  C   UNL     1       2.290   3.328  -2.349  0.00  0.00    +0.068 C 
ATOM     32 BR   UNL     1       5.497   2.215  -2.032  0.00  0.00    -0.047 Br
ATOM     33  C   UNL     1       4.800  -0.669  -0.433  0.00  0.00    +0.066 C 
ENDBRANCH  25  26
ENDBRANCH  23  25
ENDBRANCH   2  20
TORSDOF 6
