REMARK  Name = ZINC54614732
REMARK  16 active torsions:
REMARK  status: ('A' for Active; 'I' for Inactive)
REMARK    1  A    between atoms: C_1  and  C_2
REMARK    2  A    between atoms: C_2  and  N_3
REMARK    3  A    between atoms: N_3  and  C_4
REMARK    4  A    between atoms: C_4  and  C_5
REMARK    5  A    between atoms: C_6  and  C_8
REMARK    6  A    between atoms: C_8  and  O_9
REMARK    7  A    between atoms: O_9  and  C_10
REMARK    8  A    between atoms: C_13  and  C_19
REMARK    9  A    between atoms: C_15  and  O_16
REMARK   10  A    between atoms: O_16  and  C_17
REMARK   11  A    between atoms: C_17  and  C_18
REMARK   12  A    between atoms: C_21  and  C_30
REMARK   13  A    between atoms: C_22  and  C_29
REMARK   14  A    between atoms: N_32  and  C_33
REMARK   15  A    between atoms: C_37  and  C_40
REMARK   16  A    between atoms: C_38  and  C_39
REMARK                            x       y       z     vdW  Elec       q    Type
REMARK                         _______ _______ _______ _____ _____    ______ ____
ROOT
ATOM      1  C   UNL     1       0.142   0.453   9.160  0.00  0.00    +0.179 C 
ATOM      2  C   UNL     1       1.333  -0.411   8.841  0.00  0.00    +0.060 C 
ATOM      3  C   UNL     1       2.565   0.082   8.646  0.00  0.00    +0.018 C 
ATOM      4  N   UNL     1       2.840   1.426   8.734  0.00  0.00    -0.286 N 
ATOM      5  C   UNL     1       1.861   2.242   9.283  0.00  0.00    +0.240 A 
ATOM      6  N   UNL     1       0.594   1.798   9.493  0.00  0.00    -0.201 N 
ATOM      7  N   UNL     1      -0.090   2.874  10.057  0.00  0.00    -0.042 NA
ATOM      8  N   UNL     1       0.759   3.846  10.141  0.00  0.00    -0.021 NA
ATOM      9  N   UNL     1       1.909   3.479   9.686  0.00  0.00    -0.092 NA
ATOM     10  C   UNL     1       3.687  -0.870   8.321  0.00  0.00    +0.061 C 
ATOM     11  H   UNL     1       3.684   1.789   8.424  0.00  0.00    +0.155 HD
ENDROOT
BRANCH   1  15
ATOM     12  C   UNL     1      -2.443   0.624   5.757  0.00  0.00    +0.163 A 
ATOM     13  C   UNL     1      -1.176   1.182   5.697  0.00  0.00    +0.050 A 
ATOM     14  C   UNL     1      -0.343   1.126   6.799  0.00  0.00    +0.010 A 
ATOM     15  C   UNL     1      -0.770   0.512   7.962  0.00  0.00    -0.015 A 
ATOM     16  C   UNL     1      -2.033  -0.048   8.028  0.00  0.00    +0.055 A 
ATOM     17  C   UNL     1      -2.875   0.011   6.929  0.00  0.00    +0.162 A 
BRANCH  12  18
ATOM     18  O   UNL     1      -3.264   0.679   4.674  0.00  0.00    -0.479 OA
BRANCH  18  19
ATOM     19  C   UNL     1      -2.753   1.323   3.505  0.00  0.00    +0.324 C 
BRANCH  19  21
ATOM     20  N   UNL     1      -3.533   1.839   1.215  0.00  0.00    -0.299 N 
ATOM     21  C   UNL     1      -3.795   1.287   2.417  0.00  0.00    +0.253 C 
ATOM     22  O   UNL     1      -4.869   0.762   2.622  0.00  0.00    -0.272 OA
BRANCH  20  24
ATOM     23  C   UNL     1      -2.312   3.954   1.345  0.00  0.00    +0.024 C 
ATOM     24  C   UNL     1      -2.236   2.474   0.967  0.00  0.00    +0.104 C 
ENDBRANCH  20  24
BRANCH  20  25
ATOM     25  C   UNL     1      -4.546   1.805   0.157  0.00  0.00    +0.104 C 
ATOM     26  C   UNL     1      -4.371   0.533  -0.675  0.00  0.00    +0.024 C 
ENDBRANCH  20  25
ENDBRANCH  19  21
ENDBRANCH  18  19
ENDBRANCH  12  18
BRANCH  17  27
ATOM     27  O   UNL     1      -4.119  -0.534   6.994  0.00  0.00    -0.489 OA
BRANCH  27  28
ATOM     28  C   UNL     1      -4.542  -1.036   8.264  0.00  0.00    +0.226 C 
ATOM     29  C   UNL     1      -5.980  -1.548   8.157  0.00  0.00    +0.048 C 
ENDBRANCH  27  28
ENDBRANCH  17  27
ENDBRANCH   1  15
BRANCH   2  30
ATOM     30  C   UNL     1       1.145  -1.810   8.744  0.00  0.00    +0.248 C 
ATOM     31  O   UNL     1       1.016  -2.479   9.754  0.00  0.00    -0.270 OA
ATOM     32  N   UNL     1       1.108  -2.402   7.534  0.00  0.00    -0.281 N 
ATOM     33  H   UNL     1       1.281  -1.882   6.734  0.00  0.00    +0.155 HD
BRANCH  32  34
ATOM     34  C   UNL     1       0.820  -3.767   7.432  0.00  0.00    +0.037 A 
ATOM     35  C   UNL     1       0.189  -4.425   8.480  0.00  0.00    +0.023 A 
ATOM     36  C   UNL     1      -0.094  -5.773   8.376  0.00  0.00    +0.002 A 
ATOM     37  C   UNL     1       0.249  -6.467   7.230  0.00  0.00    +0.004 A 
ATOM     38  C   UNL     1       0.877  -5.814   6.185  0.00  0.00    -0.046 A 
ATOM     39  C   UNL     1       1.159  -4.465   6.280  0.00  0.00    -0.026 A 
ATOM     40  C   UNL     1       1.838  -3.754   5.139  0.00  0.00    +0.046 C 
ATOM     41  C   UNL     1       1.250  -6.574   4.938  0.00  0.00    +0.044 C 
ENDBRANCH  32  34
ENDBRANCH   2  30
TORSDOF 10
