REMARK  Name = ZINC27333456
REMARK  8 active torsions:
REMARK  status: ('A' for Active; 'I' for Inactive)
REMARK    1  A    between atoms: C_3  and  C_6
REMARK    2  A    between atoms: C_6  and  C_8
REMARK    3  A    between atoms: C_6  and  N_29
REMARK    4  A    between atoms: C_8  and  N_9
REMARK    5  A    between atoms: C_10  and  C_12
REMARK    6  A    between atoms: C_12  and  S_13
REMARK    7  A    between atoms: S_13  and  C_14
REMARK    8  A    between atoms: C_14  and  C_15
REMARK                            x       y       z     vdW  Elec       q    Type
REMARK                         _______ _______ _______ _____ _____    ______ ____
ROOT
ATOM      1  N   UNL     1       5.594   0.291   1.331  0.00  0.00    -0.316 N 
ATOM      2  C   UNL     1       6.282   0.092   2.472  0.00  0.00    +0.223 C 
ATOM      3  O   UNL     1       5.709   0.135   3.541  0.00  0.00    -0.275 OA
ATOM      4  H   UNL     1       6.051   0.256   0.476  0.00  0.00    +0.149 HD
ENDROOT
BRANCH   1   5
ATOM      5  C   UNL     1       4.154   0.560   1.380  0.00  0.00    +0.096 C 
BRANCH   5   6
ATOM      6  C   UNL     1       3.646   0.875  -0.028  0.00  0.00    +0.016 C 
BRANCH   6   7
ATOM      7  N   UNL     1       2.184   1.017  -0.000  0.00  0.00    +0.387 N 
ATOM      8  C   UNL     1       1.673   1.319  -1.361  0.00  0.00    -0.078 C 
ATOM      9  C   UNL     1       0.187   0.885  -1.287  0.00  0.00    -0.020 C 
ATOM     10  C   UNL     1       0.242  -0.383  -0.404  0.00  0.00    -0.020 C 
ATOM     11  C   UNL     1       1.554  -0.263   0.392  0.00  0.00    -0.078 C 
ATOM     12  H   UNL     1       1.917   1.748   0.643  0.00  0.00    -0.081 HD
ENDBRANCH   6   7
BRANCH   6  15
ATOM     13  C   UNL     1       5.561   3.642  -1.529  0.00  0.00    +0.041 A 
ATOM     14  C   UNL     1       5.316   2.262  -1.346  0.00  0.00    +0.043 A 
ATOM     15  C   UNL     1       4.267   2.160  -0.511  0.00  0.00    +0.093 A 
ATOM     16  O   UNL     1       3.866   3.398  -0.180  0.00  0.00    -0.469 OA
ATOM     17  C   UNL     1       4.647   4.301  -0.795  0.00  0.00    +0.195 A 
ENDBRANCH   6  15
ENDBRANCH   5   6
ENDBRANCH   1   5
BRANCH   2  18
ATOM     18  C   UNL     1       7.762  -0.185   2.421  0.00  0.00    +0.165 C 
BRANCH  18  19
ATOM     19  S   UNL     1       8.394  -0.406   4.107  0.00  0.00    -0.144 S 
BRANCH  19  20
ATOM     20  C   UNL     1      10.165  -0.727   3.874  0.00  0.00    +0.143 C 
BRANCH  20  21
ATOM     21  C   UNL     1      10.819  -0.932   5.215  0.00  0.00    +0.121 A 
ATOM     22  N   UNL     1      12.153  -1.181   5.275  0.00  0.00    -0.310 N 
ATOM     23  H   UNL     1      12.665  -1.224   4.453  0.00  0.00    +0.170 HD
ATOM     24  C   UNL     1      12.778  -1.371   6.453  0.00  0.00    +0.260 A 
ATOM     25  O   UNL     1      13.975  -1.594   6.491  0.00  0.00    -0.267 OA
ATOM     26  C   UNL     1      12.009  -1.304   7.660  0.00  0.00    +0.075 A 
ATOM     27  C   UNL     1      12.476  -1.477   9.043  0.00  0.00    -0.023 A 
ATOM     28  C   UNL     1      11.553  -1.369  10.014  0.00  0.00    -0.004 A 
ATOM     29  S   UNL     1      10.028  -1.032   9.163  0.00  0.00    -0.073 S 
ATOM     30  C   UNL     1      10.642  -1.042   7.499  0.00  0.00    +0.116 A 
ATOM     31  N   UNL     1      10.094  -0.860   6.300  0.00  0.00    -0.226 NA
ATOM     32  C   UNL     1      12.143  -1.569  11.384  0.00  0.00    +0.043 C 
ATOM     33  C   UNL     1      13.505  -2.249  11.124  0.00  0.00    +0.010 C 
ATOM     34  C   UNL     1      13.830  -1.764   9.698  0.00  0.00    +0.037 C 
ENDBRANCH  20  21
ENDBRANCH  19  20
ENDBRANCH  18  19
ENDBRANCH   2  18
TORSDOF 8
