REMARK  Name = ZINC09629670
REMARK  10 active torsions:
REMARK  status: ('A' for Active; 'I' for Inactive)
REMARK    1  A    between atoms: C_1  and  C_2
REMARK    2  A    between atoms: C_2  and  N_53
REMARK    3  A    between atoms: C_8  and  N_14
REMARK    4  A    between atoms: C_9  and  C_10
REMARK    5  A    between atoms: C_10  and  O_12
REMARK    6  A    between atoms: O_12  and  C_13
REMARK    7  A    between atoms: C_15  and  C_17
REMARK    8  A    between atoms: C_17  and  S_18
REMARK    9  A    between atoms: S_18  and  C_21
REMARK   10  A    between atoms: C_24  and  C_27
REMARK                            x       y       z     vdW  Elec       q    Type
REMARK                         _______ _______ _______ _____ _____    ______ ____
ROOT
ATOM      1  C   UNL     1       1.740 -10.915  -4.861  0.00  0.00    -0.074 C 
ATOM      2  C   UNL     1       1.277  -9.559  -5.400  0.00  0.00    +0.018 C 
ATOM      3  C   UNL     1       1.274  -8.564  -4.245  0.00  0.00    -0.025 A 
ATOM      4  C   UNL     1       1.292  -9.008  -2.968  0.00  0.00    -0.021 A 
ATOM      5  S   UNL     1       1.282  -7.541  -1.980  0.00  0.00    -0.079 S 
ATOM      6  C   UNL     1       1.254  -6.354  -3.242  0.00  0.00    +0.086 A 
ATOM      7  C   UNL     1       1.247  -7.122  -4.400  0.00  0.00    +0.091 A 
ATOM      8  C   UNL     1       1.313 -10.438  -2.524  0.00  0.00    -0.035 C 
ATOM      9  N   UNL     1       0.925 -11.278  -3.683  0.00  0.00    +0.383 N 
ATOM     10  H   UNL     1      -0.065 -11.114  -3.898  0.00  0.00    -0.081 HD
ENDROOT
BRANCH   6  11
ATOM     11  N   UNL     1       1.236  -4.973  -3.124  0.00  0.00    -0.278 N 
ATOM     12  C   UNL     1       1.240  -4.400  -1.905  0.00  0.00    +0.239 C 
ATOM     13  O   UNL     1       1.260  -5.093  -0.909  0.00  0.00    -0.274 OA
ATOM     14  H   UNL     1       1.221  -4.419  -3.920  0.00  0.00    +0.155 HD
BRANCH  12  15
ATOM     15  C   UNL     1       1.221  -2.899  -1.777  0.00  0.00    +0.267 C 
BRANCH  15  16
ATOM     16  S   UNL     1       1.232  -2.441  -0.022  0.00  0.00    +0.005 S 
ATOM     17  O   UNL     1       2.478  -2.789   0.567  0.00  0.00    -0.169 OA
ATOM     18  O   UNL     1       0.009  -2.823   0.592  0.00  0.00    -0.169 OA
BRANCH  16  19
ATOM     19  C   UNL     1       1.208  -0.679  -0.013  0.00  0.00    +0.089 A 
ATOM     20  C   UNL     1       0.002  -0.004   0.002  0.00  0.00    +0.027 A 
ATOM     21  C   UNL     1      -0.017   1.378   0.010  0.00  0.00    +0.005 A 
ATOM     22  C   UNL     1       1.171   2.086   0.002  0.00  0.00    -0.050 A 
ATOM     23  C   UNL     1       2.377   1.411  -0.015  0.00  0.00    +0.005 A 
ATOM     24  C   UNL     1       2.396   0.029  -0.021  0.00  0.00    +0.027 A 
ATOM     25  C   UNL     1       1.151   3.592   0.010  0.00  0.00    +0.044 C 
ENDBRANCH  16  19
ENDBRANCH  15  16
ENDBRANCH  12  15
ENDBRANCH   6  11
BRANCH   9  27
ATOM     26  C   UNL     1       2.598 -13.012  -3.133  0.00  0.00    -0.017 C 
ATOM     27  C   UNL     1       1.116 -12.708  -3.357  0.00  0.00    -0.082 C 
ENDBRANCH   9  27
BRANCH   7  28
ATOM     28  C   UNL     1       1.218  -6.500  -5.725  0.00  0.00    +0.342 C 
ATOM     29  O   UNL     1       2.260  -6.227  -6.292  0.00  0.00    -0.245 OA
BRANCH  28  30
ATOM     30  O   UNL     1       0.037  -6.229  -6.318  0.00  0.00    -0.464 OA
ATOM     31  C   UNL     1       0.085  -5.612  -7.631  0.00  0.00    +0.280 C 
ENDBRANCH  28  30
ENDBRANCH   7  28
TORSDOF 7
