REMARK  Name = ZINC21701992
REMARK  5 active torsions:
REMARK  status: ('A' for Active; 'I' for Inactive)
REMARK    1  A    between atoms: C_1  and  C_2
REMARK    2  A    between atoms: C_2  and  C_3
REMARK    3  A    between atoms: C_5  and  C_8
REMARK    4  A    between atoms: C_10  and  S_13
REMARK    5  A    between atoms: S_13  and  N_16
REMARK                            x       y       z     vdW  Elec       q    Type
REMARK                         _______ _______ _______ _____ _____    ______ ____
ROOT
ATOM      1  C   UNL     1      -2.926  -0.664  -3.748  0.00  0.00    +0.031 A 
ATOM      2  C   UNL     1      -2.160  -1.146  -2.688  0.00  0.00    +0.048 A 
ATOM      3  C   UNL     1      -2.247  -0.499  -1.505  0.00  0.00    +0.150 A 
ATOM      4  S   UNL     1      -3.416   0.799  -1.866  0.00  0.00    -0.076 S 
ATOM      5  C   UNL     1      -3.715   0.429  -3.533  0.00  0.00    +0.058 A 
ENDROOT
BRANCH   1   8
ATOM      6  C   UNL     1      -3.235  -1.803  -7.111  0.00  0.00    +0.227 A 
ATOM      7  N   UNL     1      -3.575  -0.950  -6.178  0.00  0.00    -0.191 NA
ATOM      8  C   UNL     1      -2.884  -1.320  -5.076  0.00  0.00    +0.203 A 
ATOM      9  N   UNL     1      -2.166  -2.365  -5.404  0.00  0.00    -0.056 NA
ATOM     10  O   UNL     1      -2.361  -2.656  -6.566  0.00  0.00    -0.338 OA
BRANCH   6  12
ATOM     11  C   UNL     1      -2.813  -0.964  -9.406  0.00  0.00    +0.014 C 
ATOM     12  C   UNL     1      -3.733  -1.820  -8.533  0.00  0.00    +0.095 C 
ENDBRANCH   6  12
ENDBRANCH   1   8
BRANCH   3  13
ATOM     13  S   UNL     1      -1.421  -0.852   0.011  0.00  0.00    +0.107 S 
ATOM     14  O   UNL     1      -1.073  -2.229  -0.027  0.00  0.00    -0.146 OA
ATOM     15  O   UNL     1      -2.218  -0.295   1.047  0.00  0.00    -0.146 OA
BRANCH  13  16
ATOM     16  N   UNL     1       0.002  -0.004   0.002  0.00  0.00    -0.110 NA
ATOM     17  C   UNL     1      -0.017   1.386   0.010  0.00  0.00    +0.153 A 
ATOM     18  C   UNL     1       1.182   2.092   0.002  0.00  0.00    +0.049 A 
ATOM     19  C   UNL     1       1.149   3.475   0.009  0.00  0.00    +0.025 A 
ATOM     20  C   UNL     1      -0.087   4.108   0.024  0.00  0.00    +0.057 A 
ATOM     21  C   UNL     1      -1.238   3.345   0.031  0.00  0.00    +0.104 A 
ATOM     22  N   UNL     1      -1.175   2.026   0.019  0.00  0.00    -0.344 N 
ATOM     23 CL   UNL     1      -0.184   5.842   0.034  0.00  0.00    -0.082 Cl
ATOM     24  H   UNL     1      -2.118   1.459   0.016  0.00  0.00    +0.167 HD
ENDBRANCH  13  16
ENDBRANCH   3  13
TORSDOF 4
