REMARK  Name = ZINC12882650
REMARK  7 active torsions:
REMARK  status: ('A' for Active; 'I' for Inactive)
REMARK    1  A    between atoms: C_4  and  C_7
REMARK    2  A    between atoms: C_7  and  C_8
REMARK    3  A    between atoms: C_8  and  N_9
REMARK    4  A    between atoms: C_14  and  C_30
REMARK    5  A    between atoms: C_30  and  C_31
REMARK    6  A    between atoms: C_34  and  O_38
REMARK    7  A    between atoms: C_35  and  O_37
REMARK                            x       y       z     vdW  Elec       q    Type
REMARK                         _______ _______ _______ _____ _____    ______ ____
ROOT
ATOM      1  N   UNL     1       1.530   2.464   1.076  0.00  0.00    -0.241 N 
ATOM      2  C   UNL     1       1.374   1.687  -0.002  0.00  0.00    +0.224 C 
ATOM      3  O   UNL     1       2.215   1.494  -0.854  0.00  0.00    -0.275 OA
ATOM      4  C   UNL     1      -0.013   1.086   0.008  0.00  0.00    +0.073 C 
ATOM      5  C   UNL     1      -0.833   1.674  -1.159  0.00  0.00    -0.053 C 
ATOM      6  C   UNL     1      -1.784   2.572   0.794  0.00  0.00    +0.050 C 
ATOM      7  C   UNL     1      -0.649   1.673   1.299  0.00  0.00    +0.088 C 
ATOM      8  C   UNL     1       0.458   2.527   1.875  0.00  0.00    +0.225 C 
ATOM      9  O   UNL     1       0.386   3.168   2.901  0.00  0.00    -0.275 OA
ATOM     10  C   UNL     1      -1.950   3.791   1.656  0.00  0.00    -0.028 A 
ATOM     11  C   UNL     1      -1.113   4.828   2.003  0.00  0.00    +0.004 A 
ATOM     12  C   UNL     1      -1.566   5.834   2.838  0.00  0.00    +0.000 A 
ATOM     13  C   UNL     1      -2.860   5.795   3.324  0.00  0.00    +0.002 A 
ATOM     14  C   UNL     1      -3.702   4.758   2.979  0.00  0.00    +0.023 A 
ATOM     15  C   UNL     1      -3.254   3.741   2.139  0.00  0.00    +0.036 A 
ATOM     16  N   UNL     1      -3.906   2.605   1.654  0.00  0.00    -0.286 N 
ATOM     17  C   UNL     1      -3.111   1.866   0.856  0.00  0.00    +0.211 C 
ATOM     18  O   UNL     1      -3.409   0.832   0.296  0.00  0.00    -0.277 OA
ATOM     19  H   UNL     1      -4.824   2.376   1.866  0.00  0.00    +0.155 HD
ATOM     20  N   UNL     1      -1.425   2.899  -0.575  0.00  0.00    +0.394 N 
ATOM     21  H   UNL     1      -2.261   3.176  -1.104  0.00  0.00    -0.083 HD
ATOM     22  H   UNL     1      -0.742   3.665  -0.589  0.00  0.00    -0.083 HD
ENDROOT
BRANCH   1  23
ATOM     23  C   UNL     1       2.772   3.188   1.358  0.00  0.00    +0.121 C 
BRANCH  23  24
ATOM     24  C   UNL     1       2.714   4.572   0.711  0.00  0.00    +0.054 C 
BRANCH  24  28
ATOM     25  C   UNL     1       6.336   6.683   1.534  0.00  0.00    +0.000 A 
ATOM     26  C   UNL     1       6.237   5.894   0.403  0.00  0.00    +0.000 A 
ATOM     27  C   UNL     1       5.065   5.212   0.136  0.00  0.00    +0.004 A 
ATOM     28  C   UNL     1       3.992   5.317   1.001  0.00  0.00    -0.046 A 
ATOM     29  C   UNL     1       4.089   6.109   2.130  0.00  0.00    +0.004 A 
ATOM     30  C   UNL     1       5.263   6.788   2.399  0.00  0.00    +0.000 A 
ENDBRANCH  24  28
ENDBRANCH  23  24
ENDBRANCH   1  23
BRANCH   5  31
ATOM     31  C   UNL     1       0.084   2.006  -2.339  0.00  0.00    +0.020 C 
BRANCH  31  32
ATOM     32  C   UNL     1      -0.749   2.463  -3.509  0.00  0.00    -0.045 A 
ATOM     33  C   UNL     1      -1.047   3.804  -3.662  0.00  0.00    +0.007 A 
ATOM     34  C   UNL     1      -1.811   4.228  -4.733  0.00  0.00    +0.049 A 
ATOM     35  C   UNL     1      -2.279   3.308  -5.657  0.00  0.00    +0.158 A 
ATOM     36  C   UNL     1      -1.979   1.958  -5.504  0.00  0.00    +0.158 A 
ATOM     37  C   UNL     1      -1.208   1.540  -4.431  0.00  0.00    +0.052 A 
BRANCH  36  38
ATOM     38  O   UNL     1      -2.437   1.051  -6.408  0.00  0.00    -0.503 OA
ATOM     39  H   UNL     1      -1.836   0.897  -7.149  0.00  0.00    +0.292 HD
ENDBRANCH  36  38
BRANCH  35  40
ATOM     40  O   UNL     1      -3.031   3.723  -6.712  0.00  0.00    -0.503 OA
ATOM     41  H   UNL     1      -2.515   3.952  -7.497  0.00  0.00    +0.292 HD
ENDBRANCH  35  40
ENDBRANCH  31  32
ENDBRANCH   5  31
TORSDOF 7
