REMARK  Name = ZINC13569231
REMARK  12 active torsions:
REMARK  status: ('A' for Active; 'I' for Inactive)
REMARK    1  A    between atoms: C_1  and  C_2
REMARK    2  A    between atoms: C_2  and  C_3
REMARK    3  A    between atoms: C_2  and  C_4
REMARK    4  A    between atoms: C_4  and  C_6
REMARK    5  A    between atoms: C_4  and  N_19
REMARK    6  A    between atoms: N_8  and  C_9
REMARK    7  A    between atoms: C_11  and  C_17
REMARK    8  A    between atoms: C_11  and  C_18
REMARK    9  A    between atoms: C_13  and  C_15
REMARK   10  A    between atoms: C_13  and  C_16
REMARK   11  A    between atoms: C_20  and  C_22
REMARK   12  A    between atoms: C_22  and  C_23
REMARK                            x       y       z     vdW  Elec       q    Type
REMARK                         _______ _______ _______ _____ _____    ______ ____
ROOT
ATOM      1  C   UNL     1      -0.013   7.227  -2.322  0.00  0.00    +0.161 C 
ENDROOT
BRANCH   1   2
ATOM      2  C   UNL     1       0.163   5.730  -2.319  0.00  0.00    +0.234 C 
ATOM      3  O   UNL     1      -0.510   5.038  -3.053  0.00  0.00    -0.274 OA
ATOM      4  N   UNL     1       1.069   5.160  -1.499  0.00  0.00    -0.311 N 
ATOM      5  H   UNL     1       1.732   5.790  -0.889  0.00  0.00    +0.149 HD
BRANCH   4   6
ATOM      6  C   UNL     1       1.170   3.697  -1.421  0.00  0.00    +0.070 C 
ATOM      7  C   UNL     1       2.578   3.313  -0.967  0.00  0.00    +0.009 C 
ATOM      8  C   UNL     1       2.705   1.796  -0.857  0.00  0.00    -0.072 C 
ATOM      9  N   UNL     1       1.627   1.192  -0.101  0.00  0.00    +0.386 N 
ATOM     10  C   UNL     1       0.267   1.659  -0.269  0.00  0.00    -0.072 C 
ATOM     11  C   UNL     1       0.168   3.178  -0.389  0.00  0.00    +0.009 C 
ATOM     12  C   UNL     1      -0.397   1.005  -1.486  0.00  0.00    -0.010 C 
ATOM     13  C   UNL     1      -0.545   1.238   0.976  0.00  0.00    -0.010 C 
ATOM     14  C   UNL     1       4.034   1.492  -0.129  0.00  0.00    -0.010 C 
ATOM     15  C   UNL     1       2.807   1.187  -2.260  0.00  0.00    -0.010 C 
ATOM     16  H   UNL     1       1.568   0.120  -0.340  0.00  0.00    -0.084 HD
ATOM     17  H   UNL     1       1.818   1.319   0.975  0.00  0.00    -0.084 HD
ENDBRANCH   4   6
ENDBRANCH   1   2
BRANCH   1  18
ATOM     18  N   UNL     1      -0.488   7.659  -3.638  0.00  0.00    -0.303 N 
ATOM     19  C   UNL     1      -0.250   8.917  -4.061  0.00  0.00    +0.220 C 
ATOM     20  O   UNL     1       0.358   9.690  -3.351  0.00  0.00    -0.275 OA
ATOM     21  H   UNL     1      -1.039   6.958  -4.282  0.00  0.00    +0.149 HD
BRANCH  19  22
ATOM     22  C   UNL     1      -0.739   9.362  -5.415  0.00  0.00    +0.153 C 
BRANCH  22  23
ATOM     23  C   UNL     1      -0.346  10.799  -5.643  0.00  0.00    +0.078 A 
ATOM     24  C   UNL     1       0.885  11.115  -6.248  0.00  0.00    +0.011 A 
ATOM     25  C   UNL     1       1.798  10.137  -6.664  0.00  0.00    +0.010 A 
ATOM     26  C   UNL     1       2.971  10.521  -7.243  0.00  0.00    +0.001 A 
ATOM     27  C   UNL     1       3.276  11.868  -7.426  0.00  0.00    +0.001 A 
ATOM     28  C   UNL     1       2.409  12.845  -7.033  0.00  0.00    +0.014 A 
ATOM     29  C   UNL     1       1.196  12.487  -6.436  0.00  0.00    +0.050 A 
ATOM     30  C   UNL     1       0.248  13.439  -6.002  0.00  0.00    +0.272 A 
ATOM     31  N   UNL     1      -0.872  13.014  -5.448  0.00  0.00    -0.242 N 
ATOM     32  N   UNL     1      -1.149  11.774  -5.286  0.00  0.00    -0.175 NA
ATOM     33  O   UNL     1       0.483  14.765  -6.152  0.00  0.00    -0.266 OA
ATOM     34  H   UNL     1      -1.622  13.739  -5.098  0.00  0.00    +0.192 HD
ENDBRANCH  22  23
ENDBRANCH  19  22
ENDBRANCH   1  18
BRANCH   1  36
ATOM     35  C   UNL     1      -0.514   7.221   0.126  0.00  0.00    +0.009 C 
ATOM     36  C   UNL     1      -1.036   7.622  -1.255  0.00  0.00    +0.012 C 
ATOM     37  C   UNL     1      -1.257   9.135  -1.297  0.00  0.00    +0.009 C 
ENDBRANCH   1  36
TORSDOF 6
