REMARK  Name = ZINC01854722
REMARK  4 active torsions:
REMARK  status: ('A' for Active; 'I' for Inactive)
REMARK    1  A    between atoms: C_1  and  O_2
REMARK    2  A    between atoms: O_2  and  C_3
REMARK    3  A    between atoms: C_8  and  C_9
REMARK    4  A    between atoms: N_13  and  C_17
REMARK                            x       y       z     vdW  Elec       q    Type
REMARK                         _______ _______ _______ _____ _____    ______ ____
ROOT
ATOM      1  C   UNL     1      -1.256  -0.760   0.009  0.00  0.00    +0.040 C 
ATOM      2  C   UNL     1      -1.236  -2.113  -0.100  0.00  0.00    +0.097 C 
ATOM      3  C   UNL     1      -2.390  -3.018  -0.207  0.00  0.00    +0.271 C 
ATOM      4  O   UNL     1      -3.567  -2.704  -0.215  0.00  0.00    -0.268 OA
ATOM      5  N   UNL     1      -1.884  -4.264  -0.297  0.00  0.00    -0.215 N 
ATOM      6  C   UNL     1      -0.544  -4.215  -0.248  0.00  0.00    +0.148 C 
ATOM      7  S   UNL     1       0.480  -5.585  -0.325  0.00  0.00    -0.018 S 
ATOM      8  N   UNL     1      -0.111  -2.947  -0.131  0.00  0.00    -0.292 N 
ATOM      9  H   UNL     1       0.814  -2.661  -0.077  0.00  0.00    +0.154 HD
ENDROOT
BRANCH   5  10
ATOM     10  C   UNL     1      -2.643  -5.436  -0.417  0.00  0.00    +0.062 A 
ATOM     11  C   UNL     1      -3.055  -6.118   0.719  0.00  0.00    +0.025 A 
ATOM     12  C   UNL     1      -3.807  -7.270   0.598  0.00  0.00    +0.002 A 
ATOM     13  C   UNL     1      -4.142  -7.750  -0.655  0.00  0.00    +0.002 A 
ATOM     14  C   UNL     1      -3.730  -7.077  -1.790  0.00  0.00    +0.022 A 
ATOM     15  C   UNL     1      -2.981  -5.920  -1.675  0.00  0.00    +0.063 A 
ATOM     16 CL   UNL     1      -2.464  -5.074  -3.100  0.00  0.00    -0.082 Cl
ENDBRANCH   5  10
BRANCH   1  22
ATOM     17  C   UNL     1       0.116   1.315  -0.120  0.00  0.00    +0.127 A 
ATOM     18  C   UNL     1       1.294   1.996   0.138  0.00  0.00    +0.046 A 
ATOM     19  C   UNL     1       2.337   1.358   0.781  0.00  0.00    +0.004 A 
ATOM     20  C   UNL     1       2.216   0.035   1.175  0.00  0.00    +0.001 A 
ATOM     21  C   UNL     1       1.052  -0.659   0.928  0.00  0.00    +0.011 A 
ATOM     22  C   UNL     1      -0.013  -0.027   0.277  0.00  0.00    +0.019 A 
BRANCH  17  24
ATOM     23  C   UNL     1      -0.704   3.303  -1.131  0.00  0.00    +0.277 C 
ATOM     24  O   UNL     1      -0.907   1.938  -0.757  0.00  0.00    -0.495 OA
ENDBRANCH  17  24
ENDBRANCH   1  22
TORSDOF 3
