REMARK  Name = ZINC47876858
REMARK  7 active torsions:
REMARK  status: ('A' for Active; 'I' for Inactive)
REMARK    1  A    between atoms: C_4  and  O_23
REMARK    2  A    between atoms: C_5  and  N_7
REMARK    3  A    between atoms: N_13  and  C_16
REMARK    4  A    between atoms: C_21  and  O_22
REMARK    5  A    between atoms: O_23  and  C_24
REMARK    6  A    between atoms: C_24  and  C_25
REMARK    7  A    between atoms: C_25  and  C_26
REMARK                            x       y       z     vdW  Elec       q    Type
REMARK                         _______ _______ _______ _____ _____    ______ ____
ROOT
ATOM      1  N   UNL     1       1.235  -2.082  -0.012  0.00  0.00    -0.266 N 
ATOM      2  C   UNL     1       0.083  -2.775   0.087  0.00  0.00    +0.307 C 
ATOM      3  O   UNL     1      -0.982  -2.187   0.092  0.00  0.00    -0.252 OA
ATOM      4  N   UNL     1       0.111  -4.119   0.180  0.00  0.00    -0.282 N 
ATOM      5  C   UNL     1       1.391  -4.835   0.280  0.00  0.00    +0.128 C 
ATOM      6  C   UNL     1       1.364  -5.713   1.537  0.00  0.00    +0.124 C 
ATOM      7  N   UNL     1       0.116  -6.489   1.541  0.00  0.00    -0.324 N 
ATOM      8  C   UNL     1      -1.164  -5.773   1.441  0.00  0.00    +0.124 C 
ATOM      9  C   UNL     1      -1.137  -4.894   0.189  0.00  0.00    +0.128 C 
ATOM     10  H   UNL     1       2.082  -2.552  -0.057  0.00  0.00    +0.156 HD
ENDROOT
BRANCH   1  15
ATOM     11  C   UNL     1       0.043   1.364  -0.511  0.00  0.00    +0.002 A 
ATOM     12  C   UNL     1       1.157   2.088  -0.127  0.00  0.00    +0.004 A 
ATOM     13  C   UNL     1       2.299   1.434   0.296  0.00  0.00    +0.047 A 
ATOM     14  C   UNL     1       2.330   0.049   0.336  0.00  0.00    +0.142 A 
ATOM     15  C   UNL     1       1.209  -0.681  -0.050  0.00  0.00    +0.077 A 
ATOM     16  C   UNL     1       0.066  -0.018  -0.473  0.00  0.00    +0.027 A 
BRANCH  14  17
ATOM     17  O   UNL     1       3.453  -0.595   0.751  0.00  0.00    -0.490 OA
BRANCH  17  18
ATOM     18  C   UNL     1       4.565   0.218   1.131  0.00  0.00    +0.238 C 
BRANCH  18  19
ATOM     19  C   UNL     1       5.727  -0.677   1.565  0.00  0.00    +0.136 C 
BRANCH  19  20
ATOM     20  C   UNL     1       6.900   0.180   1.966  0.00  0.00    +0.214 C 
ATOM     21  O   UNL     1       6.814   1.389   1.911  0.00  0.00    -0.276 OA
ATOM     22  N   UNL     1       8.043  -0.396   2.387  0.00  0.00    -0.329 N 
ATOM     23  H   UNL     1       8.112  -1.362   2.432  0.00  0.00    +0.145 HD
ATOM     24  H   UNL     1       8.798   0.156   2.645  0.00  0.00    +0.145 HD
ENDBRANCH  19  20
ENDBRANCH  18  19
ENDBRANCH  17  18
ENDBRANCH  14  17
ENDBRANCH   1  15
BRANCH   7  25
ATOM     25  C   UNL     1       0.145  -7.885   1.638  0.00  0.00    +0.072 A 
ATOM     26  C   UNL     1       0.106  -8.497   2.882  0.00  0.00    +0.027 A 
ATOM     27  C   UNL     1       0.135  -9.876   2.975  0.00  0.00    +0.002 A 
ATOM     28  C   UNL     1       0.202 -10.648   1.830  0.00  0.00    +0.004 A 
ATOM     29  C   UNL     1       0.241 -10.045   0.586  0.00  0.00    +0.047 A 
ATOM     30  C   UNL     1       0.207  -8.664   0.484  0.00  0.00    +0.138 A 
BRANCH  30  31
ATOM     31  O   UNL     1       0.240  -8.070  -0.739  0.00  0.00    -0.505 OA
ATOM     32  H   UNL     1       1.132  -7.878  -1.058  0.00  0.00    +0.292 HD
ENDBRANCH  30  31
ENDBRANCH   7  25
TORSDOF 7
