REMARK  Name = ZINC62521673
REMARK  7 active torsions:
REMARK  status: ('A' for Active; 'I' for Inactive)
REMARK    1  A    between atoms: C_1  and  C_2
REMARK    2  A    between atoms: C_3  and  C_8
REMARK    3  A    between atoms: C_4  and  C_7
REMARK    4  A    between atoms: C_8  and  N_9
REMARK    5  A    between atoms: C_10  and  C_12
REMARK    6  A    between atoms: C_16  and  N_19
REMARK    7  A    between atoms: C_17  and  N_18
REMARK                            x       y       z     vdW  Elec       q    Type
REMARK                         _______ _______ _______ _____ _____    ______ ____
ROOT
ATOM      1  C   UNL     1       3.046   0.833  -4.665  0.00  0.00    +0.062 A 
ATOM      2  C   UNL     1       4.108   0.429  -3.850  0.00  0.00    +0.053 A 
ATOM      3  C   UNL     1       5.347   0.186  -4.405  0.00  0.00    +0.126 A 
ATOM      4  C   UNL     1       5.546   0.342  -5.770  0.00  0.00    +0.073 A 
ATOM      5  C   UNL     1       4.507   0.741  -6.585  0.00  0.00    +0.150 A 
ATOM      6  C   UNL     1       3.250   0.984  -6.045  0.00  0.00    +0.068 A 
ATOM      7  F   UNL     1       6.372  -0.205  -3.616  0.00  0.00    -0.205 F 
ENDROOT
BRANCH   1   9
ATOM      8  N   UNL     1       1.495   0.834  -2.775  0.00  0.00    -0.307 N 
ATOM      9  C   UNL     1       1.719   1.095  -4.078  0.00  0.00    +0.246 C 
ATOM     10  O   UNL     1       0.827   1.546  -4.770  0.00  0.00    -0.270 OA
ATOM     11  H   UNL     1       2.207   0.474  -2.223  0.00  0.00    +0.149 HD
BRANCH   8  12
ATOM     12  C   UNL     1       0.176   1.094  -2.192  0.00  0.00    +0.145 C 
BRANCH  12  15
ATOM     13  C   UNL     1       0.930   3.019   0.218  0.00  0.00    +0.069 C 
ATOM     14  C   UNL     1       0.523   1.573   0.335  0.00  0.00    +0.085 A 
ATOM     15  C   UNL     1       0.190   0.720  -0.733  0.00  0.00    +0.034 A 
ATOM     16  C   UNL     1      -0.117  -0.489  -0.223  0.00  0.00    +0.139 A 
ATOM     17  O   UNL     1       0.013  -0.422   1.111  0.00  0.00    -0.359 OA
ATOM     18  N   UNL     1       0.425   0.892   1.442  0.00  0.00    -0.083 NA
ATOM     19  C   UNL     1      -0.532  -1.703  -1.013  0.00  0.00    +0.089 C 
ENDBRANCH  12  15
ENDBRANCH   8  12
ENDBRANCH   1   9
BRANCH   6  20
ATOM     20  N   UNL     1       2.201   1.380  -6.866  0.00  0.00    -0.356 N 
ATOM     21  H   UNL     1       2.375   1.943  -7.637  0.00  0.00    +0.142 HD
ATOM     22  H   UNL     1       1.296   1.093  -6.669  0.00  0.00    +0.142 HD
ENDBRANCH   6  20
BRANCH   5  23
ATOM     23  N   UNL     1       4.730   0.906  -8.039  0.00  0.00    +0.058 N 
ATOM     24  O   UNL     1       5.845   0.797  -8.496  0.00  0.00    -0.126 OA
ATOM     25  O   UNL     1       3.798   1.148  -8.770  0.00  0.00    -0.126 OA
ENDBRANCH   5  23
TORSDOF 5
