REMARK  Name = ZINC36131823
REMARK  7 active torsions:
REMARK  status: ('A' for Active; 'I' for Inactive)
REMARK    1  A    between atoms: C_1  and  C_2
REMARK    2  A    between atoms: C_2  and  C_3
REMARK    3  A    between atoms: C_7  and  C_19
REMARK    4  A    between atoms: N_10  and  C_11
REMARK    5  A    between atoms: C_12  and  N_18
REMARK    6  A    between atoms: C_13  and  C_17
REMARK    7  A    between atoms: N_15  and  C_16
REMARK                            x       y       z     vdW  Elec       q    Type
REMARK                         _______ _______ _______ _____ _____    ______ ____
ROOT
ATOM      1  C   UNL     1      -3.121   0.765   1.285  0.00  0.00    +0.141 A 
ATOM      2  C   UNL     1      -4.162   0.899   0.413  0.00  0.00    +0.088 A 
ATOM      3  C   UNL     1      -4.958   1.961   0.857  0.00  0.00    +0.082 A 
ATOM      4  N   UNL     1      -4.425   2.450   1.949  0.00  0.00    -0.173 NA
ATOM      5  N   UNL     1      -3.271   1.715   2.247  0.00  0.00    -0.252 N 
ATOM      6  C   UNL     1      -2.381   1.933   3.391  0.00  0.00    +0.174 C 
ATOM      7  C   UNL     1      -6.215   2.458   0.191  0.00  0.00    +0.069 C 
ENDROOT
BRANCH   1  13
ATOM      8  C   UNL     1      -1.012  -0.040   0.218  0.00  0.00    +0.100 C 
ATOM      9  C   UNL     1      -0.872  -1.368  -0.535  0.00  0.00    +0.182 C 
ATOM     10  O   UNL     1      -0.736  -2.433   0.409  0.00  0.00    -0.373 OA
ATOM     11  C   UNL     1      -1.869  -2.605   1.264  0.00  0.00    +0.132 C 
ATOM     12  C   UNL     1      -2.060  -1.341   2.110  0.00  0.00    +0.138 C 
ATOM     13  N   UNL     1      -2.093  -0.178   1.207  0.00  0.00    -0.306 N 
ATOM     14  C   UNL     1      -1.638  -3.806   2.183  0.00  0.00    +0.039 C 
BRANCH   8  16
ATOM     15  C   UNL     1       0.193   1.665   1.591  0.00  0.00    +0.006 C 
ATOM     16  C   UNL     1       0.301   0.288   0.933  0.00  0.00    +0.021 C 
ENDBRANCH   8  16
ENDBRANCH   1  13
BRANCH   2  17
ATOM     17  N   UNL     1      -4.394   0.107  -0.735  0.00  0.00    -0.354 N 
ATOM     18  H   UNL     1      -3.840  -0.670  -0.908  0.00  0.00    +0.142 HD
ATOM     19  H   UNL     1      -5.108   0.340  -1.349  0.00  0.00    +0.142 HD
ENDBRANCH   2  17
TORSDOF 3
