REMARK  Name = ZINC39421878
REMARK  9 active torsions:
REMARK  status: ('A' for Active; 'I' for Inactive)
REMARK    1  A    between atoms: C_1  and  C_2
REMARK    2  A    between atoms: C_2  and  C_3
REMARK    3  A    between atoms: C_8  and  C_12
REMARK    4  A    between atoms: C_12  and  C_14
REMARK    5  A    between atoms: C_14  and  C_16
REMARK    6  A    between atoms: C_14  and  S_22
REMARK    7  A    between atoms: S_22  and  C_23
REMARK    8  A    between atoms: C_27  and  C_31
REMARK    9  A    between atoms: N_29  and  C_30
REMARK                            x       y       z     vdW  Elec       q    Type
REMARK                         _______ _______ _______ _____ _____    ______ ____
ROOT
ATOM      1  C   UNL     1      -0.780  -1.867   7.157  0.00  0.00    +0.150 C 
ENDROOT
BRANCH   1   2
ATOM      2  C   UNL     1      -1.526  -3.176   7.206  0.00  0.00    -0.027 A 
ATOM      3  C   UNL     1      -0.846  -4.349   7.474  0.00  0.00    +0.005 A 
ATOM      4  C   UNL     1      -1.530  -5.550   7.520  0.00  0.00    +0.000 A 
ATOM      5  C   UNL     1      -2.894  -5.577   7.297  0.00  0.00    +0.000 A 
ATOM      6  C   UNL     1      -3.574  -4.404   7.029  0.00  0.00    +0.000 A 
ATOM      7  C   UNL     1      -2.891  -3.203   6.988  0.00  0.00    +0.005 A 
ENDBRANCH   1   2
BRANCH   1   8
ATOM      8  C   UNL     1       0.270  -1.928   6.078  0.00  0.00    +0.179 C 
ATOM      9  O   UNL     1       1.411  -2.235   6.359  0.00  0.00    -0.291 OA
BRANCH   8  15
ATOM     10  C   UNL     1       0.679  -1.206   1.152  0.00  0.00    -0.024 A 
ATOM     11  C   UNL     1       1.997  -1.500   1.109  0.00  0.00    +0.005 A 
ATOM     12  C   UNL     1       2.717  -1.854   2.261  0.00  0.00    +0.001 A 
ATOM     13  C   UNL     1       2.143  -1.925   3.483  0.00  0.00    +0.010 A 
ATOM     14  C   UNL     1       0.767  -1.637   3.642  0.00  0.00    +0.006 A 
ATOM     15  C   UNL     1      -0.072  -1.628   4.742  0.00  0.00    +0.025 C 
ATOM     16  C   UNL     1      -1.432  -1.231   4.213  0.00  0.00    +0.152 C 
ATOM     17  N   UNL     1      -1.264  -1.030   2.770  0.00  0.00    -0.380 N 
ATOM     18  C   UNL     1      -0.022  -1.253   2.446  0.00  0.00    +0.046 A 
ATOM     19  H   UNL     1      -1.966  -0.769   2.155  0.00  0.00    +0.160 HD
BRANCH  10  21
ATOM     20  C   UNL     1      -0.096   0.694  -0.239  0.00  0.00    +0.009 C 
ATOM     21  C   UNL     1      -0.061  -0.829  -0.105  0.00  0.00    +0.034 C 
ENDBRANCH  10  21
ENDBRANCH   8  15
ENDBRANCH   1   8
BRANCH   1  22
ATOM     22  S   UNL     1       0.014  -1.564   8.759  0.00  0.00    -0.109 S 
BRANCH  22  23
ATOM     23  C   UNL     1      -1.375  -1.311   9.897  0.00  0.00    +0.201 C 
ATOM     24  N   UNL     1      -1.883   0.083   9.806  0.00  0.00    -0.229 NA
ATOM     25  N   UNL     1      -2.533   0.322  11.098  0.00  0.00    -0.233 NA
ATOM     26  C   UNL     1      -1.926  -0.618  12.063  0.00  0.00    +0.171 C 
ATOM     27  N   UNL     1      -0.923  -1.410  11.310  0.00  0.00    -0.260 NA
ATOM     28  C   UNL     1      -0.907  -2.809  11.760  0.00  0.00    +0.109 C 
ATOM     29  H   UNL     1      -1.127   0.735   9.656  0.00  0.00    +0.143 HD
ATOM     30  H   UNL     1      -2.406   1.278  11.396  0.00  0.00    +0.143 HD
BRANCH  26  31
ATOM     31  C   UNL     1      -1.256   0.146  13.175  0.00  0.00    -0.012 A 
ATOM     32  C   UNL     1      -0.127  -0.359  13.804  0.00  0.00    +0.026 A 
ATOM     33  C   UNL     1       0.460   0.369  14.820  0.00  0.00    +0.111 A 
ATOM     34  N   UNL     1      -0.040   1.531  15.194  0.00  0.00    -0.263 NA
ATOM     35  C   UNL     1      -1.111   2.042  14.620  0.00  0.00    +0.111 A 
ATOM     36  C   UNL     1      -1.749   1.373  13.592  0.00  0.00    +0.026 A 
ENDBRANCH  26  31
ENDBRANCH  22  23
ENDBRANCH   1  22
TORSDOF 7
