REMARK  Name = ZINC67550176
REMARK  7 active torsions:
REMARK  status: ('A' for Active; 'I' for Inactive)
REMARK    1  A    between atoms: C_1  and  C_2
REMARK    2  A    between atoms: C_9  and  C_11
REMARK    3  A    between atoms: C_11  and  C_13
REMARK    4  A    between atoms: C_11  and  N_14
REMARK    5  A    between atoms: N_17  and  C_18
REMARK    6  A    between atoms: C_21  and  C_24
REMARK    7  A    between atoms: C_24  and  N_25
REMARK                            x       y       z     vdW  Elec       q    Type
REMARK                         _______ _______ _______ _____ _____    ______ ____
ROOT
ATOM      1  N   UNL     1       2.550   0.961   4.045  0.00  0.00    -0.288 N 
ATOM      2  C   UNL     1       2.912   0.680   5.312  0.00  0.00    +0.304 C 
ATOM      3  O   UNL     1       3.022  -0.476   5.671  0.00  0.00    -0.252 OA
ATOM      4  N   UNL     1       3.153   1.681   6.182  0.00  0.00    -0.269 N 
ATOM      5  H   UNL     1       2.462   1.883   3.759  0.00  0.00    +0.151 HD
ATOM      6  H   UNL     1       2.995   2.601   5.918  0.00  0.00    +0.156 HD
ENDROOT
BRANCH   4   7
ATOM      7  C   UNL     1       3.631   1.394   7.465  0.00  0.00    +0.035 A 
ATOM      8  C   UNL     1       3.248   2.180   8.543  0.00  0.00    +0.023 A 
ATOM      9  C   UNL     1       3.722   1.894   9.809  0.00  0.00    +0.007 A 
ATOM     10  C   UNL     1       4.577   0.824  10.003  0.00  0.00    -0.026 A 
ATOM     11  C   UNL     1       4.961   0.039   8.931  0.00  0.00    +0.007 A 
ATOM     12  C   UNL     1       4.486   0.317   7.664  0.00  0.00    +0.023 A 
BRANCH  10  13
ATOM     13  C   UNL     1       5.091   0.514  11.385  0.00  0.00    +0.178 C 
BRANCH  13  14
ATOM     14  N   UNL     1       4.174  -0.414  12.051  0.00  0.00    -0.267 N 
ATOM     15  C   UNL     1       4.505  -1.602  12.597  0.00  0.00    +0.108 A 
ATOM     16  C   UNL     1       3.378  -2.149  13.109  0.00  0.00    +0.041 A 
ATOM     17  C   UNL     1       2.322  -1.264  12.867  0.00  0.00    +0.134 A 
ATOM     18  N   UNL     1       2.799  -0.221  12.238  0.00  0.00    -0.179 NA
ENDBRANCH  13  14
ENDBRANCH  10  13
ENDBRANCH   4   7
BRANCH   1  19
ATOM     19  C   UNL     1       2.288  -0.127   3.100  0.00  0.00    +0.157 C 
ATOM     20  C   UNL     1       3.605  -0.581   2.467  0.00  0.00    +0.038 C 
BRANCH  19  28
ATOM     21  C   UNL     1       0.030   1.449  -0.048  0.00  0.00    +0.028 C 
ATOM     22  C   UNL     1      -0.095  -0.069   0.095  0.00  0.00    +0.073 C 
ATOM     23  C   UNL     1       0.388  -0.747  -1.191  0.00  0.00    +0.022 C 
ATOM     24  C   UNL     1       0.392  -2.265  -0.993  0.00  0.00    +0.003 C 
ATOM     25  C   UNL     1       1.356  -2.631   0.138  0.00  0.00    +0.019 C 
ATOM     26  C   UNL     1       0.885  -1.974   1.439  0.00  0.00    +0.108 C 
ATOM     27  N   UNL     1       0.736  -0.529   1.216  0.00  0.00    -0.297 N 
ATOM     28  C   UNL     1       1.353   0.358   2.022  0.00  0.00    +0.236 C 
ATOM     29  O   UNL     1       1.157   1.546   1.879  0.00  0.00    -0.274 OA
ENDBRANCH  19  28
ENDBRANCH   1  19
TORSDOF 5
