REMARK  Name = ZINC39928815
REMARK  9 active torsions:
REMARK  status: ('A' for Active; 'I' for Inactive)
REMARK    1  A    between atoms: C_1  and  C_2
REMARK    2  A    between atoms: C_2  and  C_3
REMARK    3  A    between atoms: C_3  and  C_4
REMARK    4  A    between atoms: C_4  and  C_5
REMARK    5  A    between atoms: C_5  and  N_6
REMARK    6  A    between atoms: C_13  and  O_31
REMARK    7  A    between atoms: C_15  and  C_19
REMARK    8  A    between atoms: C_25  and  S_27
REMARK    9  A    between atoms: S_27  and  N_30
REMARK                            x       y       z     vdW  Elec       q    Type
REMARK                         _______ _______ _______ _____ _____    ______ ____
ROOT
ATOM      1  N   UNL     1       1.475  -3.986  -2.532  0.00  0.00    -0.270 N 
ATOM      2  C   UNL     1       2.538  -4.669  -1.934  0.00  0.00    +0.042 A 
ATOM      3  C   UNL     1       3.357  -4.022  -1.018  0.00  0.00    +0.024 A 
ATOM      4  C   UNL     1       4.406  -4.703  -0.431  0.00  0.00    +0.002 A 
ATOM      5  C   UNL     1       4.640  -6.027  -0.754  0.00  0.00    +0.000 A 
ATOM      6  C   UNL     1       3.826  -6.674  -1.665  0.00  0.00    +0.008 A 
ATOM      7  C   UNL     1       2.776  -5.998  -2.256  0.00  0.00    +0.003 A 
ATOM      8  C   UNL     1       1.887  -6.700  -3.249  0.00  0.00    +0.167 C 
ATOM      9  C   UNL     1       0.459  -6.169  -3.121  0.00  0.00    +0.194 C 
ATOM     10  C   UNL     1       0.467  -4.664  -3.110  0.00  0.00    +0.235 C 
ATOM     11  O   UNL     1      -0.443  -4.056  -3.633  0.00  0.00    -0.274 OA
ENDROOT
BRANCH   9  12
ATOM     12  C   UNL     1      -0.147  -6.668  -1.834  0.00  0.00    +0.233 C 
ATOM     13  O   UNL     1       0.500  -7.378  -1.094  0.00  0.00    -0.274 OA
ATOM     14  N   UNL     1      -1.409  -6.325  -1.506  0.00  0.00    -0.263 N 
ATOM     15  C   UNL     1      -1.968  -6.785  -0.319  0.00  0.00    +0.189 A 
ATOM     16  N   UNL     1      -1.431  -7.552   0.611  0.00  0.00    -0.124 NA
ATOM     17  N   UNL     1      -2.070  -7.890   1.647  0.00  0.00    -0.119 NA
ATOM     18  C   UNL     1      -3.308  -7.466   1.805  0.00  0.00    +0.256 A 
ATOM     19  S   UNL     1      -3.505  -6.503   0.312  0.00  0.00    -0.011 S 
ATOM     20  H   UNL     1      -1.927  -5.757  -2.098  0.00  0.00    +0.157 HD
BRANCH  18  21
ATOM     21  S   UNL     1      -4.444  -7.760   3.119  0.00  0.00    +0.081 S 
ATOM     22  O   UNL     1      -4.148  -6.808   4.132  0.00  0.00    -0.151 OA
ATOM     23  O   UNL     1      -5.732  -7.866   2.527  0.00  0.00    -0.151 OA
BRANCH  21  24
ATOM     24  N   UNL     1      -4.089  -9.249   3.750  0.00  0.00    -0.202 NA
ATOM     25  H   UNL     1      -4.258  -9.431   4.688  0.00  0.00    +0.144 HD
ATOM     26  H   UNL     1      -3.713  -9.939   3.182  0.00  0.00    +0.144 HD
ENDBRANCH  21  24
ENDBRANCH  18  21
ENDBRANCH   9  12
BRANCH   8  27
ATOM     27  O   UNL     1       2.368  -6.458  -4.573  0.00  0.00    -0.386 OA
ATOM     28  H   UNL     1       3.270  -6.770  -4.727  0.00  0.00    +0.210 HD
ENDBRANCH   8  27
BRANCH   1  29
ATOM     29  C   UNL     1       1.455  -2.521  -2.524  0.00  0.00    +0.114 C 
BRANCH  29  30
ATOM     30  C   UNL     1       0.739  -2.027  -1.265  0.00  0.00    +0.019 C 
BRANCH  30  31
ATOM     31  C   UNL     1       0.718  -0.497  -1.257  0.00  0.00    +0.001 C 
BRANCH  31  33
ATOM     32  C   UNL     1      -0.019   1.526   0.010  0.00  0.00    +0.004 C 
ATOM     33  C   UNL     1       0.002  -0.004   0.002  0.00  0.00    -0.003 C 
ENDBRANCH  31  33
ENDBRANCH  30  31
ENDBRANCH  29  30
ENDBRANCH   1  29
TORSDOF 8
