REMARK  Name = ZINC59170963
REMARK  4 active torsions:
REMARK  status: ('A' for Active; 'I' for Inactive)
REMARK    1  A    between atoms: C_6  and  N_7
REMARK    2  A    between atoms: C_11  and  C_23
REMARK    3  A    between atoms: N_13  and  C_14
REMARK    4  A    between atoms: C_23  and  N_25
REMARK                            x       y       z     vdW  Elec       q    Type
REMARK                         _______ _______ _______ _____ _____    ______ ____
ROOT
ATOM      1  C   UNL     1      -0.048   0.068   1.627  0.00  0.00    +0.036 A 
ATOM      2  C   UNL     1       0.853   1.060   1.292  0.00  0.00    +0.049 A 
ATOM      3  C   UNL     1       2.127   0.723   0.865  0.00  0.00    +0.138 A 
ATOM      4  C   UNL     1       2.495  -0.633   0.779  0.00  0.00    +0.020 A 
ATOM      5  C   UNL     1       1.571  -1.628   1.119  0.00  0.00    +0.044 A 
ATOM      6  C   UNL     1       0.310  -1.270   1.540  0.00  0.00    +0.127 A 
ATOM      7  C   UNL     1       3.846  -0.986   0.337  0.00  0.00    +0.027 A 
ATOM      8  C   UNL     1       4.786   0.035   0.283  0.00  0.00    +0.064 A 
ATOM      9  C   UNL     1       4.336   1.386   0.676  0.00  0.00    +0.209 A 
ATOM     10  N   UNL     1       5.183   2.271   1.154  0.00  0.00    -0.324 N 
ATOM     11  O   UNL     1       3.020   1.686   0.528  0.00  0.00    -0.439 OA
ATOM     12  H   UNL     1       6.100   2.013   1.341  0.00  0.00    +0.169 HD
ENDROOT
BRANCH  10  13
ATOM     13  C   UNL     1       4.772   3.554   1.389  0.00  0.00    +0.062 A 
ATOM     14  C   UNL     1       4.088   4.264   0.399  0.00  0.00    +0.047 A 
ATOM     15  C   UNL     1       3.676   5.558   0.643  0.00  0.00    +0.043 A 
ATOM     16  C   UNL     1       3.939   6.154   1.865  0.00  0.00    +0.021 A 
ATOM     17  C   UNL     1       4.617   5.457   2.850  0.00  0.00    +0.023 A 
ATOM     18  C   UNL     1       5.030   4.160   2.622  0.00  0.00    +0.064 A 
ATOM     19 CL   UNL     1       5.873   3.284   3.862  0.00  0.00    -0.081 Cl
ATOM     20 CL   UNL     1       2.826   6.442  -0.586  0.00  0.00    -0.083 Cl
ENDBRANCH  10  13
BRANCH   6  21
ATOM     21  N   UNL     1      -0.671  -2.318   1.901  0.00  0.00    +0.056 N 
ATOM     22  O   UNL     1      -1.780  -2.007   2.271  0.00  0.00    -0.126 OA
ATOM     23  O   UNL     1      -0.364  -3.485   1.827  0.00  0.00    -0.126 OA
ENDBRANCH   6  21
BRANCH   8  24
ATOM     24  C   UNL     1       6.170  -0.217  -0.147  0.00  0.00    +0.082 C 
ATOM     25  S   UNL     1       7.265   1.088  -0.318  0.00  0.00    -0.035 S 
BRANCH  24  26
ATOM     26  N   UNL     1       6.576  -1.476  -0.406  0.00  0.00    -0.352 N 
ATOM     27  H   UNL     1       5.956  -2.215  -0.310  0.00  0.00    +0.143 HD
ATOM     28  H   UNL     1       7.489  -1.642  -0.690  0.00  0.00    +0.143 HD
ENDBRANCH  24  26
ENDBRANCH   8  24
TORSDOF 4
