REMARK  Name = ZINC32627841
REMARK  3 active torsions:
REMARK  status: ('A' for Active; 'I' for Inactive)
REMARK    1  A    between atoms: CA_2  and  C_12
REMARK    2  A    between atoms: C_4  and  C_7
REMARK    3  A    between atoms: C_7  and  N_11
REMARK                            x       y       z     vdW  Elec       q    Type
REMARK                         _______ _______ _______ _____ _____    ______ ____
ROOT
ATOM      1  C   UNL     1      -0.016   1.348   0.009  0.00  0.00    +0.119 A 
ATOM      2  CA  UNL     1       1.286   1.762  -0.001  0.00  0.00    +0.169 A 
ATOM      3  N   UNL     1       2.067   0.650  -0.014  0.00  0.00    -0.227 NA
ATOM      4  C   UNL     1       1.302  -0.402  -0.013  0.00  0.00    +0.096 A 
ATOM      5  N   UNL     1       0.002  -0.004   0.002  0.00  0.00    -0.349 N 
ATOM      6  H   UNL     1      -0.774  -0.586   0.007  0.00  0.00    +0.166 HD
ENDROOT
BRANCH   4   7
ATOM      7  C   UNL     1       1.779  -1.831  -0.025  0.00  0.00    -0.012 C 
ATOM      8  C   UNL     1       3.043  -2.066   0.819  0.00  0.00    -0.005 C 
ATOM      9  C   UNL     1       3.525  -2.998  -0.305  0.00  0.00    -0.002 C 
ATOM     10  C   UNL     1       2.631  -2.185  -1.256  0.00  0.00    -0.005 C 
BRANCH   7  11
ATOM     11  N   UNL     1       0.703  -2.794   0.242  0.00  0.00    +0.387 N 
ATOM     12  H   UNL     1       0.068  -2.816  -0.542  0.00  0.00    -0.089 HD
ATOM     13  H   UNL     1       1.099  -3.712   0.379  0.00  0.00    -0.089 HD
ATOM     14  H   UNL     1       0.202  -2.517   1.073  0.00  0.00    -0.089 HD
ENDBRANCH   7  11
ENDBRANCH   4   7
BRANCH   2  15
ATOM     15  C   UNL     1       1.755   3.154   0.002  0.00  0.00    +0.406 C 
ATOM     16  O   UNL     1       0.947   4.072   0.015  0.00  0.00    -0.239 OA
ATOM     17  OXT UNL     1       2.955   3.395  -0.008  0.00  0.00    -0.239 OA
ENDBRANCH   2  15
TORSDOF 3
