REMARK  Name = ZINC20558548
REMARK  6 active torsions:
REMARK  status: ('A' for Active; 'I' for Inactive)
REMARK    1  A    between atoms: C_1  and  C_2
REMARK    2  A    between atoms: C_7  and  C_8
REMARK    3  A    between atoms: C_10  and  C_34
REMARK    4  A    between atoms: C_11  and  N_33
REMARK    5  A    between atoms: N_18  and  C_25
REMARK    6  A    between atoms: C_25  and  C_26
REMARK                            x       y       z     vdW  Elec       q    Type
REMARK                         _______ _______ _______ _____ _____    ______ ____
ROOT
ATOM      1  C   UNL     1       1.581   2.361   0.223  0.00  0.00    +0.118 C 
ATOM      2  C   UNL     1       3.051   2.406  -0.093  0.00  0.00    +0.099 C 
ATOM      3  C   UNL     1       3.872   1.413   0.333  0.00  0.00    +0.199 C 
ATOM      4  O   UNL     1       3.400   0.376   1.042  0.00  0.00    -0.439 OA
ATOM      5  C   UNL     1       2.077   0.064   1.006  0.00  0.00    +0.162 C 
ATOM      6  C   UNL     1       1.180   0.969   0.625  0.00  0.00    +0.141 C 
ATOM      7  S   UNL     1      -0.530   0.515   0.594  0.00  0.00    +0.076 S 
ATOM      8  O   UNL     1      -1.090   1.085  -0.581  0.00  0.00    -0.150 OA
ATOM      9  O   UNL     1      -1.049   0.763   1.893  0.00  0.00    -0.150 OA
ATOM     10  N   UNL     1      -0.524  -1.136   0.380  0.00  0.00    -0.198 N 
ATOM     11  C   UNL     1       0.440  -1.866   1.087  0.00  0.00    +0.062 A 
ATOM     12  C   UNL     1       1.679  -1.308   1.403  0.00  0.00    +0.042 A 
ATOM     13  C   UNL     1       2.604  -2.074   2.123  0.00  0.00    +0.013 A 
ATOM     14  C   UNL     1       2.294  -3.361   2.504  0.00  0.00    +0.001 A 
ATOM     15  C   UNL     1       1.065  -3.909   2.181  0.00  0.00    +0.002 A 
ATOM     16  C   UNL     1       0.140  -3.165   1.475  0.00  0.00    +0.025 A 
ENDROOT
BRANCH   1  23
ATOM     17  C   UNL     1      -0.350   4.479  -0.136  0.00  0.00    +0.044 C 
ATOM     18  C   UNL     1       0.363   4.325   1.182  0.00  0.00    -0.046 A 
ATOM     19  C   UNL     1       0.090   5.195   2.222  0.00  0.00    +0.003 A 
ATOM     20  C   UNL     1       0.748   5.057   3.429  0.00  0.00    +0.000 A 
ATOM     21  C   UNL     1       1.676   4.047   3.599  0.00  0.00    +0.000 A 
ATOM     22  C   UNL     1       1.946   3.174   2.562  0.00  0.00    +0.005 A 
ATOM     23  C   UNL     1       1.287   3.312   1.354  0.00  0.00    -0.030 A 
ENDBRANCH   1  23
BRANCH   3  24
ATOM     24  N   UNL     1       5.210   1.470   0.032  0.00  0.00    -0.328 N 
ATOM     25  H   UNL     1       5.885   0.671   0.373  0.00  0.00    +0.145 HD
ATOM     26  H   UNL     1       5.608   2.316  -0.549  0.00  0.00    +0.145 HD
ENDBRANCH   3  24
BRANCH   2  27
ATOM     27  C   UNL     1       3.586   3.501  -0.846  0.00  0.00    +0.101 C 
ATOM     28  N   UNL     1       4.010   4.369  -1.443  0.00  0.00    -0.191 NA
ENDBRANCH   2  27
BRANCH  10  29
ATOM     29  C   UNL     1      -1.483  -1.796  -0.510  0.00  0.00    +0.169 C 
BRANCH  29  30
ATOM     30  C   UNL     1      -0.869  -1.962  -1.877  0.00  0.00    +0.007 A 
ATOM     31  C   UNL     1      -1.192  -1.081  -2.891  0.00  0.00    +0.008 A 
ATOM     32  C   UNL     1      -0.629  -1.232  -4.144  0.00  0.00    +0.000 A 
ATOM     33  C   UNL     1       0.259  -2.264  -4.384  0.00  0.00    +0.003 A 
ATOM     34  C   UNL     1       0.585  -3.145  -3.371  0.00  0.00    +0.038 A 
ATOM     35  C   UNL     1       0.024  -2.992  -2.114  0.00  0.00    +0.128 A 
ATOM     36  F   UNL     1       0.346  -3.851  -1.122  0.00  0.00    -0.205 F 
ENDBRANCH  29  30
ENDBRANCH  10  29
TORSDOF 5
