REMARK  Name = ZINC43746698
REMARK  10 active torsions:
REMARK  status: ('A' for Active; 'I' for Inactive)
REMARK    1  A    between atoms: CB_1  and  CA_2
REMARK    2  A    between atoms: CA_2  and  C_4
REMARK    3  A    between atoms: CA_2  and  N_6
REMARK    4  A    between atoms: C_4  and  O_5
REMARK    5  A    between atoms: C_7  and  CA_9
REMARK    6  A    between atoms: CA_9  and  C_11
REMARK    7  A    between atoms: CA_9  and  N_17
REMARK    8  A    between atoms: C_18  and  C_20
REMARK    9  A    between atoms: C_22  and  C_35
REMARK   10  A    between atoms: C_22  and  C_36
REMARK                            x       y       z     vdW  Elec       q    Type
REMARK                         _______ _______ _______ _____ _____    ______ ____
ROOT
ATOM      1  N   UNL     1      -0.150  -1.201   4.706  0.00  0.00    -0.299 N 
ATOM      2  C   UNL     1       0.317  -1.122   5.968  0.00  0.00    +0.236 C 
ATOM      3  O   UNL     1       1.506  -0.995   6.169  0.00  0.00    -0.274 OA
ATOM      4  H   UNL     1      -1.101  -1.302   4.546  0.00  0.00    +0.150 HD
ENDROOT
BRANCH   2   5
ATOM      5  C   UNL     1      -0.640  -1.192   7.131  0.00  0.00    +0.179 C 
ATOM      6  C   UNL     1      -1.054  -2.667   7.344  0.00  0.00    +0.040 C 
ATOM      7  S   UNL     1      -0.293  -3.032   8.986  0.00  0.00    -0.125 S 
ATOM      8  C   UNL     1       0.844  -1.582   9.029  0.00  0.00    +0.167 C 
ATOM      9  N   UNL     1       0.001  -0.593   8.302  0.00  0.00    -0.269 N 
ATOM     10  C   UNL     1       0.101   0.557   9.004  0.00  0.00    +0.249 C 
ATOM     11  O   UNL     1      -0.113   1.668   8.561  0.00  0.00    -0.270 OA
ATOM     12  C   UNL     1       0.509   0.258  10.390  0.00  0.00    +0.043 A 
ATOM     13  C   UNL     1       0.978  -1.069  10.434  0.00  0.00    -0.005 A 
ATOM     14  C   UNL     1       1.426  -1.623  11.611  0.00  0.00    +0.007 A 
ATOM     15  C   UNL     1       1.442  -0.867  12.771  0.00  0.00    +0.000 A 
ATOM     16  C   UNL     1       1.012   0.448  12.751  0.00  0.00    +0.001 A 
ATOM     17  C   UNL     1       0.534   1.025  11.554  0.00  0.00    +0.013 A 
ATOM     18  C   UNL     1      -2.576  -2.808   7.401  0.00  0.00    +0.025 C 
ATOM     19  C   UNL     1      -0.463  -3.565   6.255  0.00  0.00    +0.025 C 
ENDBRANCH   2   5
BRANCH   1  20
ATOM     20  CA  UNL     1       0.780  -1.133   3.576  0.00  0.00    +0.190 C 
BRANCH  20  21
ATOM     21  C   UNL     1       1.338  -2.505   3.302  0.00  0.00    -0.018 A 
ATOM     22  C   UNL     1       0.516  -3.614   3.376  0.00  0.00    +0.006 A 
ATOM     23  C   UNL     1       1.028  -4.873   3.124  0.00  0.00    +0.000 A 
ATOM     24  C   UNL     1       2.363  -5.023   2.798  0.00  0.00    +0.000 A 
ATOM     25  C   UNL     1       3.185  -3.915   2.723  0.00  0.00    +0.000 A 
ATOM     26  C   UNL     1       2.672  -2.655   2.971  0.00  0.00    +0.006 A 
ENDBRANCH  20  21
BRANCH  20  28
ATOM     27  N   UNL     1       0.711  -0.489   1.189  0.00  0.00    -0.309 N 
ATOM     28  C   UNL     1       0.051  -0.633   2.355  0.00  0.00    +0.238 C 
ATOM     29  O   UNL     1      -1.129  -0.361   2.423  0.00  0.00    -0.273 OA
ATOM     30  H   UNL     1       1.654  -0.707   1.135  0.00  0.00    +0.149 HD
BRANCH  27  32
ATOM     31  CB  UNL     1      -0.019   1.526   0.010  0.00  0.00    +0.030 C 
ATOM     32  CA  UNL     1       0.002  -0.004   0.002  0.00  0.00    +0.095 C 
BRANCH  32  33
ATOM     33  C   UNL     1       0.718  -0.497  -1.257  0.00  0.00    +0.177 C 
BRANCH  33  34
ATOM     34  O   UNL     1       2.019   0.090  -1.326  0.00  0.00    -0.393 OA
ATOM     35  H   UNL     1       2.531  -0.178  -2.101  0.00  0.00    +0.209 HD
ENDBRANCH  33  34
ENDBRANCH  32  33
ENDBRANCH  27  32
ENDBRANCH  20  28
ENDBRANCH   1  20
TORSDOF 7
