REMARK  Name = ZINC05667881
REMARK  8 active torsions:
REMARK  status: ('A' for Active; 'I' for Inactive)
REMARK    1  A    between atoms: C_4  and  C_7
REMARK    2  A    between atoms: C_12  and  O_18
REMARK    3  A    between atoms: O_18  and  C_19
REMARK    4  A    between atoms: C_21  and  O_34
REMARK    5  A    between atoms: C_23  and  O_33
REMARK    6  A    between atoms: C_25  and  O_32
REMARK    7  A    between atoms: C_27  and  C_30
REMARK    8  A    between atoms: C_30  and  O_31
REMARK                            x       y       z     vdW  Elec       q    Type
REMARK                         _______ _______ _______ _____ _____    ______ ____
ROOT
ATOM      1  C   UNL     1       4.894   0.192  -0.047  0.00  0.00    +0.064 A 
ATOM      2  C   UNL     1       4.741   1.541  -0.037  0.00  0.00    +0.208 A 
ATOM      3  O   UNL     1       3.542   2.128  -0.021  0.00  0.00    -0.462 OA
ATOM      4  C   UNL     1       2.382   1.442  -0.013  0.00  0.00    +0.142 A 
ATOM      5  C   UNL     1       1.165   2.110   0.002  0.00  0.00    +0.092 A 
ATOM      6  C   UNL     1      -0.017   1.389   0.010  0.00  0.00    +0.128 A 
ATOM      7  C   UNL     1       0.002  -0.004   0.002  0.00  0.00    +0.047 A 
ATOM      8  C   UNL     1       1.190  -0.677  -0.013  0.00  0.00    +0.019 A 
ATOM      9  C   UNL     1       2.390   0.036  -0.021  0.00  0.00    +0.065 A 
ATOM     10  C   UNL     1       3.691  -0.657  -0.038  0.00  0.00    +0.200 A 
ATOM     11  O   UNL     1       3.767  -1.874  -0.046  0.00  0.00    -0.286 OA
ENDROOT
BRANCH   1  15
ATOM     12  C   UNL     1       8.774  -1.548  -0.096  0.00  0.00    +0.000 A 
ATOM     13  C   UNL     1       8.451  -0.557  -1.006  0.00  0.00    +0.001 A 
ATOM     14  C   UNL     1       7.194   0.011  -0.994  0.00  0.00    +0.009 A 
ATOM     15  C   UNL     1       6.248  -0.415  -0.064  0.00  0.00    -0.011 A 
ATOM     16  C   UNL     1       6.580  -1.409   0.854  0.00  0.00    +0.009 A 
ATOM     17  C   UNL     1       7.839  -1.975   0.830  0.00  0.00    +0.001 A 
ENDBRANCH   1  15
BRANCH   6  18
ATOM     18  O   UNL     1      -1.205   2.046   0.019  0.00  0.00    -0.461 OA
BRANCH  18  19
ATOM     19  C   UNL     1      -2.389   1.245   0.020  0.00  0.00    +0.339 C 
ATOM     20  C   UNL     1      -3.616   2.149   0.157  0.00  0.00    +0.214 C 
ATOM     21  C   UNL     1      -3.689   3.084  -1.054  0.00  0.00    +0.180 C 
ATOM     22  C   UNL     1      -3.726   2.243  -2.334  0.00  0.00    +0.177 C 
ATOM     23  C   UNL     1      -2.494   1.335  -2.374  0.00  0.00    +0.179 C 
ATOM     24  O   UNL     1      -2.471   0.514  -1.205  0.00  0.00    -0.331 OA
BRANCH  22  25
ATOM     25  O   UNL     1      -4.910   1.443  -2.346  0.00  0.00    -0.386 OA
ATOM     26  H   UNL     1      -5.731   1.955  -2.317  0.00  0.00    +0.210 HD
ENDBRANCH  22  25
BRANCH  21  27
ATOM     27  O   UNL     1      -4.872   3.881  -0.972  0.00  0.00    -0.386 OA
ATOM     28  H   UNL     1      -4.919   4.436  -0.181  0.00  0.00    +0.210 HD
ENDBRANCH  21  27
BRANCH  20  29
ATOM     29  O   UNL     1      -4.797   1.346   0.211  0.00  0.00    -0.383 OA
ATOM     30  H   UNL     1      -4.816   0.725   0.953  0.00  0.00    +0.210 HD
ENDBRANCH  20  29
BRANCH  23  31
ATOM     31  C   UNL     1      -2.554   0.449  -3.620  0.00  0.00    +0.190 C 
BRANCH  31  32
ATOM     32  O   UNL     1      -1.350  -0.315  -3.719  0.00  0.00    -0.392 OA
ATOM     33  H   UNL     1      -1.318  -0.901  -4.488  0.00  0.00    +0.210 HD
ENDBRANCH  31  32
ENDBRANCH  23  31
ENDBRANCH  18  19
ENDBRANCH   6  18
TORSDOF 8
