REMARK  Name = ZINC04557046
REMARK  7 active torsions:
REMARK  status: ('A' for Active; 'I' for Inactive)
REMARK    1  A    between atoms: C_1  and  C_2
REMARK    2  A    between atoms: C_11  and  O_13
REMARK    3  A    between atoms: O_13  and  C_14
REMARK    4  A    between atoms: C_16  and  O_29
REMARK    5  A    between atoms: C_18  and  O_28
REMARK    6  A    between atoms: C_20  and  O_27
REMARK    7  A    between atoms: C_22  and  C_25
REMARK                            x       y       z     vdW  Elec       q    Type
REMARK                         _______ _______ _______ _____ _____    ______ ____
ROOT
ATOM      1  C   UNL     1      -6.942   2.218   0.091  0.00  0.00    +0.340 C 
ATOM      2  C   UNL     1      -8.444   2.398   0.329  0.00  0.00    +0.214 C 
ATOM      3  C   UNL     1      -8.718   3.849   0.735  0.00  0.00    +0.180 C 
ATOM      4  C   UNL     1      -8.187   4.782  -0.358  0.00  0.00    +0.186 C 
ATOM      5  C   UNL     1      -6.696   4.510  -0.570  0.00  0.00    +0.266 C 
ATOM      6  O   UNL     1      -6.507   3.136  -0.915  0.00  0.00    -0.322 OA
ENDROOT
BRANCH   5   7
ATOM      7  C   UNL     1      -6.179   5.383  -1.685  0.00  0.00    +0.387 C 
ATOM      8  O   UNL     1      -5.782   4.882  -2.710  0.00  0.00    -0.243 OA
ATOM      9  O   UNL     1      -6.161   6.717  -1.539  0.00  0.00    -0.243 OA
ENDBRANCH   5   7
BRANCH   4  10
ATOM     10  O   UNL     1      -8.895   4.541  -1.576  0.00  0.00    -0.386 OA
ATOM     11  H   UNL     1      -8.609   5.098  -2.313  0.00  0.00    +0.210 HD
ENDBRANCH   4  10
BRANCH   3  12
ATOM     12  O   UNL     1     -10.125   4.045   0.888  0.00  0.00    -0.386 OA
ATOM     13  H   UNL     1     -10.530   3.480   1.561  0.00  0.00    +0.210 HD
ENDBRANCH   3  12
BRANCH   2  14
ATOM     14  O   UNL     1      -8.869   1.520   1.374  0.00  0.00    -0.383 OA
ATOM     15  H   UNL     1      -8.721   0.584   1.185  0.00  0.00    +0.210 HD
ENDBRANCH   2  14
BRANCH   1  16
ATOM     16  O   UNL     1      -6.233   2.470   1.305  0.00  0.00    -0.461 OA
BRANCH  16  27
ATOM     17  C   UNL     1      -0.013   1.086   0.008  0.00  0.00    +0.045 C 
ATOM     18  C   UNL     1      -0.718   1.572   1.248  0.00  0.00    -0.033 A 
ATOM     19  C   UNL     1      -0.030   1.807   2.395  0.00  0.00    +0.096 A 
ATOM     20  C   UNL     1      -0.713   2.262   3.542  0.00  0.00    +0.337 A 
ATOM     21  O   UNL     1      -0.083   2.470   4.564  0.00  0.00    -0.245 OA
ATOM     22  O   UNL     1      -2.038   2.472   3.536  0.00  0.00    -0.422 OA
ATOM     23  C   UNL     1      -2.781   2.257   2.429  0.00  0.00    +0.143 A 
ATOM     24  C   UNL     1      -2.163   1.809   1.247  0.00  0.00    +0.021 A 
ATOM     25  C   UNL     1      -2.930   1.580   0.099  0.00  0.00    +0.015 A 
ATOM     26  C   UNL     1      -4.277   1.803   0.128  0.00  0.00    +0.046 A 
ATOM     27  C   UNL     1      -4.893   2.252   1.293  0.00  0.00    +0.128 A 
ATOM     28  C   UNL     1      -4.150   2.479   2.441  0.00  0.00    +0.092 A 
ENDBRANCH  16  27
ENDBRANCH   1  16
TORSDOF 6
