REMARK  Name = ZINC39774066
REMARK  3 active torsions:
REMARK  status: ('A' for Active; 'I' for Inactive)
REMARK    1  A    between atoms: C_7  and  C_10
REMARK    2  A    between atoms: C_16  and  C_18
REMARK    3  A    between atoms: C_22  and  N_24
REMARK                            x       y       z     vdW  Elec       q    Type
REMARK                         _______ _______ _______ _____ _____    ______ ____
ROOT
ATOM      1  C   UNL     1       1.016  -3.191  -0.723  0.00  0.00    -0.043 C 
ATOM      2  C   UNL     1      -0.244  -2.788  -0.608  0.00  0.00    -0.004 C 
ATOM      3  C   UNL     1      -1.385  -3.724  -0.319  0.00  0.00    +0.135 C 
ATOM      4  N   UNL     1      -0.918  -5.111  -0.457  0.00  0.00    -0.293 N 
ATOM      5  C   UNL     1       0.392  -5.446   0.126  0.00  0.00    +0.113 C 
ATOM      6  C   UNL     1       1.458  -4.619  -0.602  0.00  0.00    +0.054 C 
ATOM      7  C   UNL     1      -1.659  -6.039  -1.093  0.00  0.00    +0.247 C 
ATOM      8  O   UNL     1      -1.289  -7.196  -1.124  0.00  0.00    -0.270 OA
ENDROOT
BRANCH   1  15
ATOM      9  C   UNL     1       5.444  -3.517  -1.642  0.00  0.00    +0.001 A 
ATOM     10  C   UNL     1       6.070  -2.281  -1.836  0.00  0.00    +0.002 A 
ATOM     11  C   UNL     1       5.390  -1.113  -1.751  0.00  0.00    +0.026 A 
ATOM     12  C   UNL     1       4.000  -1.125  -1.456  0.00  0.00    +0.043 A 
ATOM     13  N   UNL     1       3.130  -0.148  -1.321  0.00  0.00    -0.380 N 
ATOM     14  C   UNL     1       1.812  -0.714  -1.014  0.00  0.00    +0.149 C 
ATOM     15  C   UNL     1       2.000  -2.215  -0.979  0.00  0.00    -0.016 C 
ATOM     16  C   UNL     1       3.345  -2.430  -1.253  0.00  0.00    +0.003 A 
ATOM     17  C   UNL     1       4.122  -3.608  -1.358  0.00  0.00    +0.010 A 
ATOM     18  H   UNL     1       3.328   0.797  -1.410  0.00  0.00    +0.160 HD
ENDBRANCH   1  15
BRANCH   7  19
ATOM     19  C   UNL     1      -2.923  -5.650  -1.755  0.00  0.00    +0.039 A 
ATOM     20  C   UNL     1      -3.290  -6.239  -2.966  0.00  0.00    +0.013 A 
ATOM     21  C   UNL     1      -4.470  -5.874  -3.581  0.00  0.00    +0.003 A 
ATOM     22  C   UNL     1      -5.292  -4.925  -3.002  0.00  0.00    +0.023 A 
ATOM     23  C   UNL     1      -4.936  -4.333  -1.797  0.00  0.00    +0.035 A 
ATOM     24  C   UNL     1      -3.756  -4.698  -1.167  0.00  0.00    +0.036 A 
BRANCH  23  25
ATOM     25  N   UNL     1      -5.772  -3.373  -1.214  0.00  0.00    -0.270 N 
ATOM     26  C   UNL     1      -6.456  -2.514  -1.995  0.00  0.00    +0.301 C 
ATOM     27  O   UNL     1      -6.428  -2.635  -3.204  0.00  0.00    -0.253 OA
ATOM     28  N   UNL     1      -7.172  -1.519  -1.434  0.00  0.00    -0.313 N 
ATOM     29  H   UNL     1      -5.859  -3.327  -0.249  0.00  0.00    +0.156 HD
ATOM     30  H   UNL     1      -7.195  -1.421  -0.469  0.00  0.00    +0.146 HD
ATOM     31  H   UNL     1      -7.665  -0.900  -1.996  0.00  0.00    +0.146 HD
ENDBRANCH  23  25
ENDBRANCH   7  19
TORSDOF 3
