REMARK  Name = ZINC52094436
REMARK  3 active torsions:
REMARK  status: ('A' for Active; 'I' for Inactive)
REMARK    1  A    between atoms: C_6  and  C_7
REMARK    2  A    between atoms: C_7  and  C_9
REMARK    3  A    between atoms: C_7  and  N_22
REMARK                            x       y       z     vdW  Elec       q    Type
REMARK                         _______ _______ _______ _____ _____    ______ ____
ROOT
ATOM      1  C   UNL     1      -1.293  -0.774   0.010  0.00  0.00    -0.012 C 
ENDROOT
BRANCH   1   2
ATOM      2  C   UNL     1      -1.585  -1.251   1.410  0.00  0.00    -0.042 A 
ATOM      3  C   UNL     1      -1.203  -2.520   1.798  0.00  0.00    +0.031 A 
ATOM      4  C   UNL     1      -1.472  -2.958   3.086  0.00  0.00    +0.067 A 
ATOM      5  C   UNL     1      -2.128  -2.115   3.985  0.00  0.00    +0.068 A 
ATOM      6  C   UNL     1      -2.508  -0.843   3.587  0.00  0.00    +0.043 A 
ATOM      7  C   UNL     1      -2.231  -0.412   2.303  0.00  0.00    +0.022 A 
ATOM      8 BR   UNL     1      -2.742   1.326   1.762  0.00  0.00    -0.050 Br
ATOM      9  N   UNL     1      -2.255  -2.821   5.179  0.00  0.00    -0.306 N 
ATOM     10  H   UNL     1      -2.672  -2.492   5.991  0.00  0.00    +0.170 HD
ATOM     11  C   UNL     1      -1.702  -4.037   5.014  0.00  0.00    +0.325 A 
ATOM     12  O   UNL     1      -1.646  -4.903   5.867  0.00  0.00    -0.247 OA
ATOM     13  N   UNL     1      -1.221  -4.150   3.762  0.00  0.00    -0.306 N 
ATOM     14  H   UNL     1      -0.775  -4.929   3.393  0.00  0.00    +0.170 HD
ENDBRANCH   1   2
BRANCH   1  20
ATOM     15  C   UNL     1      -0.017   1.378   0.010  0.00  0.00    +0.005 A 
ATOM     16  C   UNL     1       1.170   2.087   0.002  0.00  0.00    +0.041 A 
ATOM     17  C   UNL     1       2.379   1.413  -0.013  0.00  0.00    +0.158 A 
ATOM     18  C   UNL     1       2.397   0.026  -0.021  0.00  0.00    +0.159 A 
ATOM     19  C   UNL     1       1.208  -0.680  -0.013  0.00  0.00    +0.043 A 
ATOM     20  C   UNL     1       0.002  -0.004   0.002  0.00  0.00    -0.055 A 
ATOM     21  F   UNL     1       3.576  -0.634  -0.036  0.00  0.00    -0.202 F 
ATOM     22  F   UNL     1       3.539   2.105  -0.021  0.00  0.00    -0.202 F 
ENDBRANCH   1  20
BRANCH   1  23
ATOM     23  N   UNL     1      -1.180  -1.932  -0.887  0.00  0.00    +0.385 N 
ATOM     24  H   UNL     1      -0.985  -1.613  -1.824  0.00  0.00    -0.089 HD
ATOM     25  H   UNL     1      -0.431  -2.530  -0.572  0.00  0.00    -0.089 HD
ATOM     26  H   UNL     1      -2.047  -2.448  -0.882  0.00  0.00    -0.089 HD
ENDBRANCH   1  23
TORSDOF 3
