REMARK  Name = ZINC40914665
REMARK  10 active torsions:
REMARK  status: ('A' for Active; 'I' for Inactive)
REMARK    1  A    between atoms: C_1  and  C_2
REMARK    2  A    between atoms: C_2  and  O_3
REMARK    3  A    between atoms: O_3  and  C_4
REMARK    4  A    between atoms: C_6  and  C_19
REMARK    5  A    between atoms: C_9  and  O_10
REMARK    6  A    between atoms: O_10  and  C_11
REMARK    7  A    between atoms: C_11  and  C_12
REMARK    8  A    between atoms: C_16  and  C_18
REMARK    9  A    between atoms: C_21  and  C_30
REMARK   10  A    between atoms: C_22  and  C_29
REMARK                            x       y       z     vdW  Elec       q    Type
REMARK                         _______ _______ _______ _____ _____    ______ ____
ROOT
ATOM      1  C   UNL     1       0.595  -1.743   1.160  0.00  0.00    +0.162 A 
ATOM      2  C   UNL     1       0.188  -2.642   0.187  0.00  0.00    +0.055 A 
ATOM      3  C   UNL     1       0.271  -4.002   0.424  0.00  0.00    -0.015 A 
ATOM      4  C   UNL     1       0.759  -4.468   1.631  0.00  0.00    +0.010 A 
ATOM      5  C   UNL     1       1.166  -3.576   2.606  0.00  0.00    +0.050 A 
ATOM      6  C   UNL     1       1.091  -2.213   2.373  0.00  0.00    +0.162 A 
ENDROOT
BRANCH   3   7
ATOM      7  C   UNL     1      -0.172  -4.978  -0.635  0.00  0.00    +0.177 C 
ATOM      8  C   UNL     1      -1.288  -5.832  -0.096  0.00  0.00    +0.060 C 
ATOM      9  C   UNL     1      -1.132  -7.125   0.223  0.00  0.00    +0.018 C 
ATOM     10  N   UNL     1       0.067  -7.777   0.070  0.00  0.00    -0.287 N 
ATOM     11  C   UNL     1       1.051  -7.138  -0.671  0.00  0.00    +0.218 A 
ATOM     12  N   UNL     1       0.953  -5.829  -1.014  0.00  0.00    -0.221 N 
ATOM     13  N   UNL     1       2.095  -5.524  -1.751  0.00  0.00    -0.156 NA
ATOM     14  C   UNL     1       2.808  -6.622  -1.813  0.00  0.00    +0.247 A 
ATOM     15  N   UNL     1       2.172  -7.597  -1.156  0.00  0.00    -0.201 NA
ATOM     16  C   UNL     1      -2.312  -7.888   0.769  0.00  0.00    +0.061 C 
ATOM     17  H   UNL     1       0.220  -8.650   0.464  0.00  0.00    +0.155 HD
BRANCH   8  18
ATOM     18  C   UNL     1      -2.562  -5.242   0.084  0.00  0.00    +0.241 C 
ATOM     19  O   UNL     1      -3.314  -5.116  -0.866  0.00  0.00    -0.271 OA
ATOM     20  N   UNL     1      -2.943  -4.820   1.306  0.00  0.00    -0.325 N 
ATOM     21  H   UNL     1      -2.344  -4.921   2.062  0.00  0.00    +0.145 HD
ATOM     22  H   UNL     1      -3.816  -4.416   1.429  0.00  0.00    +0.145 HD
ENDBRANCH   8  18
ENDBRANCH   3   7
BRANCH   1  23
ATOM     23  O   UNL     1       0.515  -0.406   0.929  0.00  0.00    -0.489 OA
BRANCH  23  25
ATOM     24  C   UNL     1      -0.018   1.531  -0.414  0.00  0.00    +0.048 C 
ATOM     25  C   UNL     1      -0.004   0.003  -0.338  0.00  0.00    +0.226 C 
ENDBRANCH  23  25
ENDBRANCH   1  23
BRANCH   6  26
ATOM     26  O   UNL     1       1.497  -1.335   3.329  0.00  0.00    -0.484 OA
BRANCH  26  27
ATOM     27  C   UNL     1       1.996  -1.888   4.548  0.00  0.00    +0.264 C 
BRANCH  27  28
ATOM     28  C   UNL     1       2.394  -0.772   5.480  0.00  0.00    -0.010 A 
ATOM     29  C   UNL     1       3.682  -0.270   5.446  0.00  0.00    +0.007 A 
ATOM     30  C   UNL     1       4.047   0.753   6.300  0.00  0.00    +0.001 A 
ATOM     31  C   UNL     1       3.125   1.274   7.189  0.00  0.00    +0.003 A 
ATOM     32  C   UNL     1       1.838   0.772   7.223  0.00  0.00    -0.050 A 
ATOM     33  C   UNL     1       1.471  -0.248   6.365  0.00  0.00    +0.010 A 
ATOM     34  C   UNL     1       0.833   1.340   8.192  0.00  0.00    +0.044 C 
ENDBRANCH  27  28
ENDBRANCH  26  27
ENDBRANCH   6  26
TORSDOF 7
