REMARK  Name = ZINC08660817
REMARK  5 active torsions:
REMARK  status: ('A' for Active; 'I' for Inactive)
REMARK    1  A    between atoms: C_6  and  C_7
REMARK    2  A    between atoms: C_10  and  C_28
REMARK    3  A    between atoms: C_15  and  C_17
REMARK    4  A    between atoms: N_19  and  C_20
REMARK    5  A    between atoms: C_20  and  C_21
REMARK                            x       y       z     vdW  Elec       q    Type
REMARK                         _______ _______ _______ _____ _____    ______ ____
ROOT
ATOM      1  C   UNL     1      -1.293  -0.775   0.011  0.00  0.00    +0.104 C 
ATOM      2  C   UNL     1      -1.588  -1.269   1.431  0.00  0.00    +0.063 C 
ATOM      3  C   UNL     1      -2.938  -1.995   1.461  0.00  0.00    +0.215 C 
ATOM      4  N   UNL     1      -2.969  -2.984   0.379  0.00  0.00    -0.238 N 
ATOM      5  C   UNL     1      -2.138  -2.947  -0.705  0.00  0.00    +0.119 A 
ATOM      6  C   UNL     1      -2.433  -3.999  -1.494  0.00  0.00    +0.078 A 
ATOM      7  C   UNL     1      -3.486  -4.713  -0.879  0.00  0.00    +0.149 A 
ATOM      8  N   UNL     1      -3.800  -4.095   0.245  0.00  0.00    -0.164 NA
ATOM      9  N   UNL     1      -1.180  -1.944  -0.883  0.00  0.00    -0.322 N 
ATOM     10  H   UNL     1      -0.481  -2.014  -1.552  0.00  0.00    +0.148 HD
ENDROOT
BRANCH   1  16
ATOM     11  C   UNL     1      -0.017   1.378   0.010  0.00  0.00    +0.007 A 
ATOM     12  C   UNL     1       1.171   2.086   0.002  0.00  0.00    +0.020 A 
ATOM     13  C   UNL     1       2.378   1.410  -0.013  0.00  0.00    +0.041 A 
ATOM     14  C   UNL     1       2.396   0.027  -0.021  0.00  0.00    +0.020 A 
ATOM     15  C   UNL     1       1.208  -0.679  -0.013  0.00  0.00    +0.007 A 
ATOM     16  C   UNL     1       0.002  -0.004   0.002  0.00  0.00    -0.027 A 
ATOM     17 CL   UNL     1       3.870   2.298  -0.023  0.00  0.00    -0.084 Cl
ENDBRANCH   1  16
BRANCH   7  18
ATOM     18  C   UNL     1      -4.123  -5.939  -1.403  0.00  0.00    +0.264 C 
ATOM     19  O   UNL     1      -3.747  -6.418  -2.454  0.00  0.00    -0.268 OA
ATOM     20  N   UNL     1      -5.123  -6.524  -0.714  0.00  0.00    -0.308 N 
ATOM     21  H   UNL     1      -5.424  -6.142   0.125  0.00  0.00    +0.149 HD
BRANCH  20  22
ATOM     22  C   UNL     1      -5.756  -7.740  -1.234  0.00  0.00    +0.136 C 
BRANCH  22  23
ATOM     23  C   UNL     1      -6.852  -8.196  -0.269  0.00  0.00    +0.135 C 
ATOM     24  C   UNL     1      -7.442  -9.541  -0.745  0.00  0.00    +0.035 C 
ATOM     25  C   UNL     1      -8.955  -9.361  -0.445  0.00  0.00    +0.031 C 
ATOM     26  C   UNL     1      -9.131  -7.846  -0.718  0.00  0.00    +0.160 C 
ATOM     27  O   UNL     1      -7.915  -7.237  -0.252  0.00  0.00    -0.375 OA
ENDBRANCH  22  23
ENDBRANCH  20  22
ENDBRANCH   7  18
BRANCH   3  28
ATOM     28  C   UNL     1      -3.111  -2.700   2.808  0.00  0.00    +0.412 C 
ATOM     29  F   UNL     1      -3.068  -1.755   3.838  0.00  0.00    -0.168 F 
ATOM     30  F   UNL     1      -4.343  -3.362   2.833  0.00  0.00    -0.168 F 
ATOM     31  F   UNL     1      -2.079  -3.629   2.984  0.00  0.00    -0.168 F 
ENDBRANCH   3  28
TORSDOF 5
