REMARK  Name = ZINC32316316
REMARK  11 active torsions:
REMARK  status: ('A' for Active; 'I' for Inactive)
REMARK    1  A    between atoms: C_1  and  C_2
REMARK    2  A    between atoms: C_2  and  N_3
REMARK    3  A    between atoms: N_3  and  C_4
REMARK    4  A    between atoms: N_3  and  C_6
REMARK    5  A    between atoms: C_4  and  C_5
REMARK    6  A    between atoms: C_6  and  C_8
REMARK    7  A    between atoms: C_6  and  C_27
REMARK    8  A    between atoms: C_8  and  N_9
REMARK    9  A    between atoms: C_10  and  C_12
REMARK   10  A    between atoms: C_12  and  N_13
REMARK   11  A    between atoms: C_21  and  C_23
REMARK                            x       y       z     vdW  Elec       q    Type
REMARK                         _______ _______ _______ _____ _____    ______ ____
ROOT
ATOM      1  N   UNL     1       4.754   4.499  -1.040  0.00  0.00    -0.315 N 
ATOM      2  C   UNL     1       5.469   4.698  -2.166  0.00  0.00    +0.231 C 
ATOM      3  O   UNL     1       4.905   4.996  -3.197  0.00  0.00    -0.274 OA
ATOM      4  H   UNL     1       5.270   4.310  -0.087  0.00  0.00    +0.149 HD
ENDROOT
BRANCH   1   5
ATOM      5  C   UNL     1       3.291   4.535  -1.087  0.00  0.00    +0.093 C 
BRANCH   5   6
ATOM      6  C   UNL     1       2.727   4.133   0.278  0.00  0.00    -0.019 C 
BRANCH   6   7
ATOM      7  C   UNL     1       1.222   4.195   0.238  0.00  0.00    -0.041 A 
ATOM      8  C   UNL     1       0.483   3.028   0.174  0.00  0.00    +0.003 A 
ATOM      9  C   UNL     1      -0.897   3.085   0.137  0.00  0.00    +0.000 A 
ATOM     10  C   UNL     1      -1.540   4.309   0.159  0.00  0.00    +0.001 A 
ATOM     11  C   UNL     1      -0.803   5.476   0.229  0.00  0.00    +0.020 A 
ATOM     12  C   UNL     1       0.579   5.420   0.266  0.00  0.00    +0.043 A 
ATOM     13 CL   UNL     1       1.506   6.885   0.348  0.00  0.00    -0.083 Cl
ENDBRANCH   6   7
BRANCH   6  14
ATOM     14  N   UNL     1       3.153   2.764   0.599  0.00  0.00    +0.385 N 
ATOM     15  H   UNL     1       2.309   2.253   1.086  0.00  0.00    -0.081 HD
BRANCH  14  17
ATOM     16  C   UNL     1       2.201   1.580  -1.322  0.00  0.00    -0.017 C 
ATOM     17  C   UNL     1       3.489   2.017  -0.620  0.00  0.00    -0.081 C 
ENDBRANCH  14  17
BRANCH  14  18
ATOM     18  C   UNL     1       4.280   2.770   1.540  0.00  0.00    -0.081 C 
ATOM     19  C   UNL     1       3.776   3.132   2.939  0.00  0.00    -0.017 C 
ENDBRANCH  14  18
ENDBRANCH   6  14
ENDBRANCH   5   6
ENDBRANCH   1   5
BRANCH   2  20
ATOM     20  C   UNL     1       6.968   4.549  -2.142  0.00  0.00    +0.213 C 
BRANCH  20  21
ATOM     21  N   UNL     1       7.518   4.932  -3.445  0.00  0.00    -0.215 N 
ATOM     22  C   UNL     1       7.708   4.074  -4.469  0.00  0.00    +0.247 C 
ATOM     23  O   UNL     1       7.466   2.886  -4.486  0.00  0.00    -0.273 OA
ATOM     24  C   UNL     1       8.284   4.907  -5.591  0.00  0.00    +0.115 C 
ATOM     25  C   UNL     1       7.356   4.893  -6.801  0.00  0.00    +0.035 C 
ATOM     26  C   UNL     1       7.256   3.469  -7.354  0.00  0.00    +0.003 C 
ATOM     27  C   UNL     1       8.649   2.980  -7.754  0.00  0.00    +0.000 C 
ATOM     28  C   UNL     1       9.562   2.977  -6.526  0.00  0.00    +0.006 C 
ATOM     29  C   UNL     1       9.671   4.398  -5.969  0.00  0.00    +0.018 C 
ATOM     30  C   UNL     1      10.566   4.392  -4.729  0.00  0.00    +0.010 C 
ATOM     31  N   UNL     1       8.369   6.259  -5.024  0.00  0.00    -0.285 N 
ATOM     32  C   UNL     1       7.899   6.175  -3.765  0.00  0.00    +0.310 C 
ATOM     33  O   UNL     1       7.827   7.120  -3.006  0.00  0.00    -0.252 OA
ATOM     34  H   UNL     1       8.764   7.087  -5.632  0.00  0.00    +0.151 HD
ENDBRANCH  20  21
ENDBRANCH   2  20
TORSDOF 8
