REMARK  Name = ZINC35656870
REMARK  9 active torsions:
REMARK  status: ('A' for Active; 'I' for Inactive)
REMARK    1  A    between atoms: C_1  and  N_2
REMARK    2  A    between atoms: C_6  and  C_7
REMARK    3  A    between atoms: C_9  and  O_18
REMARK    4  A    between atoms: C_10  and  O_14
REMARK    5  A    between atoms: O_14  and  C_15
REMARK    6  A    between atoms: C_15  and  C_16
REMARK    7  A    between atoms: O_18  and  C_19
REMARK    8  A    between atoms: N_22  and  C_23
REMARK    9  A    between atoms: C_27  and  C_29
REMARK                            x       y       z     vdW  Elec       q    Type
REMARK                         _______ _______ _______ _____ _____    ______ ____
ROOT
ATOM      1  C   UNL     1       0.459   1.479  -0.073  0.00  0.00    +0.140 C 
ATOM      2  N   UNL     1       0.391   0.016  -0.058  0.00  0.00    -0.249 N 
ATOM      3  C   UNL     1       0.241  -0.645  -1.193  0.00  0.00    +0.259 C 
ATOM      4  O   UNL     1       0.158  -0.065  -2.260  0.00  0.00    -0.269 OA
ATOM      5  C   UNL     1       0.181  -2.116  -1.109  0.00  0.00    +0.078 C 
ATOM      6  C   UNL     1       0.034  -3.031  -2.101  0.00  0.00    +0.028 C 
ATOM      7  S   UNL     1       0.352  -2.371   0.652  0.00  0.00    -0.049 S 
ATOM      8  C   UNL     1       0.490  -0.659   1.140  0.00  0.00    +0.168 C 
ATOM      9  N   UNL     1       0.645  -0.164   2.347  0.00  0.00    -0.225 NA
ENDROOT
BRANCH   6  10
ATOM     10  C   UNL     1       0.167  -4.463  -1.805  0.00  0.00    -0.019 A 
ATOM     11  C   UNL     1      -0.324  -5.415  -2.708  0.00  0.00    +0.057 A 
ATOM     12  C   UNL     1      -0.197  -6.760  -2.424  0.00  0.00    +0.163 A 
ATOM     13  C   UNL     1       0.418  -7.169  -1.242  0.00  0.00    +0.177 A 
ATOM     14  C   UNL     1       0.905  -6.227  -0.345  0.00  0.00    +0.064 A 
ATOM     15  C   UNL     1       0.788  -4.881  -0.623  0.00  0.00    +0.027 A 
ATOM     16 BR   UNL     1       1.738  -6.790   1.256  0.00  0.00    -0.046 Br
BRANCH  12  17
ATOM     17  O   UNL     1      -0.673  -7.687  -3.298  0.00  0.00    -0.491 OA
ATOM     18  C   UNL     1      -1.292  -7.197  -4.489  0.00  0.00    +0.277 C 
ENDBRANCH  12  17
BRANCH  13  19
ATOM     19  O   UNL     1       0.542  -8.494  -0.965  0.00  0.00    -0.475 OA
BRANCH  19  20
ATOM     20  C   UNL     1       1.728  -9.145  -1.426  0.00  0.00    +0.317 C 
BRANCH  20  21
ATOM     21  C   UNL     1       1.690 -10.565  -1.040  0.00  0.00    -0.065 C 
ATOM     22  C   UNL     1       1.659 -11.697  -0.732  0.00  0.00    +0.007 C 
ENDBRANCH  20  21
ENDBRANCH  19  20
ENDBRANCH  13  19
ENDBRANCH   6  10
BRANCH   9  23
ATOM     23  C   UNL     1       0.723  -1.002   3.426  0.00  0.00    +0.067 A 
ATOM     24  C   UNL     1      -0.172  -2.069   3.550  0.00  0.00    +0.028 A 
ATOM     25  C   UNL     1      -0.096  -2.915   4.638  0.00  0.00    +0.003 A 
ATOM     26  C   UNL     1       0.864  -2.716   5.611  0.00  0.00    +0.015 A 
ATOM     27  C   UNL     1       1.766  -1.653   5.500  0.00  0.00    +0.065 A 
ATOM     28  C   UNL     1       1.698  -0.797   4.401  0.00  0.00    +0.043 A 
BRANCH  27  29
ATOM     29  C   UNL     1       2.790  -1.441   6.541  0.00  0.00    +0.387 C 
ATOM     30  O   UNL     1       2.851  -2.195   7.502  0.00  0.00    -0.241 OA
ATOM     31  O   UNL     1       3.578  -0.511   6.442  0.00  0.00    -0.241 OA
ENDBRANCH  27  29
ENDBRANCH   9  23
TORSDOF 7
