REMARK  Name = ZINC18269273
REMARK  5 active torsions:
REMARK  status: ('A' for Active; 'I' for Inactive)
REMARK    1  A    between atoms: C_1  and  C_2
REMARK    2  A    between atoms: C_6  and  C_8
REMARK    3  A    between atoms: C_8  and  O_10
REMARK    4  A    between atoms: O_10  and  C_11
REMARK    5  A    between atoms: C_11  and  C_12
REMARK                            x       y       z     vdW  Elec       q    Type
REMARK                         _______ _______ _______ _____ _____    ______ ____
ROOT
ATOM      1  C   UNL     1       2.461   7.889   0.010  0.00  0.00    +0.170 A 
ATOM      2  N   UNL     1       3.061   8.149   1.159  0.00  0.00    -0.214 NA
ATOM      3  C   UNL     1       4.196   8.826   1.224  0.00  0.00    +0.128 A 
ATOM      4  C   UNL     1       4.788   9.301   0.021  0.00  0.00    +0.051 A 
ATOM      5  C   UNL     1       6.024  10.067  -0.152  0.00  0.00    -0.025 A 
ATOM      6  C   UNL     1       6.368  10.397  -1.413  0.00  0.00    -0.004 A 
ATOM      7  S   UNL     1       5.087   9.719  -2.434  0.00  0.00    -0.073 S 
ATOM      8  C   UNL     1       4.089   8.990  -1.162  0.00  0.00    +0.114 A 
ATOM      9  N   UNL     1       2.962   8.304  -1.137  0.00  0.00    -0.221 NA
ATOM     10  C   UNL     1       7.574  11.171  -1.851  0.00  0.00    +0.043 C 
ATOM     11  C   UNL     1       8.182  11.860  -0.622  0.00  0.00    +0.005 C 
ATOM     12  C   UNL     1       8.292  10.835   0.511  0.00  0.00    +0.005 C 
ATOM     13  C   UNL     1       6.897  10.483   1.029  0.00  0.00    +0.037 C 
ATOM     14  N   UNL     1       4.795   9.073   2.446  0.00  0.00    -0.343 N 
ATOM     15  H   UNL     1       5.482   9.754   2.520  0.00  0.00    +0.144 HD
ATOM     16  H   UNL     1       4.529   8.565   3.228  0.00  0.00    +0.144 HD
ENDROOT
BRANCH   1  17
ATOM     17  C   UNL     1       1.173   7.107   0.011  0.00  0.00    +0.308 C 
BRANCH  17  18
ATOM     18  O   UNL     1       1.468   5.690  -0.100  0.00  0.00    -0.453 OA
BRANCH  18  19
ATOM     19  C   UNL     1       0.418   4.846  -0.113  0.00  0.00    +0.340 C 
ATOM     20  O   UNL     1      -0.713   5.282  -0.034  0.00  0.00    -0.245 OA
BRANCH  19  26
ATOM     21  C   UNL     1      -1.400   0.207  -0.373  0.00  0.00    +0.044 C 
ATOM     22  C   UNL     1      -0.229   1.155  -0.350  0.00  0.00    -0.050 A 
ATOM     23  C   UNL     1       1.061   0.660  -0.435  0.00  0.00    +0.003 A 
ATOM     24  C   UNL     1       2.142   1.524  -0.421  0.00  0.00    +0.001 A 
ATOM     25  C   UNL     1       1.940   2.885  -0.317  0.00  0.00    +0.015 A 
ATOM     26  C   UNL     1       0.642   3.390  -0.225  0.00  0.00    +0.059 A 
ATOM     27  C   UNL     1      -0.445   2.513  -0.239  0.00  0.00    +0.018 A 
ENDBRANCH  19  26
ENDBRANCH  18  19
ENDBRANCH  17  18
ENDBRANCH   1  17
TORSDOF 4
