REMARK  Name = ZINC12981648
REMARK  10 active torsions:
REMARK  status: ('A' for Active; 'I' for Inactive)
REMARK    1  A    between atoms: C_1  and  C_2
REMARK    2  A    between atoms: C_5  and  S_8
REMARK    3  A    between atoms: S_8  and  N_11
REMARK    4  A    between atoms: N_11  and  C_12
REMARK    5  A    between atoms: C_12  and  C_13
REMARK    6  A    between atoms: N_15  and  C_16
REMARK    7  A    between atoms: C_16  and  C_17
REMARK    8  A    between atoms: N_19  and  C_20
REMARK    9  A    between atoms: C_23  and  C_27
REMARK   10  A    between atoms: C_25  and  O_26
REMARK                            x       y       z     vdW  Elec       q    Type
REMARK                         _______ _______ _______ _____ _____    ______ ____
ROOT
ATOM      1  C   UNL     1      -1.579   3.493  -2.998  0.00  0.00    +0.229 C 
ATOM      2  O   UNL     1      -1.718   2.527  -3.718  0.00  0.00    -0.274 OA
ATOM      3  N   UNL     1      -1.866   4.726  -3.461  0.00  0.00    -0.306 N 
ATOM      4  H   UNL     1      -1.754   5.498  -2.886  0.00  0.00    +0.149 HD
ENDROOT
BRANCH   1   5
ATOM      5  C   UNL     1      -1.083   3.315  -1.586  0.00  0.00    +0.201 C 
BRANCH   5   6
ATOM      6  N   UNL     1      -0.844   1.893  -1.328  0.00  0.00    -0.181 NA
ATOM      7  H   UNL     1      -1.206   1.224  -1.929  0.00  0.00    +0.149 HD
BRANCH   6   8
ATOM      8  S   UNL     1       0.044   1.429  -0.009  0.00  0.00    +0.059 S 
ATOM      9  O   UNL     1       0.074   0.008  -0.020  0.00  0.00    -0.153 OA
ATOM     10  O   UNL     1       1.227   2.216  -0.019  0.00  0.00    -0.153 OA
BRANCH   8  15
ATOM     11  C   UNL     1      -3.066   3.052   4.899  0.00  0.00    +0.044 C 
ATOM     12  C   UNL     1      -2.289   2.647   3.674  0.00  0.00    -0.050 A 
ATOM     13  C   UNL     1      -2.488   1.400   3.111  0.00  0.00    +0.005 A 
ATOM     14  C   UNL     1      -1.775   1.028   1.986  0.00  0.00    +0.029 A 
ATOM     15  C   UNL     1      -0.864   1.903   1.424  0.00  0.00    +0.105 A 
ATOM     16  C   UNL     1      -0.662   3.148   1.990  0.00  0.00    +0.029 A 
ATOM     17  C   UNL     1      -1.378   3.522   3.112  0.00  0.00    +0.005 A 
ENDBRANCH   8  15
ENDBRANCH   6   8
ENDBRANCH   5   6
ENDBRANCH   1   5
BRANCH   3  18
ATOM     18  C   UNL     1      -2.348   4.898  -4.834  0.00  0.00    +0.200 C 
BRANCH  18  19
ATOM     19  C   UNL     1      -2.594   6.361  -5.100  0.00  0.00    +0.234 C 
ATOM     20  O   UNL     1      -2.387   7.179  -4.228  0.00  0.00    -0.274 OA
ATOM     21  N   UNL     1      -3.043   6.761  -6.306  0.00  0.00    -0.281 N 
ATOM     22  H   UNL     1      -3.147   6.116  -7.023  0.00  0.00    +0.155 HD
BRANCH  21  23
ATOM     23  C   UNL     1      -3.361   8.108  -6.524  0.00  0.00    +0.075 A 
ATOM     24  C   UNL     1      -2.626   9.106  -5.901  0.00  0.00    +0.027 A 
ATOM     25  C   UNL     1      -2.940  10.434  -6.118  0.00  0.00    +0.005 A 
ATOM     26  C   UNL     1      -3.987  10.772  -6.956  0.00  0.00    -0.047 A 
ATOM     27  C   UNL     1      -4.724   9.783  -7.581  0.00  0.00    +0.050 A 
ATOM     28  C   UNL     1      -4.412   8.450  -7.372  0.00  0.00    +0.138 A 
ATOM     29  C   UNL     1      -4.325  12.222  -7.189  0.00  0.00    +0.044 C 
BRANCH  28  30
ATOM     30  O   UNL     1      -5.132   7.476  -7.991  0.00  0.00    -0.505 OA
ATOM     31  H   UNL     1      -5.899   7.174  -7.486  0.00  0.00    +0.292 HD
ENDBRANCH  28  30
ENDBRANCH  21  23
ENDBRANCH  18  19
ENDBRANCH   3  18
TORSDOF 8
