REMARK  Name = ZINC05353197
REMARK  10 active torsions:
REMARK  status: ('A' for Active; 'I' for Inactive)
REMARK    1  A    between atoms: C_1  and  C_2
REMARK    2  A    between atoms: C_2  and  C_3
REMARK    3  A    between atoms: C_2  and  C_4
REMARK    4  A    between atoms: C_2  and  C_5
REMARK    5  A    between atoms: C_11  and  C_15
REMARK    6  A    between atoms: N_17  and  N_18
REMARK    7  A    between atoms: C_19  and  C_20
REMARK    8  A    between atoms: C_24  and  C_27
REMARK    9  A    between atoms: C_25  and  O_26
REMARK   10  A    between atoms: C_27  and  C_28
REMARK                            x       y       z     vdW  Elec       q    Type
REMARK                         _______ _______ _______ _____ _____    ______ ____
ROOT
ATOM      1  C   UNL     1       5.271   0.060  -2.173  0.00  0.00    +0.284 C 
ATOM      2  O   UNL     1       5.118   0.332  -0.998  0.00  0.00    -0.267 OA
ATOM      3  N   UNL     1       6.511   0.028  -2.701  0.00  0.00    -0.202 N 
ATOM      4  H   UNL     1       6.633  -0.188  -3.639  0.00  0.00    +0.178 HD
ENDROOT
BRANCH   1  10
ATOM      5  C   UNL     1       0.718  -0.497  -1.257  0.00  0.00    -0.001 C 
ATOM      6  C   UNL     1      -0.023   0.009  -2.497  0.00  0.00    +0.010 C 
ATOM      7  C   UNL     1       0.534  -0.681  -3.749  0.00  0.00    +0.055 C 
ATOM      8  C   UNL     1       2.037  -0.563  -3.726  0.00  0.00    +0.040 A 
ATOM      9  C   UNL     1       2.753  -0.243  -2.620  0.00  0.00    +0.006 A 
ATOM     10  C   UNL     1       4.100  -0.236  -3.022  0.00  0.00    +0.152 A 
ATOM     11  N   UNL     1       4.113  -0.545  -4.307  0.00  0.00    -0.169 NA
ATOM     12  N   UNL     1       2.912  -0.739  -4.730  0.00  0.00    -0.281 N 
ATOM     13  H   UNL     1       2.674  -0.978  -5.639  0.00  0.00    +0.189 HD
ATOM     14  C   UNL     1       2.158   0.034  -1.267  0.00  0.00    +0.043 C 
BRANCH   5  16
ATOM     15  C   UNL     1      -0.019   1.526   0.010  0.00  0.00    +0.011 C 
ATOM     16  C   UNL     1       0.002  -0.004   0.002  0.00  0.00    -0.035 C 
ATOM     17  C   UNL     1       0.742  -0.511   1.242  0.00  0.00    +0.011 C 
ATOM     18  C   UNL     1      -1.433  -0.534   0.013  0.00  0.00    +0.011 C 
ENDBRANCH   5  16
ENDBRANCH   1  10
BRANCH   3  19
ATOM     19  N   UNL     1       7.623   0.309  -1.896  0.00  0.00    -0.187 NA
ATOM     20  C   UNL     1       8.817   0.278  -2.405  0.00  0.00    +0.142 C 
BRANCH  20  21
ATOM     21  C   UNL     1       9.986   0.573  -1.558  0.00  0.00    +0.036 A 
ATOM     22  C   UNL     1      11.272   0.547  -2.102  0.00  0.00    +0.013 A 
ATOM     23  C   UNL     1      12.362   0.825  -1.304  0.00  0.00    +0.001 A 
ATOM     24  C   UNL     1      12.188   1.128   0.035  0.00  0.00    +0.007 A 
ATOM     25  C   UNL     1      10.920   1.157   0.586  0.00  0.00    -0.002 A 
ATOM     26  C   UNL     1       9.814   0.887  -0.202  0.00  0.00    +0.129 A 
BRANCH  26  27
ATOM     27  O   UNL     1       8.568   0.920   0.337  0.00  0.00    -0.506 OA
ATOM     28  H   UNL     1       8.274   0.073   0.700  0.00  0.00    +0.292 HD
ENDBRANCH  26  27
BRANCH  25  29
ATOM     29  C   UNL     1      10.741   1.488   2.046  0.00  0.00    +0.065 C 
BRANCH  29  30
ATOM     30  C   UNL     1      10.670   0.212   2.845  0.00  0.00    -0.030 C 
ATOM     31  C   UNL     1      11.491   0.021   3.848  0.00  0.00    +0.004 C 
ENDBRANCH  29  30
ENDBRANCH  25  29
ENDBRANCH  20  21
ENDBRANCH   3  19
TORSDOF 7
