REMARK  Name = ZINC65182741
REMARK  9 active torsions:
REMARK  status: ('A' for Active; 'I' for Inactive)
REMARK    1  A    between atoms: C_1  and  C_2
REMARK    2  A    between atoms: C_7  and  C_13
REMARK    3  A    between atoms: C_9  and  C_12
REMARK    4  A    between atoms: C_16  and  C_19
REMARK    5  A    between atoms: C_19  and  C_20
REMARK    6  A    between atoms: C_20  and  N_21
REMARK    7  A    between atoms: N_21  and  C_22
REMARK    8  A    between atoms: C_23  and  C_25
REMARK    9  A    between atoms: C_28  and  C_31
REMARK                            x       y       z     vdW  Elec       q    Type
REMARK                         _______ _______ _______ _____ _____    ______ ____
ROOT
ATOM      1  C   UNL     1      -1.317  -5.234   1.991  0.00  0.00    +0.318 C 
ATOM      2  N   UNL     1      -1.253  -6.540   1.317  0.00  0.00    -0.291 N 
ATOM      3  C   UNL     1      -2.349  -6.615   0.490  0.00  0.00    +0.139 C 
ATOM      4  N   UNL     1      -3.066  -5.553   0.561  0.00  0.00    -0.072 NA
ATOM      5  O   UNL     1      -2.510  -4.623   1.475  0.00  0.00    -0.367 OA
ATOM      6  H   UNL     1      -0.569  -7.218   1.433  0.00  0.00    +0.151 HD
ENDROOT
BRANCH   1  13
ATOM      7  C   UNL     1      -0.295   1.550   0.324  0.00  0.00    +0.044 C 
ATOM      8  C   UNL     1      -0.238   0.045   0.280  0.00  0.00    -0.050 A 
ATOM      9  C   UNL     1      -0.201  -0.600  -0.964  0.00  0.00    +0.005 A 
ATOM     10  C   UNL     1      -0.149  -1.943  -1.088  0.00  0.00    +0.026 A 
ATOM     11  C   UNL     1      -0.131  -2.771   0.068  0.00  0.00    +0.043 A 
ATOM     12  N   UNL     1      -0.085  -4.074   0.208  0.00  0.00    -0.373 N 
ATOM     13  C   UNL     1      -0.089  -4.391   1.641  0.00  0.00    +0.168 C 
ATOM     14  C   UNL     1      -0.145  -3.061   2.360  0.00  0.00    -0.036 C 
ATOM     15  C   UNL     1      -0.170  -2.114   1.394  0.00  0.00    -0.001 A 
ATOM     16  C   UNL     1      -0.219  -0.648   1.441  0.00  0.00    +0.013 A 
ATOM     17  C   UNL     1      -0.171  -2.837   3.850  0.00  0.00    +0.042 C 
ATOM     18  H   UNL     1      -0.054  -4.720  -0.514  0.00  0.00    +0.160 HD
ENDBRANCH   1  13
BRANCH   3  19
ATOM     19  C   UNL     1      -2.668  -7.796  -0.390  0.00  0.00    +0.094 C 
BRANCH  19  20
ATOM     20  C   UNL     1      -3.959  -7.521  -1.164  0.00  0.00    +0.115 C 
BRANCH  20  21
ATOM     21  N   UNL     1      -4.269  -8.669  -2.020  0.00  0.00    -0.300 N 
ATOM     22  C   UNL     1      -5.099  -9.762  -1.507  0.00  0.00    +0.132 C 
ATOM     23  C   UNL     1      -3.791  -8.720  -3.279  0.00  0.00    +0.246 C 
ATOM     24  O   UNL     1      -3.018  -7.868  -3.670  0.00  0.00    -0.270 OA
BRANCH  23  25
ATOM     25  C   UNL     1      -4.209  -9.812  -4.185  0.00  0.00    +0.037 A 
ATOM     26  C   UNL     1      -5.508 -10.319  -4.115  0.00  0.00    +0.014 A 
ATOM     27  C   UNL     1      -5.896 -11.336  -4.959  0.00  0.00    +0.019 A 
ATOM     28  C   UNL     1      -4.991 -11.860  -5.884  0.00  0.00    +0.052 A 
ATOM     29  C   UNL     1      -3.692 -11.353  -5.954  0.00  0.00    +0.019 A 
ATOM     30  C   UNL     1      -3.305 -10.332  -5.114  0.00  0.00    +0.014 A 
BRANCH  28  31
ATOM     31  C   UNL     1      -5.395 -12.918  -6.761  0.00  0.00    +0.099 C 
ATOM     32  N   UNL     1      -5.715 -13.757  -7.457  0.00  0.00    -0.191 NA
ENDBRANCH  28  31
ENDBRANCH  23  25
ENDBRANCH  20  21
ENDBRANCH  19  20
ENDBRANCH   3  19
TORSDOF 6
