REMARK  Name = ZINC46961202
REMARK  7 active torsions:
REMARK  status: ('A' for Active; 'I' for Inactive)
REMARK    1  A    between atoms: C_1  and  C_2
REMARK    2  A    between atoms: C_8  and  C_25
REMARK    3  A    between atoms: C_8  and  C_26
REMARK    4  A    between atoms: C_10  and  N_12
REMARK    5  A    between atoms: N_15  and  N_16
REMARK    6  A    between atoms: N_16  and  C_17
REMARK    7  A    between atoms: C_17  and  C_24
REMARK                            x       y       z     vdW  Elec       q    Type
REMARK                         _______ _______ _______ _____ _____    ______ ____
ROOT
ATOM      1  N   UNL     1      -2.505  -3.298  -0.964  0.00  0.00    -0.291 N 
ATOM      2  C   UNL     1      -3.667  -2.732  -0.582  0.00  0.00    +0.314 C 
ATOM      3  O   UNL     1      -3.796  -2.314   0.552  0.00  0.00    -0.252 OA
ATOM      4  N   UNL     1      -4.686  -2.630  -1.458  0.00  0.00    -0.234 N 
ATOM      5  H   UNL     1      -2.401  -3.631  -1.869  0.00  0.00    +0.151 HD
ATOM      6  H   UNL     1      -5.523  -2.224  -1.183  0.00  0.00    +0.171 HD
ENDROOT
BRANCH   1  16
ATOM      7  C   UNL     1      -0.018   1.503   0.010  0.00  0.00    +0.086 C 
ATOM      8  C   UNL     1       0.002  -0.004   0.002  0.00  0.00    +0.103 A 
ATOM      9  C   UNL     1      -1.081  -0.806   0.003  0.00  0.00    +0.050 A 
ATOM     10  C   UNL     1      -0.602  -2.129  -0.007  0.00  0.00    +0.014 A 
ATOM     11  C   UNL     1       0.745  -2.064  -0.011  0.00  0.00    +0.111 A 
ATOM     12  O   UNL     1       1.104  -0.775  -0.013  0.00  0.00    -0.464 OA
ATOM     13  C   UNL     1       1.646  -3.276  -0.019  0.00  0.00    +0.081 C 
ATOM     14  C   UNL     1       0.818  -4.497   0.398  0.00  0.00    -0.026 C 
ATOM     15  C   UNL     1      -0.466  -4.554  -0.433  0.00  0.00    +0.034 C 
ATOM     16  C   UNL     1      -1.397  -3.409  -0.012  0.00  0.00    +0.109 C 
ATOM     17  C   UNL     1       0.461  -4.389   1.882  0.00  0.00    +0.011 C 
ATOM     18  C   UNL     1       1.634  -5.770   0.162  0.00  0.00    +0.011 C 
ENDBRANCH   1  16
BRANCH   4  19
ATOM     19  N   UNL     1      -4.541  -3.100  -2.733  0.00  0.00    -0.232 NA
ATOM     20  H   UNL     1      -4.276  -4.074  -2.731  0.00  0.00    +0.145 HD
BRANCH  19  21
ATOM     21  C   UNL     1      -5.767  -2.889  -3.514  0.00  0.00    +0.054 C 
ATOM     22  C   UNL     1      -6.119  -1.402  -3.481  0.00  0.00    +0.047 C 
ATOM     23  C   UNL     1      -5.447  -0.662  -4.671  0.00  0.00    +0.168 C 
ATOM     24  S   UNL     1      -5.677  -1.932  -5.992  0.00  0.00    -0.029 S 
ATOM     25  O   UNL     1      -4.571  -1.887  -6.882  0.00  0.00    -0.174 OA
ATOM     26  O   UNL     1      -6.998  -1.836  -6.508  0.00  0.00    -0.174 OA
ATOM     27  C   UNL     1      -5.545  -3.436  -4.938  0.00  0.00    +0.189 C 
ATOM     28  C   UNL     1      -6.905  -3.673  -2.859  0.00  0.00    +0.031 C 
ENDBRANCH  19  21
ENDBRANCH   4  19
TORSDOF 3
