REMARK  Name = ZINC00050606
REMARK  3 active torsions:
REMARK  status: ('A' for Active; 'I' for Inactive)
REMARK    1  A    between atoms: C_4  and  N_7
REMARK    2  A    between atoms: C_11  and  C_12
REMARK    3  A    between atoms: C_13  and  C_14
REMARK                            x       y       z     vdW  Elec       q    Type
REMARK                         _______ _______ _______ _____ _____    ______ ____
ROOT
ATOM      1  N   UNL     1       0.002  -0.004   0.002  0.00  0.00    -0.184 N 
ATOM      2  C   UNL     1      -1.094  -0.786   0.008  0.00  0.00    +0.272 C 
ATOM      3  O   UNL     1      -2.252  -0.411   0.021  0.00  0.00    -0.268 OA
ATOM      4  C   UNL     1      -0.624  -2.182  -0.004  0.00  0.00    +0.102 C 
ATOM      5  C   UNL     1      -1.399  -3.333  -0.002  0.00  0.00    +0.018 C 
ATOM      6  C   UNL     1       0.847  -2.093  -0.017  0.00  0.00    +0.266 C 
ATOM      7  O   UNL     1       1.629  -3.024  -0.030  0.00  0.00    -0.268 OA
ATOM      8  N   UNL     1       1.159  -0.783  -0.019  0.00  0.00    -0.223 N 
ATOM      9  H   UNL     1       2.062  -0.430  -0.031  0.00  0.00    +0.174 HD
ENDROOT
BRANCH   1  13
ATOM     10  C   UNL     1      -0.054   4.161   0.024  0.00  0.00    +0.000 A 
ATOM     11  C   UNL     1       1.153   3.487   0.009  0.00  0.00    +0.002 A 
ATOM     12  C   UNL     1       1.175   2.107   0.002  0.00  0.00    +0.025 A 
ATOM     13  C   UNL     1      -0.017   1.394   0.010  0.00  0.00    +0.056 A 
ATOM     14  C   UNL     1      -1.228   2.074   0.019  0.00  0.00    +0.025 A 
ATOM     15  C   UNL     1      -1.243   3.455   0.032  0.00  0.00    +0.002 A 
ENDBRANCH   1  13
BRANCH   5  16
ATOM     16  C   UNL     1      -0.784  -4.593  -0.015  0.00  0.00    +0.002 C 
ATOM     17  C   UNL     1      -1.543  -5.720  -0.013  0.00  0.00    +0.009 C 
BRANCH  17  18
ATOM     18  C   UNL     1      -0.898  -7.039  -0.026  0.00  0.00    -0.007 A 
ATOM     19  C   UNL     1       0.498  -7.140  -0.046  0.00  0.00    +0.009 A 
ATOM     20  C   UNL     1       1.095  -8.382  -0.053  0.00  0.00    +0.001 A 
ATOM     21  C   UNL     1       0.319  -9.529  -0.051  0.00  0.00    +0.001 A 
ATOM     22  C   UNL     1      -1.062  -9.439  -0.037  0.00  0.00    +0.020 A 
ATOM     23  C   UNL     1      -1.677  -8.204  -0.024  0.00  0.00    +0.048 A 
ATOM     24 CL   UNL     1      -3.410  -8.093  -0.005  0.00  0.00    -0.083 Cl
ENDBRANCH  17  18
ENDBRANCH   5  16
TORSDOF 3
