REMARK  Name = ZINC15320673
REMARK  8 active torsions:
REMARK  status: ('A' for Active; 'I' for Inactive)
REMARK    1  A    between atoms: C_1  and  C_2
REMARK    2  A    between atoms: C_2  and  O_3
REMARK    3  A    between atoms: O_3  and  C_4
REMARK    4  A    between atoms: C_4  and  C_6
REMARK    5  A    between atoms: C_6  and  N_7
REMARK    6  A    between atoms: C_21  and  C_24
REMARK    7  A    between atoms: N_27  and  C_30
REMARK    8  A    between atoms: C_30  and  C_31
REMARK                            x       y       z     vdW  Elec       q    Type
REMARK                         _______ _______ _______ _____ _____    ______ ____
ROOT
ATOM      1  N   UNL     1       0.615   2.731  -4.243  0.00  0.00    -0.259 N 
ATOM      2  C   UNL     1       0.372   1.387  -4.534  0.00  0.00    +0.042 A 
ATOM      3  C   UNL     1       0.156   0.744  -5.751  0.00  0.00    +0.024 A 
ATOM      4  C   UNL     1      -0.064  -0.618  -5.786  0.00  0.00    +0.002 A 
ATOM      5  C   UNL     1      -0.073  -1.355  -4.615  0.00  0.00    +0.000 A 
ATOM      6  C   UNL     1       0.140  -0.723  -3.403  0.00  0.00    +0.008 A 
ATOM      7  C   UNL     1       0.362   0.635  -3.363  0.00  0.00    +0.004 A 
ATOM      8  C   UNL     1       0.623   1.607  -2.244  0.00  0.00    +0.136 C 
ATOM      9  C   UNL     1       0.776   2.944  -2.923  0.00  0.00    +0.246 C 
ATOM     10  O   UNL     1       1.001   4.007  -2.384  0.00  0.00    -0.273 OA
ATOM     11  C   UNL     1       1.859   1.232  -1.447  0.00  0.00    +0.122 C 
ATOM     12  C   UNL     1       1.353   1.641  -0.002  0.00  0.00    +0.107 C 
ATOM     13  C   UNL     1      -0.013   1.086   0.008  0.00  0.00    +0.064 C 
ATOM     14  N   UNL     1      -0.526   1.636  -1.303  0.00  0.00    -0.296 NA
ATOM     15  C   UNL     1      -0.822   1.621   1.192  0.00  0.00    +0.025 C 
ATOM     16  C   UNL     1       2.594   1.589   0.735  0.00  0.00    +0.227 C 
ATOM     17  O   UNL     1       2.780   1.178   1.861  0.00  0.00    -0.275 OA
ATOM     18  N   UNL     1       3.517   2.118  -0.141  0.00  0.00    -0.237 N 
ATOM     19  C   UNL     1       3.060   2.144  -1.431  0.00  0.00    +0.229 C 
ATOM     20  O   UNL     1       3.522   2.767  -2.362  0.00  0.00    -0.275 OA
ATOM     21  H   UNL     1      -0.878   2.671  -1.186  0.00  0.00    +0.123 HD
ENDROOT
BRANCH   1  22
ATOM     22  C   UNL     1       0.688   3.786  -5.256  0.00  0.00    +0.234 C 
BRANCH  22  23
ATOM     23  C   UNL     1      -0.684   4.372  -5.469  0.00  0.00    +0.325 C 
ATOM     24  O   UNL     1      -1.626   3.951  -4.840  0.00  0.00    -0.249 OA
BRANCH  23  25
ATOM     25  O   UNL     1      -0.860   5.362  -6.359  0.00  0.00    -0.464 OA
BRANCH  25  27
ATOM     26  C   UNL     1      -2.212   6.992  -7.561  0.00  0.00    +0.048 C 
ATOM     27  C   UNL     1      -2.209   5.878  -6.512  0.00  0.00    +0.229 C 
ENDBRANCH  25  27
ENDBRANCH  23  25
ENDBRANCH  22  23
ENDBRANCH   1  22
BRANCH  18  28
ATOM     28  C   UNL     1       4.840   2.600   0.263  0.00  0.00    +0.151 C 
BRANCH  28  29
ATOM     29  C   UNL     1       4.755   4.062   0.618  0.00  0.00    -0.030 A 
ATOM     30  C   UNL     1       4.963   5.023  -0.354  0.00  0.00    +0.005 A 
ATOM     31  C   UNL     1       4.881   6.364  -0.029  0.00  0.00    +0.000 A 
ATOM     32  C   UNL     1       4.600   6.744   1.270  0.00  0.00    +0.000 A 
ATOM     33  C   UNL     1       4.397   5.784   2.243  0.00  0.00    +0.000 A 
ATOM     34  C   UNL     1       4.475   4.443   1.917  0.00  0.00    +0.005 A 
ENDBRANCH  28  29
ENDBRANCH  18  28
TORSDOF 6
