REMARK  Name = ZINC59501860
REMARK  5 active torsions:
REMARK  status: ('A' for Active; 'I' for Inactive)
REMARK    1  A    between atoms: C_1  and  C_2
REMARK    2  A    between atoms: C_7  and  O_24
REMARK    3  A    between atoms: N_12  and  O_13
REMARK    4  A    between atoms: O_13  and  C_14
REMARK    5  A    between atoms: C_14  and  C_16
REMARK                            x       y       z     vdW  Elec       q    Type
REMARK                         _______ _______ _______ _____ _____    ______ ____
ROOT
ATOM      1  C   UNL     1      -0.019   1.526   0.010  0.00  0.00    +0.008 C 
ATOM      2  C   UNL     1       0.002  -0.004   0.002  0.00  0.00    -0.004 C 
ATOM      3  C   UNL     1       0.717  -0.497  -1.253  0.00  0.00    +0.039 C 
ATOM      4  C   UNL     1       0.875  -1.993  -1.240  0.00  0.00    -0.035 A 
ATOM      5  C   UNL     1       1.049  -2.659  -2.438  0.00  0.00    +0.049 A 
ATOM      6  C   UNL     1       1.200  -4.039  -2.457  0.00  0.00    +0.117 A 
ATOM      7  C   UNL     1       1.179  -4.763  -1.271  0.00  0.00    +0.046 A 
ATOM      8  C   UNL     1       1.004  -4.108  -0.071  0.00  0.00    +0.013 A 
ATOM      9  C   UNL     1       0.849  -2.720  -0.051  0.00  0.00    +0.003 A 
ATOM     10  C   UNL     1       0.652  -2.025   1.240  0.00  0.00    +0.088 C 
ATOM     11  N   UNL     1       0.407  -2.684   2.326  0.00  0.00    -0.078 NA
ATOM     12  C   UNL     1       0.745  -0.513   1.244  0.00  0.00    +0.063 C 
ENDROOT
BRANCH   6  13
ATOM     13  O   UNL     1       1.371  -4.684  -3.639  0.00  0.00    -0.507 OA
ATOM     14  H   UNL     1       2.295  -4.776  -3.908  0.00  0.00    +0.292 HD
ENDBRANCH   6  13
BRANCH  11  15
ATOM     15  O   UNL     1       0.222  -1.993   3.548  0.00  0.00    -0.312 OA
BRANCH  15  16
ATOM     16  C   UNL     1      -0.025  -2.796   4.600  0.00  0.00    +0.369 C 
ATOM     17  O   UNL     1      -0.072  -4.000   4.447  0.00  0.00    -0.242 OA
BRANCH  16  18
ATOM     18  C   UNL     1      -0.239  -2.213   5.939  0.00  0.00    +0.096 A 
ATOM     19  C   UNL     1      -0.192  -0.829   6.118  0.00  0.00    +0.018 A 
ATOM     20  C   UNL     1      -0.393  -0.291   7.371  0.00  0.00    +0.001 A 
ATOM     21  C   UNL     1      -0.641  -1.119   8.453  0.00  0.00    +0.003 A 
ATOM     22  C   UNL     1      -0.690  -2.490   8.287  0.00  0.00    +0.039 A 
ATOM     23  C   UNL     1      -0.496  -3.045   7.034  0.00  0.00    +0.137 A 
ATOM     24  F   UNL     1      -0.550  -4.385   6.871  0.00  0.00    -0.205 F 
ENDBRANCH  16  18
ENDBRANCH  15  16
ENDBRANCH  11  15
TORSDOF 4
