REMARK  Name = ZINC38653778
REMARK  6 active torsions:
REMARK  status: ('A' for Active; 'I' for Inactive)
REMARK    1  A    between atoms: C_1  and  C_2
REMARK    2  A    between atoms: C_5  and  C_8
REMARK    3  A    between atoms: C_8  and  N_9
REMARK    4  A    between atoms: C_15  and  C_22
REMARK    5  A    between atoms: C_24  and  C_27
REMARK    6  A    between atoms: C_32  and  C_33
REMARK                            x       y       z     vdW  Elec       q    Type
REMARK                         _______ _______ _______ _____ _____    ______ ____
ROOT
ATOM      1  N   UNL     1       1.294  -4.204  -1.360  0.00  0.00    -0.256 N 
ATOM      2  C   UNL     1       1.978  -4.640  -2.439  0.00  0.00    +0.265 A 
ATOM      3  O   UNL     1       1.460  -4.661  -3.539  0.00  0.00    -0.267 OA
ATOM      4  C   UNL     1       3.370  -5.089  -2.251  0.00  0.00    +0.063 A 
ATOM      5  C   UNL     1       4.139  -5.551  -3.317  0.00  0.00    +0.016 A 
ATOM      6  C   UNL     1       5.426  -5.959  -3.102  0.00  0.00    +0.014 A 
ATOM      7  C   UNL     1       5.976  -5.914  -1.817  0.00  0.00    +0.041 A 
ATOM      8  C   UNL     1       5.218  -5.454  -0.742  0.00  0.00    +0.039 A 
ATOM      9  C   UNL     1       3.914  -5.040  -0.955  0.00  0.00    +0.056 A 
ATOM     10  N   UNL     1       3.121  -4.574   0.085  0.00  0.00    -0.307 N 
ATOM     11  H   UNL     1       3.483  -4.534   0.984  0.00  0.00    +0.170 HD
ATOM     12  C   UNL     1       1.859  -4.171  -0.143  0.00  0.00    +0.330 A 
ATOM     13  O   UNL     1       1.200  -3.765   0.794  0.00  0.00    -0.246 OA
ENDROOT
BRANCH   7  14
ATOM     14  C   UNL     1       7.370  -6.359  -1.597  0.00  0.00    +0.259 A 
ATOM     15  N   UNL     1       8.188  -6.807  -2.520  0.00  0.00    -0.187 NA
ATOM     16  C   UNL     1       9.372  -7.119  -1.970  0.00  0.00    +0.203 A 
ATOM     17  N   UNL     1       9.319  -6.872  -0.683  0.00  0.00    -0.056 NA
ATOM     18  O   UNL     1       8.018  -6.367  -0.420  0.00  0.00    -0.332 OA
BRANCH  16  19
ATOM     19  C   UNL     1      10.548  -7.657  -2.698  0.00  0.00    +0.025 A 
ATOM     20  C   UNL     1      11.814  -7.118  -2.477  0.00  0.00    +0.012 A 
ATOM     21  C   UNL     1      12.904  -7.622  -3.157  0.00  0.00    +0.001 A 
ATOM     22  C   UNL     1      12.742  -8.659  -4.057  0.00  0.00    +0.000 A 
ATOM     23  C   UNL     1      11.488  -9.198  -4.281  0.00  0.00    +0.004 A 
ATOM     24  C   UNL     1      10.392  -8.706  -3.601  0.00  0.00    -0.040 A 
ATOM     25  C   UNL     1       9.027  -9.298  -3.841  0.00  0.00    +0.044 C 
ENDBRANCH  16  19
ENDBRANCH   7  14
BRANCH   1  26
ATOM     26  C   UNL     1      -0.090  -3.752  -1.521  0.00  0.00    +0.165 C 
BRANCH  26  31
ATOM     27  C   UNL     1      -0.147   1.908  -2.688  0.00  0.00    +0.044 C 
ATOM     28  C   UNL     1      -0.132   0.432  -2.384  0.00  0.00    -0.050 A 
ATOM     29  C   UNL     1      -0.067  -0.486  -3.415  0.00  0.00    +0.004 A 
ATOM     30  C   UNL     1      -0.053  -1.840  -3.136  0.00  0.00    +0.005 A 
ATOM     31  C   UNL     1      -0.104  -2.276  -1.825  0.00  0.00    -0.027 A 
ATOM     32  C   UNL     1      -0.169  -1.358  -0.794  0.00  0.00    +0.005 A 
ATOM     33  C   UNL     1      -0.178  -0.004  -1.073  0.00  0.00    +0.004 A 
ENDBRANCH  26  31
ENDBRANCH   1  26
TORSDOF 4
