REMARK  Name = ZINC63663688
REMARK  3 active torsions:
REMARK  status: ('A' for Active; 'I' for Inactive)
REMARK    1  A    between atoms: C_7  and  C_15
REMARK    2  A    between atoms: N_17  and  C_18
REMARK    3  A    between atoms: C_18  and  C_19
REMARK                            x       y       z     vdW  Elec       q    Type
REMARK                         _______ _______ _______ _____ _____    ______ ____
ROOT
ATOM      1  C   UNL     1       0.900  -2.689   1.371  0.00  0.00    +0.225 C 
ATOM      2  O   UNL     1       0.705  -1.900   2.272  0.00  0.00    -0.275 OA
ATOM      3  N   UNL     1       0.844  -4.014   1.613  0.00  0.00    -0.310 N 
ATOM      4  H   UNL     1       0.999  -4.645   0.893  0.00  0.00    +0.149 HD
ENDROOT
BRANCH   1  11
ATOM      5  C   UNL     1      -0.017   1.377   0.010  0.00  0.00    +0.001 A 
ATOM      6  C   UNL     1       1.171   2.086   0.002  0.00  0.00    +0.004 A 
ATOM      7  C   UNL     1       2.376   1.413  -0.013  0.00  0.00    +0.046 A 
ATOM      8  C   UNL     1       2.398   0.022  -0.021  0.00  0.00    +0.133 A 
ATOM      9  C   UNL     1       1.207  -0.685  -0.012  0.00  0.00    +0.011 A 
ATOM     10  C   UNL     1       0.002  -0.004   0.002  0.00  0.00    +0.008 A 
ATOM     11  C   UNL     1       1.204  -2.189  -0.017  0.00  0.00    +0.142 C 
ATOM     12  C   UNL     1       2.543  -2.720  -0.453  0.00  0.00    +0.011 A 
ATOM     13  C   UNL     1       2.647  -4.036  -0.869  0.00  0.00    +0.008 A 
ATOM     14  C   UNL     1       3.867  -4.543  -1.272  0.00  0.00    +0.001 A 
ATOM     15  C   UNL     1       4.990  -3.737  -1.261  0.00  0.00    +0.004 A 
ATOM     16  C   UNL     1       4.892  -2.424  -0.847  0.00  0.00    +0.046 A 
ATOM     17  C   UNL     1       3.666  -1.910  -0.441  0.00  0.00    +0.133 A 
ATOM     18  O   UNL     1       3.591  -0.619  -0.035  0.00  0.00    -0.455 OA
ENDBRANCH   1  11
BRANCH   3  19
ATOM     19  C   UNL     1       0.547  -4.500   2.963  0.00  0.00    +0.139 C 
BRANCH  19  20
ATOM     20  C   UNL     1       0.543  -6.007   2.964  0.00  0.00    -0.030 A 
ATOM     21  C   UNL     1      -0.654  -6.687   2.698  0.00  0.00    +0.007 A 
ATOM     22  C   UNL     1      -0.737  -8.034   2.678  0.00  0.00    +0.026 A 
ATOM     23  C   UNL     1       0.412  -8.831   2.932  0.00  0.00    +0.043 A 
ATOM     24  N   UNL     1       0.576 -10.133   2.989  0.00  0.00    -0.378 N 
ATOM     25  C   UNL     1       1.993 -10.412   3.206  0.00  0.00    +0.106 C 
ATOM     26  C   UNL     1       2.232 -11.265   4.454  0.00  0.00    +0.029 C 
ATOM     27  C   UNL     1       3.732 -11.266   4.764  0.00  0.00    +0.003 C 
ATOM     28  C   UNL     1       4.217  -9.869   5.147  0.00  0.00    +0.004 C 
ATOM     29  C   UNL     1       4.054  -8.912   3.954  0.00  0.00    +0.033 C 
ATOM     30  C   UNL     1       2.639  -9.058   3.446  0.00  0.00    -0.038 C 
ATOM     31  C   UNL     1       1.691  -8.137   3.224  0.00  0.00    -0.001 A 
ATOM     32  C   UNL     1       1.695  -6.668   3.217  0.00  0.00    +0.015 A 
ATOM     33  H   UNL     1      -0.126 -10.797   2.902  0.00  0.00    +0.160 HD
ENDBRANCH  19  20
ENDBRANCH   3  19
TORSDOF 3
