REMARK  Name = ZINC44168714
REMARK  9 active torsions:
REMARK  status: ('A' for Active; 'I' for Inactive)
REMARK    1  A    between atoms: C_1  and  C_2
REMARK    2  A    between atoms: N_4  and  C_5
REMARK    3  A    between atoms: C_7  and  O_28
REMARK    4  A    between atoms: C_9  and  O_27
REMARK    5  A    between atoms: C_11  and  C_25
REMARK    6  A    between atoms: C_14  and  O_16
REMARK    7  A    between atoms: O_16  and  C_17
REMARK    8  A    between atoms: C_20  and  C_23
REMARK    9  A    between atoms: C_25  and  O_26
REMARK                            x       y       z     vdW  Elec       q    Type
REMARK                         _______ _______ _______ _____ _____    ______ ____
ROOT
ATOM      1  C   UNL     1      -1.136  -2.159   0.001  0.00  0.00    +0.173 C 
ATOM      2  C   UNL     1      -2.444  -2.685  -0.596  0.00  0.00    +0.172 C 
ATOM      3  C   UNL     1      -2.445  -4.215  -0.528  0.00  0.00    +0.176 C 
ATOM      4  C   UNL     1      -2.253  -4.653   0.926  0.00  0.00    +0.179 C 
ATOM      5  O   UNL     1      -1.033  -4.105   1.430  0.00  0.00    -0.332 OA
ATOM      6  C   UNL     1      -0.993  -2.676   1.435  0.00  0.00    +0.331 C 
ENDROOT
BRANCH   1  10
ATOM      7  C   UNL     1      -0.018   1.503   0.010  0.00  0.00    +0.109 C 
ATOM      8  C   UNL     1       0.002  -0.004   0.002  0.00  0.00    +0.210 C 
ATOM      9  O   UNL     1       1.060  -0.596  -0.011  0.00  0.00    -0.276 OA
ATOM     10  N   UNL     1      -1.156  -0.694   0.009  0.00  0.00    -0.304 N 
ATOM     11  H   UNL     1      -2.002  -0.220   0.020  0.00  0.00    +0.149 HD
ENDBRANCH   1  10
BRANCH   3  12
ATOM     12  O   UNL     1      -1.378  -4.729  -1.328  0.00  0.00    -0.387 OA
ATOM     13  H   UNL     1      -1.319  -5.694  -1.331  0.00  0.00    +0.210 HD
ENDBRANCH   3  12
BRANCH   2  14
ATOM     14  O   UNL     1      -2.551  -2.265  -1.958  0.00  0.00    -0.387 OA
ATOM     15  H   UNL     1      -3.357  -2.564  -2.400  0.00  0.00    +0.210 HD
ENDBRANCH   2  14
BRANCH   6  16
ATOM     16  O   UNL     1       0.253  -2.235   1.978  0.00  0.00    -0.462 OA
BRANCH  16  17
ATOM     17  C   UNL     1       0.492  -2.521   3.283  0.00  0.00    +0.124 A 
ATOM     18  C   UNL     1      -0.456  -3.220   4.024  0.00  0.00    +0.046 A 
ATOM     19  C   UNL     1      -0.220  -3.511   5.343  0.00  0.00    +0.014 A 
ATOM     20  C   UNL     1       0.978  -3.105   5.943  0.00  0.00    +0.014 A 
ATOM     21  C   UNL     1       1.929  -2.402   5.193  0.00  0.00    +0.014 A 
ATOM     22  C   UNL     1       1.685  -2.120   3.873  0.00  0.00    +0.046 A 
BRANCH  20  23
ATOM     23  C   UNL     1       1.236  -3.415   7.356  0.00  0.00    +0.258 C 
ATOM     24  O   UNL     1       2.275  -3.062   7.874  0.00  0.00    -0.296 OA
ENDBRANCH  20  23
ENDBRANCH  16  17
ENDBRANCH   6  16
BRANCH   4  25
ATOM     25  C   UNL     1      -2.192  -6.181   0.995  0.00  0.00    +0.190 C 
BRANCH  25  26
ATOM     26  O   UNL     1      -2.130  -6.594   2.362  0.00  0.00    -0.392 OA
ATOM     27  H   UNL     1      -2.089  -7.552   2.482  0.00  0.00    +0.210 HD
ENDBRANCH  25  26
ENDBRANCH   4  25
TORSDOF 8
