REMARK  Name = ZINC03239896
REMARK  7 active torsions:
REMARK  status: ('A' for Active; 'I' for Inactive)
REMARK    1  A    between atoms: C_1  and  C_2
REMARK    2  A    between atoms: C_5  and  C_8
REMARK    3  A    between atoms: N_12  and  C_13
REMARK    4  A    between atoms: N_19  and  N_20
REMARK    5  A    between atoms: N_20  and  C_21
REMARK    6  A    between atoms: C_21  and  C_23
REMARK    7  A    between atoms: C_26  and  C_28
REMARK                            x       y       z     vdW  Elec       q    Type
REMARK                         _______ _______ _______ _____ _____    ______ ____
ROOT
ATOM      1  C   UNL     1       3.811  -0.717   0.145  0.00  0.00    +0.078 A 
ATOM      2  C   UNL     1       3.897  -2.059   0.250  0.00  0.00    +0.076 A 
ATOM      3  S   UNL     1       5.637  -2.346  -0.033  0.00  0.00    -0.058 S 
ATOM      4  C   UNL     1       6.132  -0.647  -0.272  0.00  0.00    +0.169 A 
ATOM      5  N   UNL     1       7.330  -0.156  -0.528  0.00  0.00    -0.334 N 
ATOM      6  N   UNL     1       4.936   0.014  -0.125  0.00  0.00    -0.238 N 
ATOM      7  H   UNL     1       7.481   0.933  -0.569  0.00  0.00    +0.168 HD
ENDROOT
BRANCH   1  12
ATOM      8  C   UNL     1      -1.265   1.914   0.805  0.00  0.00    +0.044 C 
ATOM      9  C   UNL     1       0.066   1.227   0.636  0.00  0.00    -0.050 A 
ATOM     10  C   UNL     1       1.015   1.765  -0.215  0.00  0.00    +0.004 A 
ATOM     11  C   UNL     1       2.233   1.139  -0.379  0.00  0.00    +0.010 A 
ATOM     12  C   UNL     1       2.507  -0.041   0.316  0.00  0.00    +0.001 A 
ATOM     13  C   UNL     1       1.545  -0.578   1.173  0.00  0.00    +0.010 A 
ATOM     14  C   UNL     1       0.331   0.059   1.328  0.00  0.00    +0.004 A 
ENDBRANCH   1  12
BRANCH   5  15
ATOM     15  C   UNL     1       8.383  -1.000  -0.743  0.00  0.00    +0.041 A 
ATOM     16  C   UNL     1       9.115  -1.500   0.338  0.00  0.00    +0.025 A 
ATOM     17  C   UNL     1      10.173  -2.356   0.113  0.00  0.00    +0.002 A 
ATOM     18  C   UNL     1      10.517  -2.711  -1.179  0.00  0.00    +0.000 A 
ATOM     19  C   UNL     1       9.801  -2.216  -2.254  0.00  0.00    +0.002 A 
ATOM     20  C   UNL     1       8.737  -1.364  -2.045  0.00  0.00    +0.025 A 
ENDBRANCH   5  15
BRANCH   6  21
ATOM     21  N   UNL     1       4.870   1.408  -0.244  0.00  0.00    -0.248 N 
ATOM     22  H   UNL     1       4.338   2.001   0.515  0.00  0.00    +0.173 HD
BRANCH  21  23
ATOM     23  C   UNL     1       5.480   2.046  -1.326  0.00  0.00    +0.082 C 
ATOM     24  C   UNL     1       6.015   1.322  -2.314  0.00  0.00    +0.038 C 
BRANCH  23  25
ATOM     25  C   UNL     1       5.533   3.519  -1.379  0.00  0.00    +0.150 A 
ATOM     26  C   UNL     1       6.094   4.262  -2.371  0.00  0.00    +0.051 A 
ATOM     27  C   UNL     1       5.918   5.614  -2.014  0.00  0.00    +0.045 A 
ATOM     28  C   UNL     1       5.266   5.629  -0.835  0.00  0.00    +0.103 A 
ATOM     29  O   UNL     1       5.029   4.362  -0.457  0.00  0.00    -0.459 OA
ATOM     30  C   UNL     1       4.862   6.863  -0.070  0.00  0.00    +0.086 C 
ENDBRANCH  23  25
ENDBRANCH  21  23
ENDBRANCH   6  21
TORSDOF 5
