REMARK  Name = ZINC33938237
REMARK  6 active torsions:
REMARK  status: ('A' for Active; 'I' for Inactive)
REMARK    1  A    between atoms: C_2  and  C_23
REMARK    2  A    between atoms: N_9  and  C1*_10
REMARK    3  A    between atoms: C2*_12  and  O2*_22
REMARK    4  A    between atoms: C3*_14  and  O3*_21
REMARK    5  A    between atoms: C4*_16  and  C5*_19
REMARK    6  A    between atoms: C5*_19  and  O5*_20
REMARK                            x       y       z     vdW  Elec       q    Type
REMARK                         _______ _______ _______ _____ _____    ______ ____
ROOT
ATOM      1  C   UNL     1      -0.016   1.361   0.023  0.00  0.00    +0.106 A 
ATOM      2  C   UNL     1       1.163   2.049   0.003  0.00  0.00    +0.056 A 
ATOM      3  C   UNL     1       2.417   1.281  -0.025  0.00  0.00    +0.261 A 
ATOM      4  O   UNL     1       3.493   1.849  -0.043  0.00  0.00    -0.267 OA
ATOM      5  N   UNL     1       2.350  -0.067  -0.030  0.00  0.00    -0.274 N 
ATOM      6  H   UNL     1       3.166  -0.591  -0.048  0.00  0.00    +0.173 HD
ATOM      7  C   UNL     1       1.157  -0.688  -0.009  0.00  0.00    +0.331 A 
ATOM      8  O   UNL     1       1.124  -1.903  -0.013  0.00  0.00    -0.246 OA
ATOM      9  N   UNL     1       0.002  -0.004   0.017  0.00  0.00    -0.271 N 
ENDROOT
BRANCH   9  10
ATOM     10  C1* UNL     1      -1.266  -0.738   0.039  0.00  0.00    +0.255 C 
ATOM     11  C2* UNL     1      -1.411  -1.599  -1.236  0.00  0.00    +0.195 C 
ATOM     12  C3* UNL     1      -2.914  -1.508  -1.581  0.00  0.00    +0.178 C 
ATOM     13  C4* UNL     1      -3.499  -0.604  -0.474  0.00  0.00    +0.177 C 
ATOM     14  O4* UNL     1      -2.379   0.180  -0.004  0.00  0.00    -0.346 OA
BRANCH  12  15
ATOM     15  O3* UNL     1      -3.097  -0.913  -2.867  0.00  0.00    -0.386 OA
ATOM     16  H3* UNL     1      -4.023  -0.832  -3.134  0.00  0.00    +0.210 HD
ENDBRANCH  12  15
BRANCH  11  17
ATOM     17  O2* UNL     1      -0.617  -1.062  -2.296  0.00  0.00    -0.385 OA
ATOM     18  H2* UNL     1      -0.671  -1.563  -3.121  0.00  0.00    +0.210 HD
ENDBRANCH  11  17
BRANCH  13  19
ATOM     19  C5* UNL     1      -4.586   0.306  -1.050  0.00  0.00    +0.190 C 
BRANCH  19  20
ATOM     20  O5* UNL     1      -5.194   1.050   0.009  0.00  0.00    -0.392 OA
ATOM     21  H5* UNL     1      -5.894   1.650  -0.284  0.00  0.00    +0.210 HD
ENDBRANCH  19  20
ENDBRANCH  13  19
ENDBRANCH   9  10
BRANCH   2  22
ATOM     22  C   UNL     1       1.179   3.526   0.009  0.00  0.00    +0.022 C 
ATOM     23  C   UNL     1       2.333   4.176   0.102  0.00  0.00    +0.052 C 
ATOM     24 BR   UNL     1       2.346   6.061   0.254  0.00  0.00    -0.059 Br
ENDBRANCH   2  22
TORSDOF 6
