REMARK  Name = ZINC48445697
REMARK  9 active torsions:
REMARK  status: ('A' for Active; 'I' for Inactive)
REMARK    1  A    between atoms: C_1  and  C_2
REMARK    2  A    between atoms: C_4  and  C_20
REMARK    3  A    between atoms: C_6  and  S_9
REMARK    4  A    between atoms: C_7  and  C_8
REMARK    5  A    between atoms: S_9  and  N_12
REMARK    6  A    between atoms: N_12  and  C_13
REMARK    7  A    between atoms: C_13  and  C_15
REMARK    8  A    between atoms: C_13  and  C_16
REMARK    9  A    between atoms: N_18  and  C_19
REMARK                            x       y       z     vdW  Elec       q    Type
REMARK                         _______ _______ _______ _____ _____    ______ ____
ROOT
ATOM      1  S   UNL     1      -0.015  -2.856   2.481  0.00  0.00    +0.059 S 
ATOM      2  O   UNL     1      -1.067  -2.240   3.212  0.00  0.00    -0.153 OA
ATOM      3  O   UNL     1      -0.004  -4.247   2.190  0.00  0.00    -0.153 OA
ENDROOT
BRANCH   1   9
ATOM      4  C   UNL     1       2.229  -2.083  -2.175  0.00  0.00    +0.044 C 
ATOM      5  C   UNL     1       1.152  -1.705  -1.192  0.00  0.00    -0.045 A 
ATOM      6  C   UNL     1       0.252  -0.708  -1.507  0.00  0.00    +0.018 A 
ATOM      7  C   UNL     1      -0.746  -0.359  -0.594  0.00  0.00    +0.065 A 
ATOM      8  C   UNL     1      -0.825  -1.023   0.633  0.00  0.00    +0.044 A 
ATOM      9  C   UNL     1       0.082  -2.017   0.934  0.00  0.00    +0.109 A 
ATOM     10  C   UNL     1       1.065  -2.362   0.023  0.00  0.00    -0.021 A 
ATOM     11  C   UNL     1       2.048  -3.454   0.357  0.00  0.00    +0.046 C 
BRANCH   7  12
ATOM     12  C   UNL     1      -1.712   0.707  -0.923  0.00  0.00    +0.387 C 
ATOM     13  O   UNL     1      -1.640   1.286  -1.998  0.00  0.00    -0.241 OA
ATOM     14  O   UNL     1      -2.584   1.010  -0.122  0.00  0.00    -0.241 OA
ENDBRANCH   7  12
ENDBRANCH   1   9
BRANCH   1  15
ATOM     15  N   UNL     1       1.385  -2.533   3.302  0.00  0.00    -0.178 NA
ATOM     16  H   UNL     1       2.011  -3.249   3.496  0.00  0.00    +0.149 HD
BRANCH  15  17
ATOM     17  C   UNL     1       1.680  -1.165   3.737  0.00  0.00    +0.159 C 
ATOM     18  C   UNL     1       1.218  -0.979   5.184  0.00  0.00    +0.035 C 
BRANCH  17  19
ATOM     19  C   UNL     1       3.164  -0.919   3.649  0.00  0.00    +0.231 C 
ATOM     20  O   UNL     1       3.903  -1.799   3.260  0.00  0.00    -0.274 OA
ATOM     21  N   UNL     1       3.671   0.279   4.001  0.00  0.00    -0.317 N 
ATOM     22  C   UNL     1       5.114   0.519   3.914  0.00  0.00    +0.128 C 
ATOM     23  H   UNL     1       3.080   0.983   4.311  0.00  0.00    +0.148 HD
ENDBRANCH  17  19
ENDBRANCH  15  17
ENDBRANCH   1  15
TORSDOF 5
