REMARK  Name = ZINC07203978
REMARK  7 active torsions:
REMARK  status: ('A' for Active; 'I' for Inactive)
REMARK    1  A    between atoms: C_1  and  C_2
REMARK    2  A    between atoms: C_2  and  C_4
REMARK    3  A    between atoms: C_2  and  O_15
REMARK    4  A    between atoms: N_9  and  C_10
REMARK    5  A    between atoms: O_15  and  C_16
REMARK    6  A    between atoms: C_16  and  C_18
REMARK    7  A    between atoms: C_23  and  N_24
REMARK                            x       y       z     vdW  Elec       q    Type
REMARK                         _______ _______ _______ _____ _____    ______ ____
ROOT
ATOM      1  C   UNL     1       9.366   3.562  -1.239  0.00  0.00    +0.062 C 
ATOM      2  C   UNL     1       8.765   2.912   0.009  0.00  0.00    +0.259 C 
ENDROOT
BRANCH   2   3
ATOM      3  C   UNL     1       7.311   3.293   0.122  0.00  0.00    +0.261 C 
ATOM      4  O   UNL     1       6.933   3.970   1.054  0.00  0.00    -0.271 OA
ATOM      5  N   UNL     1       6.431   2.881  -0.811  0.00  0.00    -0.237 N 
ATOM      6  C   UNL     1       5.131   3.222  -0.710  0.00  0.00    +0.306 C 
ATOM      7  O   UNL     1       4.752   3.901   0.224  0.00  0.00    -0.252 OA
ATOM      8  N   UNL     1       4.252   2.809  -1.644  0.00  0.00    -0.296 N 
ATOM      9  H   UNL     1       6.734   2.339  -1.557  0.00  0.00    +0.159 HD
ATOM     10  H   UNL     1       4.554   2.268  -2.389  0.00  0.00    +0.151 HD
BRANCH   8  11
ATOM     11  C   UNL     1       2.838   3.180  -1.533  0.00  0.00    +0.074 C 
ATOM     12  C   UNL     1       2.555   4.497  -2.296  0.00  0.00    +0.022 C 
ATOM     13  C   UNL     1       1.047   4.433  -2.615  0.00  0.00    +0.002 C 
ATOM     14  C   UNL     1       0.658   2.944  -2.601  0.00  0.00    +0.002 C 
ATOM     15  C   UNL     1       1.943   2.156  -2.274  0.00  0.00    +0.022 C 
ENDBRANCH   8  11
ENDBRANCH   2   3
BRANCH   2  16
ATOM     16  O   UNL     1       9.479   3.372   1.186  0.00  0.00    -0.449 OA
BRANCH  16  17
ATOM     17  C   UNL     1      10.548   2.648   1.575  0.00  0.00    +0.342 C 
ATOM     18  O   UNL     1      10.874   1.660   0.946  0.00  0.00    -0.245 OA
BRANCH  17  19
ATOM     19  C   UNL     1      11.321   3.055   2.760  0.00  0.00    +0.081 A 
ATOM     20  C   UNL     1      10.880   4.115   3.558  0.00  0.00    +0.032 A 
ATOM     21  C   UNL     1      11.606   4.487   4.669  0.00  0.00    +0.019 A 
ATOM     22  C   UNL     1      12.778   3.821   4.995  0.00  0.00    +0.017 A 
ATOM     23  C   UNL     1      13.228   2.776   4.216  0.00  0.00    +0.024 A 
ATOM     24  C   UNL     1      12.508   2.383   3.094  0.00  0.00    +0.039 A 
ATOM     25 BR   UNL     1      11.004   5.918   5.749  0.00  0.00    -0.050 Br
BRANCH  24  26
ATOM     26  N   UNL     1      12.960   1.332   2.307  0.00  0.00    -0.357 N 
ATOM     27  H   UNL     1      12.677   1.262   1.382  0.00  0.00    +0.142 HD
ATOM     28  H   UNL     1      13.560   0.668   2.683  0.00  0.00    +0.142 HD
ENDBRANCH  24  26
ENDBRANCH  17  19
ENDBRANCH  16  17
ENDBRANCH   2  16
TORSDOF 6
