REMARK  Name = ZINC24766875
REMARK  6 active torsions:
REMARK  status: ('A' for Active; 'I' for Inactive)
REMARK    1  A    between atoms: C_1  and  C_2
REMARK    2  A    between atoms: C_2  and  C_3
REMARK    3  A    between atoms: C_2  and  C_4
REMARK    4  A    between atoms: C_8  and  N_10
REMARK    5  A    between atoms: C_11  and  C_13
REMARK    6  A    between atoms: C_13  and  N_14
REMARK                            x       y       z     vdW  Elec       q    Type
REMARK                         _______ _______ _______ _____ _____    ______ ____
ROOT
ATOM      1  N   UNL     1       0.307  -2.930   8.451  0.00  0.00    -0.215 N 
ATOM      2  C   UNL     1       1.136  -3.996   8.328  0.00  0.00    +0.251 C 
ATOM      3  O   UNL     1       1.234  -4.656   7.317  0.00  0.00    -0.272 OA
ATOM      4  C   UNL     1       1.839  -4.127   9.647  0.00  0.00    +0.138 C 
ATOM      5  C   UNL     1       3.367  -4.085   9.519  0.00  0.00    +0.040 C 
ATOM      6  C   UNL     1       3.807  -4.819   8.259  0.00  0.00    +0.003 C 
ATOM      7  C   UNL     1       3.752  -6.328   8.435  0.00  0.00    +0.005 C 
ATOM      8  C   UNL     1       2.325  -6.855   8.495  0.00  0.00    +0.035 C 
ATOM      9  C   UNL     1       1.704  -6.629   9.855  0.00  0.00    -0.042 A 
ATOM     10  C   UNL     1       1.461  -5.388  10.380  0.00  0.00    -0.012 A 
ATOM     11  C   UNL     1       0.853  -5.263  11.623  0.00  0.00    +0.006 A 
ATOM     12  C   UNL     1       0.505  -6.389  12.343  0.00  0.00    +0.000 A 
ATOM     13  C   UNL     1       0.765  -7.643  11.824  0.00  0.00    +0.000 A 
ATOM     14  C   UNL     1       1.365  -7.763  10.587  0.00  0.00    +0.004 A 
ATOM     15  N   UNL     1       1.405  -2.922  10.381  0.00  0.00    -0.281 N 
ATOM     16  C   UNL     1       0.475  -2.315   9.625  0.00  0.00    +0.310 C 
ATOM     17  O   UNL     1      -0.141  -1.324   9.967  0.00  0.00    -0.252 OA
ATOM     18  H   UNL     1       1.846  -2.685  11.360  0.00  0.00    +0.152 HD
ENDROOT
BRANCH   1  19
ATOM     19  C   UNL     1      -0.637  -2.504   7.416  0.00  0.00    +0.214 C 
BRANCH  19  21
ATOM     20  N   UNL     1      -0.638  -1.006   5.448  0.00  0.00    -0.284 N 
ATOM     21  C   UNL     1       0.043  -1.534   6.484  0.00  0.00    +0.235 C 
ATOM     22  O   UNL     1       1.202  -1.228   6.668  0.00  0.00    -0.274 OA
ATOM     23  H   UNL     1      -1.712  -1.215   5.331  0.00  0.00    +0.155 HD
BRANCH  20  28
ATOM     24  C   UNL     1       2.000   0.368   3.285  0.00  0.00    -0.043 A 
ATOM     25  C   UNL     1       1.327   1.419   2.688  0.00  0.00    +0.004 A 
ATOM     26  C   UNL     1       0.002   1.661   2.998  0.00  0.00    +0.002 A 
ATOM     27  C   UNL     1      -0.652   0.860   3.914  0.00  0.00    +0.023 A 
ATOM     28  C   UNL     1       0.022  -0.193   4.520  0.00  0.00    +0.034 A 
ATOM     29  C   UNL     1       1.352  -0.436   4.202  0.00  0.00    +0.027 A 
BRANCH  24  31
ATOM     30  C   UNL     1       4.283   1.335   3.289  0.00  0.00    +0.012 C 
ATOM     31  C   UNL     1       3.443   0.105   2.940  0.00  0.00    +0.013 C 
ATOM     32  C   UNL     1       3.564  -0.188   1.444  0.00  0.00    +0.012 C 
ENDBRANCH  24  31
ENDBRANCH  20  28
ENDBRANCH  19  21
ENDBRANCH   1  19
TORSDOF 4
