REMARK  Name = ZINC62899451
REMARK  7 active torsions:
REMARK  status: ('A' for Active; 'I' for Inactive)
REMARK    1  A    between atoms: C_1  and  C_2
REMARK    2  A    between atoms: C_2  and  C_3
REMARK    3  A    between atoms: C_3  and  C_8
REMARK    4  A    between atoms: N_10  and  C_11
REMARK    5  A    between atoms: C_14  and  C_21
REMARK    6  A    between atoms: C_15  and  S_17
REMARK    7  A    between atoms: S_17  and  N_20
REMARK                            x       y       z     vdW  Elec       q    Type
REMARK                         _______ _______ _______ _____ _____    ______ ____
ROOT
ATOM      1  C   UNL     1       2.086   0.221  -0.585  0.00  0.00    +0.221 C 
ATOM      2  O   UNL     1       2.962  -0.511  -0.176  0.00  0.00    -0.275 OA
ATOM      3  N   UNL     1       2.383   1.476  -0.975  0.00  0.00    -0.285 N 
ATOM      4  H   UNL     1       1.698   2.036  -1.372  0.00  0.00    +0.155 HD
ENDROOT
BRANCH   1   5
ATOM      5  C   UNL     1       0.664  -0.273  -0.656  0.00  0.00    +0.030 C 
ATOM      6  C   UNL     1       0.211  -0.402  -2.129  0.00  0.00    -0.005 C 
ATOM      7  C   UNL     1       0.438  -1.905  -2.430  0.00  0.00    -0.082 C 
ATOM      8  N   UNL     1       0.052  -2.568  -1.158  0.00  0.00    +0.380 N 
ATOM      9  C   UNL     1       0.563  -1.696  -0.078  0.00  0.00    -0.067 C 
ATOM     10  H   UNL     1      -0.952  -2.647  -1.097  0.00  0.00    -0.086 HD
ATOM     11  H   UNL     1       0.478  -3.481  -1.099  0.00  0.00    -0.086 HD
BRANCH   5  13
ATOM     12  C   UNL     1       0.213   0.809   1.551  0.00  0.00    +0.005 C 
ATOM     13  C   UNL     1      -0.266   0.676   0.103  0.00  0.00    +0.011 C 
ENDBRANCH   5  13
ENDBRANCH   1   5
BRANCH   3  14
ATOM     14  C   UNL     1       3.681   1.972  -0.807  0.00  0.00    +0.035 A 
ATOM     15  C   UNL     1       4.774   1.129  -0.966  0.00  0.00    +0.023 A 
ATOM     16  C   UNL     1       6.053   1.621  -0.800  0.00  0.00    +0.007 A 
ATOM     17  C   UNL     1       6.247   2.952  -0.475  0.00  0.00    -0.024 A 
ATOM     18  C   UNL     1       5.162   3.793  -0.316  0.00  0.00    +0.110 A 
ATOM     19  C   UNL     1       3.880   3.308  -0.487  0.00  0.00    +0.052 A 
ATOM     20  C   UNL     1       7.645   3.485  -0.294  0.00  0.00    +0.046 C 
BRANCH  18  21
ATOM     21  S   UNL     1       5.415   5.487   0.098  0.00  0.00    +0.056 S 
ATOM     22  O   UNL     1       6.397   5.983  -0.801  0.00  0.00    -0.153 OA
ATOM     23  O   UNL     1       4.125   6.073   0.216  0.00  0.00    -0.153 OA
BRANCH  21  24
ATOM     24  N   UNL     1       6.092   5.526   1.608  0.00  0.00    -0.204 NA
ATOM     25  H   UNL     1       6.691   6.249   1.853  0.00  0.00    +0.144 HD
ATOM     26  H   UNL     1       5.891   4.825   2.249  0.00  0.00    +0.144 HD
ENDBRANCH  21  24
ENDBRANCH  18  21
ENDBRANCH   3  14
TORSDOF 5
