REMARK  Name = ZINC62804405
REMARK  6 active torsions:
REMARK  status: ('A' for Active; 'I' for Inactive)
REMARK    1  A    between atoms: C_1  and  C_2
REMARK    2  A    between atoms: C_2  and  C_4
REMARK    3  A    between atoms: C_2  and  O_10
REMARK    4  A    between atoms: O_10  and  C_11
REMARK    5  A    between atoms: C_19  and  N_21
REMARK    6  A    between atoms: N_21  and  C_22
REMARK                            x       y       z     vdW  Elec       q    Type
REMARK                         _______ _______ _______ _____ _____    ______ ____
ROOT
ATOM      1  C   UNL     1      -0.031  -0.600   2.303  0.00  0.00    +0.125 A 
ATOM      2  C   UNL     1      -1.400  -0.375   2.282  0.00  0.00    +0.046 A 
ATOM      3  C   UNL     1      -2.134  -0.505   3.447  0.00  0.00    +0.009 A 
ATOM      4  C   UNL     1      -1.506  -0.853   4.623  0.00  0.00    -0.016 A 
ATOM      5  C   UNL     1      -0.134  -1.073   4.661  0.00  0.00    +0.126 A 
ATOM      6  C   UNL     1       0.600  -0.953   3.484  0.00  0.00    +0.091 A 
ATOM      7  O   UNL     1       0.281  -1.383   5.920  0.00  0.00    -0.493 OA
ATOM      8  C   UNL     1      -0.848  -1.819   6.696  0.00  0.00    +0.218 C 
ATOM      9  C   UNL     1      -2.030  -1.078   6.028  0.00  0.00    +0.000 C 
ENDROOT
BRANCH   9  10
ATOM     10  N   UNL     1      -2.295   0.201   6.700  0.00  0.00    +0.384 N 
ATOM     11  C   UNL     1      -2.913  -0.052   8.009  0.00  0.00    -0.099 C 
ATOM     12  H   UNL     1      -1.428   0.700   6.828  0.00  0.00    -0.085 HD
ATOM     13  H   UNL     1      -2.921   0.755   6.135  0.00  0.00    -0.085 HD
ENDBRANCH   9  10
BRANCH   1  14
ATOM     14  O   UNL     1       0.693  -0.477   1.160  0.00  0.00    -0.480 OA
BRANCH  14  16
ATOM     15  C   UNL     1      -0.292   1.273  -0.184  0.00  0.00    +0.062 C 
ATOM     16  C   UNL     1      -0.034  -0.229  -0.045  0.00  0.00    +0.256 C 
BRANCH  16  17
ATOM     17  C   UNL     1       0.769  -0.712  -1.225  0.00  0.00    +0.261 C 
ATOM     18  O   UNL     1       1.893  -1.136  -1.061  0.00  0.00    -0.271 OA
ATOM     19  N   UNL     1       0.237  -0.673  -2.463  0.00  0.00    -0.237 N 
ATOM     20  C   UNL     1       0.955  -1.106  -3.519  0.00  0.00    +0.303 C 
ATOM     21  O   UNL     1       2.082  -1.530  -3.354  0.00  0.00    -0.253 OA
ATOM     22  N   UNL     1       0.423  -1.067  -4.756  0.00  0.00    -0.313 N 
ATOM     23  H   UNL     1      -0.662  -0.335  -2.594  0.00  0.00    +0.159 HD
ATOM     24  H   UNL     1      -0.476  -0.728  -4.888  0.00  0.00    +0.146 HD
ATOM     25  H   UNL     1       0.940  -1.378  -5.516  0.00  0.00    +0.146 HD
ENDBRANCH  16  17
ENDBRANCH  14  16
ENDBRANCH   1  14
TORSDOF 4
