REMARK  Name = ZINC10035286
REMARK  8 active torsions:
REMARK  status: ('A' for Active; 'I' for Inactive)
REMARK    1  A    between atoms: C_1  and  C_2
REMARK    2  A    between atoms: C_10  and  C_21
REMARK    3  A    between atoms: C_16  and  N_20
REMARK    4  A    between atoms: C_17  and  C_18
REMARK    5  A    between atoms: C_25  and  C_35
REMARK    6  A    between atoms: C_25  and  C_36
REMARK    7  A    between atoms: C_27  and  C_28
REMARK    8  A    between atoms: C_27  and  C_29
REMARK                            x       y       z     vdW  Elec       q    Type
REMARK                         _______ _______ _______ _____ _____    ______ ____
ROOT
ATOM      1  C   UNL     1      -0.064   1.397   0.149  0.00  0.00    +0.044 C 
ATOM      2  C   UNL     1       0.070  -0.103   0.091  0.00  0.00    -0.050 A 
ATOM      3  C   UNL     1       0.000  -0.733  -1.143  0.00  0.00    +0.009 A 
ATOM      4  C   UNL     1       0.116  -2.099  -1.241  0.00  0.00    -0.015 A 
ATOM      5  C   UNL     1       0.303  -2.802  -0.051  0.00  0.00    +0.046 A 
ATOM      6  C   UNL     1       0.375  -2.176   1.187  0.00  0.00    -0.001 A 
ATOM      7  C   UNL     1       0.264  -0.805   1.279  0.00  0.00    +0.010 A 
ATOM      8  C   UNL     1       0.578  -3.280   2.170  0.00  0.00    +0.145 C 
ATOM      9  C   UNL     1      -0.546  -3.345   3.164  0.00  0.00    +0.061 A 
ATOM     10  C   UNL     1      -1.877  -3.694   2.978  0.00  0.00    +0.068 A 
ATOM     11  N   UNL     1      -2.488  -3.605   4.135  0.00  0.00    -0.176 NA
ATOM     12  N   UNL     1      -1.555  -3.193   5.099  0.00  0.00    -0.246 N 
ATOM     13  H   UNL     1      -1.734  -3.047   6.041  0.00  0.00    +0.192 HD
ATOM     14  C   UNL     1      -0.370  -3.039   4.487  0.00  0.00    +0.223 A 
ATOM     15  O   UNL     1       0.827  -2.657   4.995  0.00  0.00    -0.423 OA
ATOM     16  C   UNL     1       1.924  -2.834   4.230  0.00  0.00    +0.201 C 
ATOM     17  C   UNL     1       1.879  -3.127   2.909  0.00  0.00    +0.110 C 
ATOM     18  C   UNL     1      -2.509  -4.103   1.672  0.00  0.00    +0.068 C 
ATOM     19  C   UNL     1       0.605  -4.547   1.332  0.00  0.00    +0.241 C 
ATOM     20  O   UNL     1       0.753  -5.678   1.744  0.00  0.00    -0.273 OA
ATOM     21  N   UNL     1       0.436  -4.184   0.050  0.00  0.00    -0.264 N 
ATOM     22  C   UNL     1       0.378  -5.025  -1.158  0.00  0.00    +0.038 C 
ATOM     23  C   UNL     1      -0.472  -4.304  -2.210  0.00  0.00    +0.041 C 
ATOM     24  C   UNL     1       0.063  -2.899  -2.509  0.00  0.00    +0.022 C 
ATOM     25  C   UNL     1       1.469  -3.005  -3.103  0.00  0.00    +0.021 C 
ATOM     26  C   UNL     1      -0.259  -6.374  -0.817  0.00  0.00    +0.032 C 
ATOM     27  C   UNL     1       1.792  -5.245  -1.700  0.00  0.00    +0.032 C 
ENDROOT
BRANCH  24  28
ATOM     28  C   UNL     1      -0.848  -2.216  -3.496  0.00  0.00    -0.037 A 
ATOM     29  C   UNL     1      -0.392  -1.920  -4.767  0.00  0.00    +0.004 A 
ATOM     30  C   UNL     1      -1.227  -1.293  -5.672  0.00  0.00    +0.000 A 
ATOM     31  C   UNL     1      -2.519  -0.962  -5.307  0.00  0.00    +0.000 A 
ATOM     32  C   UNL     1      -2.975  -1.258  -4.036  0.00  0.00    +0.000 A 
ATOM     33  C   UNL     1      -2.141  -1.889  -3.132  0.00  0.00    +0.004 A 
ENDBRANCH  24  28
BRANCH  16  34
ATOM     34  N   UNL     1       3.155  -2.709   4.824  0.00  0.00    -0.328 N 
ATOM     35  H   UNL     1       3.219  -2.500   5.769  0.00  0.00    +0.145 HD
ATOM     36  H   UNL     1       3.962  -2.831   4.299  0.00  0.00    +0.145 HD
ENDBRANCH  16  34
BRANCH  17  37
ATOM     37  C   UNL     1       3.108  -3.295   2.194  0.00  0.00    +0.102 C 
ATOM     38  N   UNL     1       4.083  -3.428   1.626  0.00  0.00    -0.191 NA
ENDBRANCH  17  37
TORSDOF 3
