REMARK  Name = ZINC10125418
REMARK  9 active torsions:
REMARK  status: ('A' for Active; 'I' for Inactive)
REMARK    1  A    between atoms: C_4  and  C_7
REMARK    2  A    between atoms: C_7  and  C_9
REMARK    3  A    between atoms: C_7  and  O_12
REMARK    4  A    between atoms: O_12  and  C_13
REMARK    5  A    between atoms: C_13  and  C_15
REMARK    6  A    between atoms: C_15  and  N_16
REMARK    7  A    between atoms: C_17  and  C_19
REMARK    8  A    between atoms: C_19  and  N_20
REMARK    9  A    between atoms: C_21  and  C_23
REMARK                            x       y       z     vdW  Elec       q    Type
REMARK                         _______ _______ _______ _____ _____    ______ ____
ROOT
ATOM      1  N   UNL     1       2.497   7.141  -2.927  0.00  0.00    -0.304 N 
ATOM      2  C   UNL     1       3.255   7.851  -3.787  0.00  0.00    +0.231 C 
ATOM      3  O   UNL     1       4.338   7.428  -4.132  0.00  0.00    -0.274 OA
ATOM      4  H   UNL     1       1.631   7.480  -2.651  0.00  0.00    +0.149 HD
ENDROOT
BRANCH   1   5
ATOM      5  C   UNL     1       2.982   5.860  -2.409  0.00  0.00    +0.225 C 
BRANCH   5   6
ATOM      6  C   UNL     1       1.954   5.275  -1.475  0.00  0.00    +0.325 C 
ATOM      7  O   UNL     1       0.923   5.868  -1.263  0.00  0.00    -0.249 OA
BRANCH   6   8
ATOM      8  O   UNL     1       2.184   4.095  -0.877  0.00  0.00    -0.446 OA
BRANCH   8   9
ATOM      9  C   UNL     1       1.151   3.592   0.010  0.00  0.00    +0.292 C 
BRANCH   9  13
ATOM     10  C   UNL     1       1.208  -0.679  -0.014  0.00  0.00    +0.000 A 
ATOM     11  C   UNL     1       0.002  -0.004   0.002  0.00  0.00    +0.000 A 
ATOM     12  C   UNL     1      -0.017   1.378   0.010  0.00  0.00    +0.008 A 
ATOM     13  C   UNL     1       1.171   2.086   0.002  0.00  0.00    +0.002 A 
ATOM     14  C   UNL     1       2.377   1.411  -0.014  0.00  0.00    +0.008 A 
ATOM     15  C   UNL     1       2.396   0.029  -0.021  0.00  0.00    +0.000 A 
ENDBRANCH   9  13
BRANCH   9  16
ATOM     16  C   UNL     1       1.403   4.091   1.409  0.00  0.00    +0.256 C 
ATOM     17  O   UNL     1       2.408   4.724   1.655  0.00  0.00    -0.272 OA
ATOM     18  N   UNL     1       0.513   3.833   2.388  0.00  0.00    -0.326 N 
ATOM     19  H   UNL     1      -0.291   3.327   2.191  0.00  0.00    +0.145 HD
ATOM     20  H   UNL     1       0.676   4.154   3.289  0.00  0.00    +0.145 HD
ENDBRANCH   9  16
ENDBRANCH   8   9
ENDBRANCH   6   8
ENDBRANCH   5   6
ENDBRANCH   1   5
BRANCH   2  21
ATOM     21  C   UNL     1       2.756   9.169  -4.320  0.00  0.00    +0.200 C 
BRANCH  21  22
ATOM     22  N   UNL     1       3.755   9.738  -5.228  0.00  0.00    -0.303 N 
ATOM     23  C   UNL     1       3.524  10.922  -5.828  0.00  0.00    +0.246 C 
ATOM     24  O   UNL     1       2.486  11.519  -5.615  0.00  0.00    -0.270 OA
ATOM     25  H   UNL     1       4.583   9.262  -5.398  0.00  0.00    +0.150 HD
BRANCH  23  26
ATOM     26  C   UNL     1       4.531  11.496  -6.744  0.00  0.00    +0.055 A 
ATOM     27  C   UNL     1       5.724  10.813  -6.990  0.00  0.00    +0.016 A 
ATOM     28  C   UNL     1       6.660  11.352  -7.846  0.00  0.00    +0.021 A 
ATOM     29  C   UNL     1       6.420  12.570  -8.462  0.00  0.00    +0.042 A 
ATOM     30  C   UNL     1       5.240  13.253  -8.223  0.00  0.00    +0.040 A 
ATOM     31  C   UNL     1       4.292  12.721  -7.372  0.00  0.00    +0.054 A 
ATOM     32 CL   UNL     1       2.809  13.574  -7.078  0.00  0.00    -0.083 Cl
ATOM     33 CL   UNL     1       7.605  13.243  -9.538  0.00  0.00    -0.083 Cl
ENDBRANCH  23  26
ENDBRANCH  21  22
ENDBRANCH   2  21
TORSDOF 9
