REMARK  Name = ZINC15082941
REMARK  4 active torsions:
REMARK  status: ('A' for Active; 'I' for Inactive)
REMARK    1  A    between atoms: C_1  and  N_2
REMARK    2  A    between atoms: C_14  and  C_22
REMARK    3  A    between atoms: C_16  and  C_20
REMARK    4  A    between atoms: C_17  and  N_19
REMARK                            x       y       z     vdW  Elec       q    Type
REMARK                         _______ _______ _______ _____ _____    ______ ____
ROOT
ATOM      1  C   UNL     1       4.575   5.883  -0.009  0.00  0.00    +0.127 C 
ATOM      2  N   UNL     1       3.176   6.319   0.006  0.00  0.00    -0.326 N 
ATOM      3  C   UNL     1       2.164   5.385   0.010  0.00  0.00    +0.161 A 
ATOM      4  N   UNL     1       2.258   4.069   0.002  0.00  0.00    -0.207 NA
ATOM      5  C   UNL     1       1.188   3.276   0.008  0.00  0.00    +0.154 A 
ATOM      6  C   UNL     1      -0.043   3.941   0.023  0.00  0.00    +0.100 A 
ATOM      7  S   UNL     1       0.447   5.647   0.028  0.00  0.00    -0.047 S 
ATOM      8  C   UNL     1      -1.259   3.266   0.032  0.00  0.00    +0.157 A 
ATOM      9  C   UNL     1      -1.244   1.880   0.018  0.00  0.00    +0.073 A 
ATOM     10  C   UNL     1      -0.015   1.217   0.009  0.00  0.00    +0.258 A 
ATOM     11  O   UNL     1       0.002  -0.004   0.002  0.00  0.00    -0.267 OA
ATOM     12  N   UNL     1       1.147   1.885   0.001  0.00  0.00    -0.306 N 
ATOM     13  H   UNL     1       1.980   1.387  -0.009  0.00  0.00    +0.170 HD
ATOM     14  C   UNL     1      -2.527   1.097   0.020  0.00  0.00    +0.110 C 
ATOM     15  C   UNL     1      -3.677   1.984  -0.371  0.00  0.00    +0.099 C 
ATOM     16  C   UNL     1      -3.564   3.333  -0.342  0.00  0.00    +0.199 C 
ATOM     17  O   UNL     1      -2.428   3.943   0.047  0.00  0.00    -0.440 OA
ATOM     18  H   UNL     1       2.963   7.265   0.013  0.00  0.00    +0.148 HD
ENDROOT
BRANCH  14  19
ATOM     19  C   UNL     1      -2.771   0.543   1.400  0.00  0.00    +0.003 A 
ATOM     20  C   UNL     1      -2.901  -0.748   1.791  0.00  0.00    +0.012 A 
ATOM     21  C   UNL     1      -3.120  -1.026   3.127  0.00  0.00    +0.008 A 
ATOM     22  C   UNL     1      -3.209   0.002   4.006  0.00  0.00    +0.045 A 
ATOM     23  S   UNL     1      -2.973   1.417   2.944  0.00  0.00    -0.101 S 
ENDBRANCH  14  19
BRANCH  16  24
ATOM     24  N   UNL     1      -4.641   4.099  -0.709  0.00  0.00    -0.328 N 
ATOM     25  H   UNL     1      -5.468   3.673  -0.984  0.00  0.00    +0.145 HD
ATOM     26  H   UNL     1      -4.576   5.067  -0.693  0.00  0.00    +0.145 HD
ENDBRANCH  16  24
BRANCH  15  27
ATOM     27  C   UNL     1      -4.913   1.391  -0.783  0.00  0.00    +0.101 C 
ATOM     28  N   UNL     1      -5.894   0.920  -1.110  0.00  0.00    -0.191 NA
ENDBRANCH  15  27
TORSDOF 3
