REMARK  Name = ZINC66405575
REMARK  8 active torsions:
REMARK  status: ('A' for Active; 'I' for Inactive)
REMARK    1  A    between atoms: C_1  and  C_2
REMARK    2  A    between atoms: C_7  and  C_8
REMARK    3  A    between atoms: C_8  and  C_10
REMARK    4  A    between atoms: C_8  and  N_12
REMARK    5  A    between atoms: C_13  and  C_15
REMARK    6  A    between atoms: C_15  and  N_16
REMARK    7  A    between atoms: N_19  and  C_20
REMARK    8  A    between atoms: C_20  and  C_21
REMARK                            x       y       z     vdW  Elec       q    Type
REMARK                         _______ _______ _______ _____ _____    ______ ____
ROOT
ATOM      1  C   UNL     1       1.822  -1.083   5.691  0.00  0.00    +0.201 C 
ENDROOT
BRANCH   1   2
ATOM      2  N   UNL     1       2.368  -0.230   6.750  0.00  0.00    -0.291 N 
ATOM      3  C   UNL     1       2.976  -0.786   7.816  0.00  0.00    +0.300 C 
ATOM      4  O   UNL     1       3.072  -1.995   7.899  0.00  0.00    -0.253 OA
ATOM      5  N   UNL     1       3.478  -0.001   8.790  0.00  0.00    -0.295 N 
ATOM      6  H   UNL     1       2.291   0.735   6.683  0.00  0.00    +0.151 HD
ATOM      7  H   UNL     1       3.402   0.964   8.723  0.00  0.00    +0.151 HD
BRANCH   5   8
ATOM      8  C   UNL     1       4.140  -0.605   9.949  0.00  0.00    +0.141 C 
BRANCH   8   9
ATOM      9  C   UNL     1       4.608   0.481  10.883  0.00  0.00    -0.030 A 
ATOM     10  C   UNL     1       5.869   1.027  10.732  0.00  0.00    +0.006 A 
ATOM     11  C   UNL     1       6.298   2.023  11.588  0.00  0.00    +0.020 A 
ATOM     12  C   UNL     1       5.466   2.474  12.597  0.00  0.00    +0.041 A 
ATOM     13  C   UNL     1       4.204   1.928  12.748  0.00  0.00    +0.020 A 
ATOM     14  C   UNL     1       3.773   0.936  11.887  0.00  0.00    +0.006 A 
ATOM     15 CL   UNL     1       6.005   3.725  13.673  0.00  0.00    -0.084 Cl
ENDBRANCH   8   9
ENDBRANCH   5   8
ENDBRANCH   1   2
BRANCH   1  17
ATOM     16  N   UNL     1       0.630  -0.793   3.543  0.00  0.00    -0.295 N 
ATOM     17  C   UNL     1       1.199  -0.221   4.623  0.00  0.00    +0.231 C 
ATOM     18  O   UNL     1       1.211   0.986   4.735  0.00  0.00    -0.274 OA
ATOM     19  H   UNL     1       0.621  -1.758   3.453  0.00  0.00    +0.150 HD
BRANCH  16  20
ATOM     20  C   UNL     1       0.025   0.045   2.504  0.00  0.00    +0.207 C 
BRANCH  20  27
ATOM     21  C   UNL     1      -0.018   1.503   0.010  0.00  0.00    +0.044 C 
ATOM     22  C   UNL     1       0.002  -0.004   0.002  0.00  0.00    -0.045 A 
ATOM     23  C   UNL     1       0.006  -0.689  -1.199  0.00  0.00    +0.004 A 
ATOM     24  C   UNL     1       0.025  -2.071  -1.207  0.00  0.00    +0.000 A 
ATOM     25  C   UNL     1       0.040  -2.768  -0.013  0.00  0.00    +0.000 A 
ATOM     26  C   UNL     1       0.037  -2.084   1.188  0.00  0.00    +0.007 A 
ATOM     27  C   UNL     1       0.023  -0.702   1.195  0.00  0.00    -0.010 A 
ENDBRANCH  20  27
BRANCH  20  28
ATOM     28  C   UNL     1      -1.358   0.374   2.884  0.00  0.00    +0.090 C 
ATOM     29  N   UNL     1      -2.426   0.628   3.177  0.00  0.00    -0.194 NA
ENDBRANCH  20  28
ENDBRANCH  16  20
ENDBRANCH   1  17
TORSDOF 7
