REMARK  Name = ZINC12558182
REMARK  8 active torsions:
REMARK  status: ('A' for Active; 'I' for Inactive)
REMARK    1  A    between atoms: C_1  and  C_2
REMARK    2  A    between atoms: C_6  and  N_8
REMARK    3  A    between atoms: C_9  and  C_32
REMARK    4  A    between atoms: C_12  and  S_13
REMARK    5  A    between atoms: S_13  and  C_14
REMARK    6  A    between atoms: C_14  and  C_16
REMARK    7  A    between atoms: C_14  and  C_17
REMARK    8  A    between atoms: N_19  and  C_20
REMARK                            x       y       z     vdW  Elec       q    Type
REMARK                         _______ _______ _______ _____ _____    ______ ____
ROOT
ATOM      1  N   UNL     1      -0.099  -2.343   2.648  0.00  0.00    -0.270 N 
ATOM      2  C   UNL     1      -1.059  -3.240   3.061  0.00  0.00    +0.171 A 
ATOM      3  N   UNL     1      -0.585  -3.850   4.123  0.00  0.00    -0.128 NA
ATOM      4  N   UNL     1       0.588  -3.403   4.400  0.00  0.00    -0.122 NA
ATOM      5  C   UNL     1       0.940  -2.485   3.530  0.00  0.00    +0.197 A 
ENDROOT
BRANCH   2   6
ATOM      6  C   UNL     1      -2.373  -3.473   2.429  0.00  0.00    +0.045 A 
ATOM      7  C   UNL     1      -2.866  -2.849   1.328  0.00  0.00    +0.095 A 
ATOM      8  N   UNL     1      -4.112  -3.330   1.045  0.00  0.00    -0.360 N 
ATOM      9  H   UNL     1      -4.665  -3.037   0.304  0.00  0.00    +0.165 HD
ATOM     10  C   UNL     1      -4.471  -4.291   1.965  0.00  0.00    +0.047 A 
ATOM     11  C   UNL     1      -3.403  -4.431   2.867  0.00  0.00    +0.010 A 
ATOM     12  C   UNL     1      -3.487  -5.349   3.912  0.00  0.00    +0.011 A 
ATOM     13  C   UNL     1      -4.620  -6.120   4.052  0.00  0.00    +0.001 A 
ATOM     14  C   UNL     1      -5.674  -5.986   3.160  0.00  0.00    +0.002 A 
ATOM     15  C   UNL     1      -5.609  -5.076   2.127  0.00  0.00    +0.026 A 
ENDBRANCH   2   6
BRANCH   1  21
ATOM     16  C   UNL     1      -0.249   2.249   0.892  0.00  0.00    +0.044 C 
ATOM     17  C   UNL     1      -0.242   0.758   0.673  0.00  0.00    -0.048 A 
ATOM     18  C   UNL     1      -0.303   0.248  -0.611  0.00  0.00    +0.003 A 
ATOM     19  C   UNL     1      -0.297  -1.119  -0.816  0.00  0.00    +0.002 A 
ATOM     20  C   UNL     1      -0.229  -1.980   0.262  0.00  0.00    +0.026 A 
ATOM     21  C   UNL     1      -0.168  -1.472   1.552  0.00  0.00    +0.051 A 
ATOM     22  C   UNL     1      -0.169  -0.098   1.754  0.00  0.00    +0.029 A 
ENDBRANCH   1  21
BRANCH   5  23
ATOM     23  S   UNL     1       2.462  -1.598   3.504  0.00  0.00    -0.073 S 
BRANCH  23  24
ATOM     24  C   UNL     1       3.378  -2.257   4.925  0.00  0.00    +0.137 C 
ATOM     25  C   UNL     1       2.646  -1.893   6.218  0.00  0.00    +0.029 C 
BRANCH  24  26
ATOM     26  C   UNL     1       4.764  -1.665   4.948  0.00  0.00    +0.230 C 
ATOM     27  O   UNL     1       4.973  -0.592   4.423  0.00  0.00    -0.274 OA
ATOM     28  N   UNL     1       5.770  -2.327   5.552  0.00  0.00    -0.285 N 
ATOM     29  H   UNL     1       5.588  -3.147   6.038  0.00  0.00    +0.155 HD
BRANCH  28  30
ATOM     30  C   UNL     1       7.078  -1.831   5.479  0.00  0.00    +0.035 A 
ATOM     31  C   UNL     1       7.951  -2.017   6.545  0.00  0.00    +0.025 A 
ATOM     32  C   UNL     1       9.241  -1.531   6.479  0.00  0.00    +0.029 A 
ATOM     33  C   UNL     1       9.669  -0.855   5.346  0.00  0.00    +0.067 A 
ATOM     34  C   UNL     1       8.795  -0.667   4.274  0.00  0.00    +0.069 A 
ATOM     35  C   UNL     1       7.502  -1.161   4.341  0.00  0.00    +0.051 A 
ATOM     36  N   UNL     1       9.500   0.033   3.298  0.00  0.00    -0.306 N 
ATOM     37  H   UNL     1       9.152   0.309   2.435  0.00  0.00    +0.170 HD
ATOM     38  C   UNL     1      10.746   0.261   3.754  0.00  0.00    +0.325 A 
ATOM     39  O   UNL     1      11.618   0.850   3.145  0.00  0.00    -0.247 OA
ATOM     40  N   UNL     1      10.880  -0.263   4.988  0.00  0.00    -0.306 N 
ATOM     41  H   UNL     1      11.681  -0.232   5.533  0.00  0.00    +0.170 HD
ENDBRANCH  28  30
ENDBRANCH  24  26
ENDBRANCH  23  24
ENDBRANCH   5  23
TORSDOF 6
