REMARK  Name = ZINC16183854
REMARK  6 active torsions:
REMARK  status: ('A' for Active; 'I' for Inactive)
REMARK    1  A    between atoms: C_1  and  C_2
REMARK    2  A    between atoms: C_5  and  N_9
REMARK    3  A    between atoms: C_13  and  C_14
REMARK    4  A    between atoms: C_16  and  N_22
REMARK    5  A    between atoms: C_18  and  C_21
REMARK    6  A    between atoms: C_19  and  O_20
REMARK                            x       y       z     vdW  Elec       q    Type
REMARK                         _______ _______ _______ _____ _____    ______ ____
ROOT
ATOM      1  N   UNL     1      -0.916  -4.295   0.058  0.00  0.00    -0.184 N 
ATOM      2  C   UNL     1      -0.687  -5.061   1.141  0.00  0.00    +0.272 C 
ATOM      3  O   UNL     1      -0.819  -4.729   2.304  0.00  0.00    -0.268 OA
ATOM      4  C   UNL     1      -0.245  -6.379   0.647  0.00  0.00    +0.102 C 
ATOM      5  C   UNL     1       0.101  -7.483   1.398  0.00  0.00    +0.030 C 
ATOM      6  C   UNL     1      -0.255  -6.261  -0.824  0.00  0.00    +0.266 C 
ATOM      7  O   UNL     1       0.045  -7.128  -1.623  0.00  0.00    -0.268 OA
ATOM      8  N   UNL     1      -0.664  -5.011  -1.112  0.00  0.00    -0.223 N 
ATOM      9  H   UNL     1      -0.767  -4.657  -2.009  0.00  0.00    +0.174 HD
ENDROOT
BRANCH   1  14
ATOM     10  C   UNL     1      -2.687   1.092   0.226  0.00  0.00    +0.045 C 
ATOM     11  C   UNL     1      -2.216  -0.339   0.181  0.00  0.00    -0.032 A 
ATOM     12  C   UNL     1      -1.995  -0.955  -1.037  0.00  0.00    +0.006 A 
ATOM     13  C   UNL     1      -1.564  -2.266  -1.081  0.00  0.00    +0.025 A 
ATOM     14  C   UNL     1      -1.352  -2.967   0.100  0.00  0.00    +0.058 A 
ATOM     15  C   UNL     1      -1.575  -2.346   1.322  0.00  0.00    +0.045 A 
ATOM     16  C   UNL     1      -2.001  -1.032   1.360  0.00  0.00    +0.046 A 
ATOM     17 CL   UNL     1      -2.272  -0.251   2.886  0.00  0.00    -0.083 Cl
ENDBRANCH   1  14
BRANCH   5  18
ATOM     18  C   UNL     1       0.211  -7.374   2.853  0.00  0.00    +0.020 A 
ATOM     19  C   UNL     1       0.808  -6.245   3.433  0.00  0.00    +0.044 A 
ATOM     20  C   UNL     1       0.906  -6.150   4.803  0.00  0.00    +0.127 A 
ATOM     21  C   UNL     1       0.418  -7.164   5.612  0.00  0.00    +0.039 A 
ATOM     22  C   UNL     1      -0.173  -8.282   5.057  0.00  0.00    -0.006 A 
ATOM     23  C   UNL     1      -0.287  -8.397   3.680  0.00  0.00    +0.127 A 
ATOM     24  C   UNL     1      -0.699  -9.377   5.949  0.00  0.00    +0.047 C 
BRANCH  20  25
ATOM     25  N   UNL     1       1.536  -4.959   5.414  0.00  0.00    +0.056 N 
ATOM     26  O   UNL     1       1.963  -4.072   4.711  0.00  0.00    -0.126 OA
ATOM     27  O   UNL     1       1.625  -4.872   6.617  0.00  0.00    -0.126 OA
ENDBRANCH  20  25
BRANCH  23  28
ATOM     28  O   UNL     1      -0.872  -9.492   3.134  0.00  0.00    -0.506 OA
ATOM     29  H   UNL     1      -0.256 -10.214   2.947  0.00  0.00    +0.292 HD
ENDBRANCH  23  28
ENDBRANCH   5  18
TORSDOF 4
