REMARK  Name = ZINC01216869
REMARK  5 active torsions:
REMARK  status: ('A' for Active; 'I' for Inactive)
REMARK    1  A    between atoms: C_3  and  C_10
REMARK    2  A    between atoms: C_5  and  N_7
REMARK    3  A    between atoms: C_11  and  C_12
REMARK    4  A    between atoms: C_11  and  N_20
REMARK    5  A    between atoms: C_21  and  C_23
REMARK                            x       y       z     vdW  Elec       q    Type
REMARK                         _______ _______ _______ _____ _____    ______ ____
ROOT
ATOM      1  C   UNL     1       3.360   2.068   0.067  0.00  0.00    +0.036 C 
ATOM      2  C   UNL     1       3.510   3.408  -0.044  0.00  0.00    +0.097 C 
ENDROOT
BRANCH   2   3
ATOM      3  C   UNL     1       2.333   4.264  -0.254  0.00  0.00    +0.261 C 
ATOM      4  O   UNL     1       2.134   4.769  -1.343  0.00  0.00    -0.269 OA
ATOM      5  N   UNL     1       1.474   4.489   0.760  0.00  0.00    -0.296 N 
ATOM      6  C   UNL     1       1.768   3.997   2.113  0.00  0.00    +0.108 C 
ATOM      7  C   UNL     1       1.677   5.170   3.094  0.00  0.00    +0.019 C 
ATOM      8  C   UNL     1       0.310   5.844   2.953  0.00  0.00    +0.003 C 
ATOM      9  C   UNL     1       0.152   6.389   1.532  0.00  0.00    +0.019 C 
ATOM     10  C   UNL     1       0.229   5.235   0.535  0.00  0.00    +0.108 C 
ENDBRANCH   2   3
BRANCH   1  13
ATOM     11  C   UNL     1      -0.081   1.426  -1.280  0.00  0.00    +0.003 A 
ATOM     12  C   UNL     1       1.154   2.007  -1.080  0.00  0.00    +0.008 A 
ATOM     13  C   UNL     1       2.041   1.454  -0.152  0.00  0.00    -0.021 A 
ATOM     14  C   UNL     1       1.668   0.313   0.567  0.00  0.00    +0.040 A 
ATOM     15  C   UNL     1       0.431  -0.256   0.356  0.00  0.00    +0.127 A 
ATOM     16  C   UNL     1      -0.442   0.298  -0.565  0.00  0.00    +0.033 A 
BRANCH  15  17
ATOM     17  N   UNL     1       0.034  -1.463   1.115  0.00  0.00    +0.056 N 
ATOM     18  O   UNL     1       0.796  -1.948   1.920  0.00  0.00    -0.126 OA
ATOM     19  O   UNL     1      -1.051  -1.964   0.932  0.00  0.00    -0.126 OA
ENDBRANCH  15  17
ENDBRANCH   1  13
BRANCH   2  20
ATOM     20  N   UNL     1       4.783   3.978   0.040  0.00  0.00    -0.275 N 
ATOM     21  C   UNL     1       4.923   5.319   0.024  0.00  0.00    +0.284 C 
ATOM     22  O   UNL     1       3.938   6.033   0.015  0.00  0.00    -0.266 OA
ATOM     23  H   UNL     1       5.565   3.409   0.110  0.00  0.00    +0.155 HD
BRANCH  21  24
ATOM     24  C   UNL     1       6.262   5.916   0.018  0.00  0.00    +0.189 A 
ATOM     25  C   UNL     1       6.545   7.252   0.007  0.00  0.00    +0.054 A 
ATOM     26  C   UNL     1       7.944   7.368   0.005  0.00  0.00    +0.042 A 
ATOM     27  C   UNL     1       8.447   6.114   0.014  0.00  0.00    +0.196 A 
ATOM     28  O   UNL     1       7.431   5.242   0.027  0.00  0.00    -0.458 OA
ENDBRANCH  21  24
ENDBRANCH   2  20
TORSDOF 5
