REMARK  Name = ZINC01401265
REMARK  6 active torsions:
REMARK  status: ('A' for Active; 'I' for Inactive)
REMARK    1  A    between atoms: C_6  and  C_7
REMARK    2  A    between atoms: N_9  and  N_10
REMARK    3  A    between atoms: C_11  and  C_12
REMARK    4  A    between atoms: C_12  and  S_13
REMARK    5  A    between atoms: S_13  and  C_14
REMARK    6  A    between atoms: C_17  and  C_20
REMARK                            x       y       z     vdW  Elec       q    Type
REMARK                         _______ _______ _______ _____ _____    ______ ____
ROOT
ATOM      1  N   UNL     1      -1.925  -4.179  -0.004  0.00  0.00    -0.253 N 
ATOM      2  C   UNL     1      -0.562  -4.046  -0.016  0.00  0.00    +0.092 C 
ATOM      3  H   UNL     1      -2.490  -3.390   0.006  0.00  0.00    +0.171 HD
ATOM      4  H   UNL     1      -0.117  -6.024  -0.031  0.00  0.00    +0.157 HD
ATOM      5  N   UNL     1       0.257  -5.074  -0.029  0.00  0.00    -0.389 N 
ATOM      6  H   UNL     1       1.272  -4.922  -0.038  0.00  0.00    +0.157 HD
ENDROOT
BRANCH   1   9
ATOM      7  C   UNL     1      -3.846  -5.585   0.006  0.00  0.00    +0.260 C 
ATOM      8  O   UNL     1      -4.553  -4.596   0.018  0.00  0.00    -0.269 OA
ATOM      9  N   UNL     1      -2.505  -5.454  -0.006  0.00  0.00    -0.232 N 
ATOM     10  H   UNL     1      -1.941  -6.243  -0.015  0.00  0.00    +0.173 HD
BRANCH   7  16
ATOM     11  C   UNL     1      -3.664  -8.084  -0.016  0.00  0.00    +0.033 A 
ATOM     12  C   UNL     1      -4.277  -9.322  -0.012  0.00  0.00    +0.111 A 
ATOM     13  N   UNL     1      -5.591  -9.426  -0.000  0.00  0.00    -0.263 NA
ATOM     14  C   UNL     1      -6.377  -8.368   0.013  0.00  0.00    +0.111 A 
ATOM     15  C   UNL     1      -5.848  -7.092   0.016  0.00  0.00    +0.033 A 
ATOM     16  C   UNL     1      -4.459  -6.934   0.004  0.00  0.00    +0.041 A 
ENDBRANCH   7  16
ENDBRANCH   1   9
BRANCH   2  17
ATOM     17  C   UNL     1       0.061  -2.674  -0.014  0.00  0.00    +0.146 C 
BRANCH  17  18
ATOM     18  S   UNL     1       1.869  -2.830  -0.032  0.00  0.00    -0.097 S 
BRANCH  18  19
ATOM     19  C   UNL     1       2.441  -1.164  -0.027  0.00  0.00    +0.116 A 
ATOM     20  C   UNL     1       3.809  -0.904  -0.039  0.00  0.00    +0.073 A 
ATOM     21  C   UNL     1       4.244   0.409  -0.036  0.00  0.00    +0.036 A 
ATOM     22  C   UNL     1       3.294   1.422  -0.021  0.00  0.00    +0.074 A 
ATOM     23  C   UNL     1       1.954   1.092  -0.010  0.00  0.00    +0.124 A 
ATOM     24  N   UNL     1       1.567  -0.170  -0.014  0.00  0.00    -0.247 NA
ATOM     25 CL   UNL     1       4.953  -2.210  -0.057  0.00  0.00    -0.081 Cl
BRANCH  22  26
ATOM     26  C   UNL     1       3.721   2.867  -0.018  0.00  0.00    +0.419 C 
ATOM     27  F   UNL     1       2.589   3.689  -0.003  0.00  0.00    -0.166 F 
ATOM     28  F   UNL     1       4.497   3.122   1.118  0.00  0.00    -0.166 F 
ATOM     29  F   UNL     1       4.475   3.133  -1.167  0.00  0.00    -0.166 F 
ENDBRANCH  22  26
ENDBRANCH  18  19
ENDBRANCH  17  18
ENDBRANCH   2  17
TORSDOF 6
