REMARK  Name = ZINC06933853
REMARK  5 active torsions:
REMARK  status: ('A' for Active; 'I' for Inactive)
REMARK    1  A    between atoms: C_4  and  C_7
REMARK    2  A    between atoms: C_10  and  S_18
REMARK    3  A    between atoms: N_11  and  C_12
REMARK    4  A    between atoms: S_18  and  C_19
REMARK    5  A    between atoms: C_19  and  C_20
REMARK                            x       y       z     vdW  Elec       q    Type
REMARK                         _______ _______ _______ _____ _____    ______ ____
ROOT
ATOM      1  C   UNL     1      -1.732   2.894  -0.980  0.00  0.00    +0.074 A 
ATOM      2  C   UNL     1      -2.942   3.342  -0.553  0.00  0.00    +0.140 A 
ATOM      3  N   UNL     1      -3.178   2.822   0.658  0.00  0.00    -0.229 NA
ATOM      4  C   UNL     1      -2.170   2.059   1.016  0.00  0.00    +0.174 A 
ATOM      5  N   UNL     1      -1.239   2.070   0.019  0.00  0.00    -0.287 N 
ENDROOT
BRANCH   1   9
ATOM      6  C   UNL     1       0.165   3.831  -4.663  0.00  0.00    +0.000 A 
ATOM      7  C   UNL     1      -1.024   4.452  -4.323  0.00  0.00    +0.001 A 
ATOM      8  C   UNL     1      -1.646   4.152  -3.129  0.00  0.00    +0.010 A 
ATOM      9  C   UNL     1      -1.072   3.220  -2.261  0.00  0.00    +0.000 A 
ATOM     10  C   UNL     1       0.131   2.602  -2.608  0.00  0.00    +0.010 A 
ATOM     11  C   UNL     1       0.739   2.907  -3.808  0.00  0.00    +0.001 A 
ENDBRANCH   1   9
BRANCH   5  12
ATOM     12  C   UNL     1      -0.017   1.384   0.010  0.00  0.00    +0.049 A 
ATOM     13  C   UNL     1       1.178   2.092   0.002  0.00  0.00    +0.026 A 
ATOM     14  C   UNL     1       2.381   1.413  -0.013  0.00  0.00    +0.002 A 
ATOM     15  C   UNL     1       2.396   0.031  -0.021  0.00  0.00    +0.000 A 
ATOM     16  C   UNL     1       1.208  -0.677  -0.013  0.00  0.00    +0.002 A 
ATOM     17  C   UNL     1       0.002  -0.004   0.002  0.00  0.00    +0.026 A 
ENDBRANCH   5  12
BRANCH   4  18
ATOM     18  S   UNL     1      -2.042   1.170   2.532  0.00  0.00    -0.080 S 
BRANCH  18  19
ATOM     19  C   UNL     1      -3.609   1.639   3.306  0.00  0.00    +0.153 C 
BRANCH  19  20
ATOM     20  C   UNL     1      -3.722   0.977   4.654  0.00  0.00    +0.146 A 
ATOM     21  N   UNL     1      -4.287  -0.213   4.758  0.00  0.00    -0.199 NA
ATOM     22  C   UNL     1      -4.385  -0.804   5.947  0.00  0.00    +0.217 A 
ATOM     23  N   UNL     1      -3.922  -0.191   7.032  0.00  0.00    -0.181 NA
ATOM     24  C   UNL     1      -3.360   1.008   6.924  0.00  0.00    +0.217 A 
ATOM     25  N   UNL     1      -3.261   1.590   5.730  0.00  0.00    -0.199 NA
ATOM     26  N   UNL     1      -2.878   1.649   8.047  0.00  0.00    -0.327 N 
ATOM     27  N   UNL     1      -4.970  -2.049   6.055  0.00  0.00    -0.327 N 
ATOM     28  H   UNL     1      -2.468   2.524   7.967  0.00  0.00    +0.145 HD
ATOM     29  H   UNL     1      -2.950   1.224   8.916  0.00  0.00    +0.145 HD
ATOM     30  H   UNL     1      -5.044  -2.477   6.922  0.00  0.00    +0.145 HD
ATOM     31  H   UNL     1      -5.307  -2.496   5.263  0.00  0.00    +0.145 HD
ENDBRANCH  19  20
ENDBRANCH  18  19
ENDBRANCH   4  18
TORSDOF 5
