REMARK  Name = ZINC13121483
REMARK  8 active torsions:
REMARK  status: ('A' for Active; 'I' for Inactive)
REMARK    1  A    between atoms: C_1  and  C_2
REMARK    2  A    between atoms: C_2  and  C_3
REMARK    3  A    between atoms: C_2  and  C_4
REMARK    4  A    between atoms: C_7  and  C_10
REMARK    5  A    between atoms: C_10  and  C_36
REMARK    6  A    between atoms: N_13  and  C_17
REMARK    7  A    between atoms: C_17  and  C_18
REMARK    8  A    between atoms: C_24  and  C_26
REMARK                            x       y       z     vdW  Elec       q    Type
REMARK                         _______ _______ _______ _____ _____    ______ ____
ROOT
ATOM      1  C   UNL     1       1.467  -0.394  -0.014  0.00  0.00    +0.135 C 
ATOM      2  C   UNL     1       0.002  -0.004   0.002  0.00  0.00    +0.251 C 
ATOM      3  O   UNL     1      -0.954  -0.749   0.008  0.00  0.00    -0.272 OA
ATOM      4  N   UNL     1      -0.016   1.343   0.009  0.00  0.00    -0.215 N 
ATOM      5  C   UNL     1       1.220   1.854   0.000  0.00  0.00    +0.310 C 
ATOM      6  O   UNL     1       1.460   3.045   0.005  0.00  0.00    -0.252 OA
ATOM      7  N   UNL     1       2.170   0.901  -0.014  0.00  0.00    -0.281 N 
ATOM      8  C   UNL     1       1.798  -1.190  -1.278  0.00  0.00    +0.047 C 
ATOM      9  H   UNL     1       3.130   1.039  -0.022  0.00  0.00    +0.152 HD
ENDROOT
BRANCH   1  13
ATOM     10  C   UNL     1       2.461  -2.644   3.478  0.00  0.00    -0.045 A 
ATOM     11  C   UNL     1       3.418  -1.853   2.870  0.00  0.00    +0.004 A 
ATOM     12  C   UNL     1       3.096  -1.125   1.740  0.00  0.00    +0.006 A 
ATOM     13  C   UNL     1       1.818  -1.188   1.218  0.00  0.00    -0.015 A 
ATOM     14  C   UNL     1       0.860  -1.975   1.829  0.00  0.00    +0.006 A 
ATOM     15  C   UNL     1       1.183  -2.707   2.956  0.00  0.00    +0.004 A 
BRANCH  10  17
ATOM     16  C   UNL     1       1.917  -3.001   5.871  0.00  0.00    +0.012 C 
ATOM     17  C   UNL     1       2.812  -3.438   4.710  0.00  0.00    +0.013 C 
ATOM     18  C   UNL     1       2.598  -4.928   4.434  0.00  0.00    +0.012 C 
ENDBRANCH  10  17
ENDBRANCH   1  13
BRANCH   4  19
ATOM     19  C   UNL     1      -1.239   2.150   0.020  0.00  0.00    +0.213 C 
BRANCH  19  20
ATOM     20  C   UNL     1      -1.652   2.419   1.444  0.00  0.00    +0.234 C 
ATOM     21  O   UNL     1      -0.989   1.980   2.360  0.00  0.00    -0.274 OA
ATOM     22  N   UNL     1      -2.757   3.147   1.700  0.00  0.00    -0.293 N 
ATOM     23  C   UNL     1      -3.650   3.737   0.686  0.00  0.00    +0.108 C 
ATOM     24  C   UNL     1      -5.012   3.900   1.405  0.00  0.00    +0.021 C 
ATOM     25  C   UNL     1      -4.564   4.302   2.835  0.00  0.00    +0.029 C 
ATOM     26  C   UNL     1      -3.275   3.478   3.035  0.00  0.00    +0.106 C 
BRANCH  26  27
ATOM     27  C   UNL     1      -2.259   4.296   3.790  0.00  0.00    -0.023 A 
ATOM     28  C   UNL     1      -1.534   5.273   3.134  0.00  0.00    +0.009 A 
ATOM     29  C   UNL     1      -0.604   6.028   3.823  0.00  0.00    +0.050 A 
ATOM     30  C   UNL     1      -0.388   5.800   5.174  0.00  0.00    +0.162 A 
ATOM     31  C   UNL     1      -1.116   4.816   5.834  0.00  0.00    +0.162 A 
ATOM     32  C   UNL     1      -2.050   4.065   5.137  0.00  0.00    +0.055 A 
ATOM     33  O   UNL     1      -0.926   4.582   7.161  0.00  0.00    -0.485 OA
ATOM     34  C   UNL     1       0.278   5.096   7.740  0.00  0.00    +0.270 C 
ATOM     35  C   UNL     1       0.458   6.545   7.267  0.00  0.00    +0.270 C 
ATOM     36  O   UNL     1       0.538   6.544   5.838  0.00  0.00    -0.485 OA
ENDBRANCH  26  27
ENDBRANCH  19  20
ENDBRANCH   4  19
TORSDOF 5
