REMARK  Name = ZINC09939768
REMARK  7 active torsions:
REMARK  status: ('A' for Active; 'I' for Inactive)
REMARK    1  A    between atoms: C_1  and  O_2
REMARK    2  A    between atoms: O_2  and  C_3
REMARK    3  A    between atoms: C_8  and  N_9
REMARK    4  A    between atoms: C_10  and  O_22
REMARK    5  A    between atoms: C_12  and  C_14
REMARK    6  A    between atoms: C_14  and  S_15
REMARK    7  A    between atoms: S_15  and  C_16
REMARK                            x       y       z     vdW  Elec       q    Type
REMARK                         _______ _______ _______ _____ _____    ______ ____
ROOT
ATOM      1  N   UNL     1       8.367  -0.704  -0.725  0.00  0.00    -0.197 N 
ATOM      2  C   UNL     1       8.389  -0.715   0.635  0.00  0.00    +0.216 A 
ATOM      3  C   UNL     1       7.182  -0.259   1.066  0.00  0.00    +0.093 A 
ATOM      4  C   UNL     1       6.404   0.028  -0.059  0.00  0.00    +0.077 A 
ATOM      5  N   UNL     1       7.111  -0.234  -1.129  0.00  0.00    -0.167 NA
ENDROOT
BRANCH   1  11
ATOM      6  C   UNL     1       9.255  -1.037  -2.954  0.00  0.00    +0.145 A 
ATOM      7  C   UNL     1      10.296  -1.418  -3.785  0.00  0.00    +0.048 A 
ATOM      8  C   UNL     1      11.486  -1.864  -3.242  0.00  0.00    +0.004 A 
ATOM      9  C   UNL     1      11.645  -1.924  -1.870  0.00  0.00    +0.002 A 
ATOM     10  C   UNL     1      10.614  -1.541  -1.034  0.00  0.00    +0.031 A 
ATOM     11  C   UNL     1       9.416  -1.093  -1.571  0.00  0.00    +0.111 A 
BRANCH   6  13
ATOM     12  C   UNL     1       7.988  -0.572  -4.911  0.00  0.00    +0.277 C 
ATOM     13  O   UNL     1       8.081  -0.604  -3.486  0.00  0.00    -0.493 OA
ENDBRANCH   6  13
ENDBRANCH   1  11
BRANCH   2  14
ATOM     14  O   UNL     1       9.427  -1.104   1.418  0.00  0.00    -0.492 OA
ATOM     15  H   UNL     1      10.037  -0.390   1.647  0.00  0.00    +0.294 HD
ENDBRANCH   2  14
BRANCH   4  16
ATOM     16  C   UNL     1       4.992   0.554  -0.043  0.00  0.00    +0.134 C 
BRANCH  16  17
ATOM     17  S   UNL     1       3.830  -0.833  -0.039  0.00  0.00    -0.080 S 
BRANCH  17  18
ATOM     18  C   UNL     1       2.303   0.046  -0.020  0.00  0.00    +0.189 A 
ATOM     19  N   UNL     1       1.165  -0.634  -0.013  0.00  0.00    -0.230 NA
ATOM     20  C   UNL     1       0.002  -0.004   0.002  0.00  0.00    +0.115 A 
ATOM     21  C   UNL     1      -0.017   1.382   0.010  0.00  0.00    +0.039 A 
ATOM     22  C   UNL     1       1.192   2.061   0.002  0.00  0.00    +0.115 A 
ATOM     23  N   UNL     1       2.320   1.371  -0.013  0.00  0.00    -0.230 NA
ENDBRANCH  17  18
ENDBRANCH  16  17
ENDBRANCH   4  16
TORSDOF 6
