REMARK  Name = ZINC32092117
REMARK  5 active torsions:
REMARK  status: ('A' for Active; 'I' for Inactive)
REMARK    1  A    between atoms: C_1  and  C_2
REMARK    2  A    between atoms: C_10  and  O_13
REMARK    3  A    between atoms: O_13  and  C_14
REMARK    4  A    between atoms: C_19  and  C_21
REMARK    5  A    between atoms: C_24  and  C_27
REMARK                            x       y       z     vdW  Elec       q    Type
REMARK                         _______ _______ _______ _____ _____    ______ ____
ROOT
ATOM      1  C   UNL     1      -0.018   1.503   0.010  0.00  0.00    +0.068 C 
ATOM      2  C   UNL     1       0.002  -0.004   0.002  0.00  0.00    +0.066 A 
ATOM      3  C   UNL     1       0.008  -0.810  -1.127  0.00  0.00    +0.023 A 
ATOM      4  C   UNL     1       0.032  -2.116  -0.714  0.00  0.00    +0.134 A 
ATOM      5  N   UNL     1       0.032  -2.117   0.636  0.00  0.00    -0.198 N 
ATOM      6  N   UNL     1       0.023  -0.779   1.062  0.00  0.00    -0.168 NA
ATOM      7  C   UNL     1       0.044  -3.247   1.461  0.00  0.00    +0.178 A 
ATOM      8  C   UNL     1       0.548  -3.159   2.758  0.00  0.00    +0.055 A 
ATOM      9  C   UNL     1       0.538  -4.304   3.537  0.00  0.00    +0.072 A 
ATOM     10  C   UNL     1       0.026  -5.472   2.976  0.00  0.00    +0.234 A 
ATOM     11  N   UNL     1      -0.431  -5.461   1.735  0.00  0.00    -0.110 NA
ATOM     12  N   UNL     1      -0.427  -4.399   1.014  0.00  0.00    -0.126 NA
ATOM     13  N   UNL     1       0.064  -3.175  -1.620  0.00  0.00    -0.270 N 
ATOM     14  C   UNL     1       0.274  -2.892  -2.923  0.00  0.00    +0.219 C 
ATOM     15  O   UNL     1       0.118  -3.767  -3.747  0.00  0.00    -0.275 OA
ATOM     16  C   UNL     1       0.695  -1.525  -3.383  0.00  0.00    +0.109 C 
ATOM     17  C   UNL     1      -0.013  -0.426  -2.584  0.00  0.00    +0.063 C 
ATOM     18  H   UNL     1      -0.061  -4.090  -1.322  0.00  0.00    +0.156 HD
ENDROOT
BRANCH  17  19
ATOM     19  C   UNL     1       0.707   0.884  -2.775  0.00  0.00    -0.039 A 
ATOM     20  C   UNL     1       2.040   0.997  -2.427  0.00  0.00    +0.005 A 
ATOM     21  C   UNL     1       2.700   2.199  -2.602  0.00  0.00    +0.012 A 
ATOM     22  C   UNL     1       2.027   3.288  -3.124  0.00  0.00    +0.055 A 
ATOM     23  C   UNL     1       0.694   3.175  -3.472  0.00  0.00    +0.012 A 
ATOM     24  C   UNL     1       0.035   1.972  -3.302  0.00  0.00    +0.005 A 
BRANCH  22  25
ATOM     25  C   UNL     1       2.747   4.598  -3.313  0.00  0.00    +0.417 C 
ATOM     26  F   UNL     1       3.320   4.636  -4.589  0.00  0.00    -0.166 F 
ATOM     27  F   UNL     1       1.838   5.653  -3.178  0.00  0.00    -0.166 F 
ATOM     28  F   UNL     1       3.752   4.722  -2.347  0.00  0.00    -0.166 F 
ENDBRANCH  22  25
ENDBRANCH  17  19
BRANCH  10  29
ATOM     29  O   UNL     1      -0.003  -6.619   3.701  0.00  0.00    -0.479 OA
ATOM     30  C   UNL     1      -0.542  -7.778   3.061  0.00  0.00    +0.279 C 
ENDBRANCH  10  29
TORSDOF 3
