REMARK  Name = ZINC66953043
REMARK  5 active torsions:
REMARK  status: ('A' for Active; 'I' for Inactive)
REMARK    1  A    between atoms: C_1  and  C_2
REMARK    2  A    between atoms: N_4  and  C_23
REMARK    3  A    between atoms: N_10  and  C_11
REMARK    4  A    between atoms: C_11  and  C_12
REMARK    5  A    between atoms: C_12  and  O_22
REMARK                            x       y       z     vdW  Elec       q    Type
REMARK                         _______ _______ _______ _____ _____    ______ ____
ROOT
ATOM      1  C   UNL     1      -0.810   1.510   0.083  0.00  0.00    +0.049 C 
ATOM      2  C   UNL     1      -0.601   0.018   0.049  0.00  0.00    +0.009 A 
ATOM      3  C   UNL     1      -0.565  -0.755  -1.060  0.00  0.00    +0.119 A 
ATOM      4  N   UNL     1      -0.357  -2.037  -0.663  0.00  0.00    -0.238 N 
ATOM      5  N   UNL     1      -0.263  -2.046   0.735  0.00  0.00    -0.151 NA
ATOM      6  C   UNL     1      -0.404  -0.814   1.163  0.00  0.00    +0.151 A 
ATOM      7  N   UNL     1      -0.366  -0.400   2.501  0.00  0.00    -0.253 N 
ATOM      8  C   UNL     1      -0.168  -1.304   3.481  0.00  0.00    +0.305 C 
ATOM      9  O   UNL     1      -0.022  -2.479   3.204  0.00  0.00    -0.252 OA
ATOM     10  N   UNL     1      -0.132  -0.906   4.768  0.00  0.00    -0.296 N 
ATOM     11  H   UNL     1      -0.483   0.537   2.723  0.00  0.00    +0.158 HD
ATOM     12  H   UNL     1      -0.249   0.031   4.989  0.00  0.00    +0.150 HD
ENDROOT
BRANCH   4  13
ATOM     13  C   UNL     1      -0.255  -3.154  -1.503  0.00  0.00    +0.065 A 
ATOM     14  C   UNL     1      -0.362  -3.001  -2.879  0.00  0.00    +0.028 A 
ATOM     15  C   UNL     1      -0.260  -4.104  -3.705  0.00  0.00    +0.002 A 
ATOM     16  C   UNL     1      -0.052  -5.358  -3.163  0.00  0.00    +0.000 A 
ATOM     17  C   UNL     1       0.056  -5.514  -1.793  0.00  0.00    +0.002 A 
ATOM     18  C   UNL     1      -0.040  -4.415  -0.962  0.00  0.00    +0.028 A 
ENDBRANCH   4  13
BRANCH  10  19
ATOM     19  C   UNL     1       0.083  -1.889   5.833  0.00  0.00    +0.145 C 
BRANCH  19  20
ATOM     20  C   UNL     1       0.212  -1.167   7.176  0.00  0.00    +0.107 C 
ATOM     21  C   UNL     1       1.349  -0.150   7.093  0.00  0.00    +0.041 C 
ATOM     22  C   UNL     1       1.604   0.404   8.500  0.00  0.00    +0.008 C 
ATOM     23  C   UNL     1       2.226  -0.704   9.348  0.00  0.00    +0.035 C 
ATOM     24  C   UNL     1       1.404  -1.963   9.259  0.00  0.00    -0.041 A 
ATOM     25  C   UNL     1       0.482  -2.177   8.259  0.00  0.00    -0.011 A 
ATOM     26  C   UNL     1      -0.239  -3.364   8.232  0.00  0.00    +0.007 A 
ATOM     27  C   UNL     1      -0.041  -4.327   9.199  0.00  0.00    +0.000 A 
ATOM     28  C   UNL     1       0.882  -4.111  10.205  0.00  0.00    +0.000 A 
ATOM     29  C   UNL     1       1.601  -2.933  10.233  0.00  0.00    +0.004 A 
BRANCH  20  30
ATOM     30  O   UNL     1      -1.010  -0.484   7.462  0.00  0.00    -0.382 OA
ATOM     31  H   UNL     1      -1.781  -1.065   7.521  0.00  0.00    +0.211 HD
ENDBRANCH  20  30
ENDBRANCH  19  20
ENDBRANCH  10  19
TORSDOF 4
