REMARK  Name = ZINC53112275
REMARK  8 active torsions:
REMARK  status: ('A' for Active; 'I' for Inactive)
REMARK    1  A    between atoms: C_1  and  C_2
REMARK    2  A    between atoms: C_2  and  N_3
REMARK    3  A    between atoms: C_5  and  N_21
REMARK    4  A    between atoms: C_7  and  C_8
REMARK    5  A    between atoms: N_10  and  C_11
REMARK    6  A    between atoms: C_11  and  C_19
REMARK    7  A    between atoms: C_15  and  C_18
REMARK    8  A    between atoms: C_19  and  O_20
REMARK                            x       y       z     vdW  Elec       q    Type
REMARK                         _______ _______ _______ _____ _____    ______ ____
ROOT
ATOM      1  C   UNL     1       3.082  -0.491  -0.283  0.00  0.00    +0.261 C 
ATOM      2  O   UNL     1       4.272  -0.529  -0.538  0.00  0.00    -0.269 OA
ATOM      3  N   UNL     1       2.671  -0.287   0.984  0.00  0.00    -0.302 N 
ATOM      4  H   UNL     1       1.724  -0.312   1.196  0.00  0.00    +0.150 HD
ENDROOT
BRANCH   3   5
ATOM      5  C   UNL     1       3.652  -0.029   2.040  0.00  0.00    +0.058 C 
ATOM      6  C   UNL     1       4.567   1.122   1.616  0.00  0.00    +0.028 C 
ATOM      7  C   UNL     1       3.728   2.380   1.380  0.00  0.00    +0.002 C 
ATOM      8  C   UNL     1       3.000   2.757   2.672  0.00  0.00    +0.003 C 
ATOM      9  C   UNL     1       2.085   1.606   3.096  0.00  0.00    -0.012 C 
ATOM     10  C   UNL     1       2.924   0.348   3.332  0.00  0.00    +0.031 C 
ATOM     11  C   UNL     1       1.357   1.983   4.388  0.00  0.00    +0.007 C 
BRANCH   5  12
ATOM     12  C   UNL     1       4.491  -1.286   2.276  0.00  0.00    +0.181 C 
BRANCH  12  13
ATOM     13  O   UNL     1       5.238  -1.589   1.097  0.00  0.00    -0.393 OA
ATOM     14  H   UNL     1       5.794  -2.376   1.174  0.00  0.00    +0.209 HD
ENDBRANCH  12  13
ENDBRANCH   5  12
ENDBRANCH   3   5
BRANCH   1  19
ATOM     15  N   UNL     1       2.371  -0.977  -2.667  0.00  0.00    -0.342 N 
ATOM     16  C   UNL     1       1.198  -1.062  -3.349  0.00  0.00    +0.109 A 
ATOM     17  C   UNL     1       0.175  -0.806  -2.492  0.00  0.00    +0.043 A 
ATOM     18  C   UNL     1       0.728  -0.551  -1.230  0.00  0.00    +0.055 A 
ATOM     19  C   UNL     1       2.097  -0.668  -1.355  0.00  0.00    +0.106 A 
BRANCH  17  20
ATOM     20  N   UNL     1      -1.195  -0.797  -2.815  0.00  0.00    -0.357 N 
ATOM     21  H   UNL     1      -1.481  -0.986  -3.722  0.00  0.00    +0.142 HD
ATOM     22  H   UNL     1      -1.853  -0.601  -2.130  0.00  0.00    +0.142 HD
ENDBRANCH  17  20
BRANCH  15  24
ATOM     23  C   UNL     1       4.184  -2.602  -2.904  0.00  0.00    +0.027 C 
ATOM     24  C   UNL     1       3.705  -1.186  -3.234  0.00  0.00    +0.118 C 
ENDBRANCH  15  24
ENDBRANCH   1  19
TORSDOF 6
