REMARK  Name = ZINC22130497
REMARK  3 active torsions:
REMARK  status: ('A' for Active; 'I' for Inactive)
REMARK    1  A    between atoms: C_4  and  C_7
REMARK    2  A    between atoms: C_9  and  C_16
REMARK    3  A    between atoms: C_12  and  C_13
REMARK                            x       y       z     vdW  Elec       q    Type
REMARK                         _______ _______ _______ _____ _____    ______ ____
ROOT
ATOM      1  C   UNL     1       1.119  -2.175  -0.120  0.00  0.00    +0.005 A 
ATOM      2  C   UNL     1       1.886  -2.872  -1.051  0.00  0.00    +0.038 A 
ATOM      3  C   UNL     1       2.021  -4.252  -0.925  0.00  0.00    +0.075 A 
ATOM      4  N   UNL     1       1.422  -4.913   0.059  0.00  0.00    -0.231 NA
ATOM      5  C   UNL     1       0.679  -4.300   0.964  0.00  0.00    +0.135 A 
ATOM      6  C   UNL     1       0.495  -2.907   0.914  0.00  0.00    +0.099 A 
ATOM      7  N   UNL     1       0.076  -5.035   1.970  0.00  0.00    -0.342 N 
ATOM      8  H   UNL     1      -0.544  -4.529   2.725  0.00  0.00    +0.144 HD
ATOM      9  H   UNL     1       0.216  -6.125   2.014  0.00  0.00    +0.144 HD
ENDROOT
BRANCH   3  10
ATOM     10  C   UNL     1       2.841  -4.996  -1.909  0.00  0.00    +0.019 A 
ATOM     11  C   UNL     1       4.116  -4.541  -2.246  0.00  0.00    +0.011 A 
ATOM     12  C   UNL     1       4.875  -5.238  -3.163  0.00  0.00    +0.001 A 
ATOM     13  C   UNL     1       4.374  -6.388  -3.749  0.00  0.00    +0.001 A 
ATOM     14  C   UNL     1       3.112  -6.845  -3.420  0.00  0.00    +0.020 A 
ATOM     15  C   UNL     1       2.344  -6.159  -2.499  0.00  0.00    +0.050 A 
ATOM     16 CL   UNL     1       0.761  -6.738  -2.082  0.00  0.00    -0.083 Cl
ENDBRANCH   3  10
BRANCH   1  20
ATOM     17  C   UNL     1       0.653   2.041  -0.395  0.00  0.00    +0.000 A 
ATOM     18  C   UNL     1      -0.461   1.233  -0.253  0.00  0.00    +0.001 A 
ATOM     19  C   UNL     1      -0.316  -0.136  -0.163  0.00  0.00    +0.008 A 
ATOM     20  C   UNL     1       0.956  -0.705  -0.216  0.00  0.00    -0.016 A 
ATOM     21  C   UNL     1       2.075   0.115  -0.360  0.00  0.00    +0.008 A 
ATOM     22  C   UNL     1       1.917   1.483  -0.449  0.00  0.00    +0.001 A 
ENDBRANCH   1  20
BRANCH   6  23
ATOM     23  C   UNL     1      -0.310  -2.242   1.894  0.00  0.00    +0.103 C 
ATOM     24  N   UNL     1      -0.949  -1.715   2.671  0.00  0.00    -0.191 NA
ENDBRANCH   6  23
TORSDOF 3
