REMARK  Name = ZINC05219719
REMARK  10 active torsions:
REMARK  status: ('A' for Active; 'I' for Inactive)
REMARK    1  A    between atoms: C_1  and  C_2
REMARK    2  A    between atoms: C_2  and  O_3
REMARK    3  A    between atoms: O_3  and  C_4
REMARK    4  A    between atoms: C_7  and  C_10
REMARK    5  A    between atoms: C_17  and  N_32
REMARK    6  A    between atoms: C_18  and  C_30
REMARK    7  A    between atoms: C_19  and  C_21
REMARK    8  A    between atoms: C_24  and  C_27
REMARK    9  A    between atoms: C_27  and  C_28
REMARK   10  A    between atoms: C_27  and  C_29
REMARK                            x       y       z     vdW  Elec       q    Type
REMARK                         _______ _______ _______ _____ _____    ______ ____
ROOT
ATOM      1  C   UNL     1       1.125  -5.950  -1.811  0.00  0.00    +0.074 A 
ATOM      2  C   UNL     1       2.183  -6.651  -2.287  0.00  0.00    +0.054 A 
ATOM      3  C   UNL     1       1.838  -8.016  -2.288  0.00  0.00    +0.245 A 
ATOM      4  N   UNL     1       0.622  -8.132  -1.834  0.00  0.00    -0.135 NA
ATOM      5  N   UNL     1       0.142  -6.852  -1.517  0.00  0.00    -0.273 N 
ATOM      6  H   UNL     1      -0.734  -6.644  -1.155  0.00  0.00    +0.189 HD
ATOM      7  O   UNL     1       2.703  -8.978  -2.712  0.00  0.00    -0.421 OA
ATOM      8  C   UNL     1       3.993  -8.624  -2.876  0.00  0.00    +0.201 C 
ATOM      9  C   UNL     1       4.439  -7.351  -2.904  0.00  0.00    +0.098 C 
ATOM     10  C   UNL     1       3.528  -6.158  -2.756  0.00  0.00    +0.102 C 
ENDROOT
BRANCH   1  14
ATOM     11  C   UNL     1       0.911  -1.735  -1.311  0.00  0.00    +0.121 A 
ATOM     12  C   UNL     1      -0.135  -2.414  -1.923  0.00  0.00    +0.046 A 
ATOM     13  C   UNL     1      -0.069  -3.781  -2.086  0.00  0.00    +0.013 A 
ATOM     14  C   UNL     1       1.051  -4.483  -1.638  0.00  0.00    +0.000 A 
ATOM     15  C   UNL     1       2.100  -3.797  -1.024  0.00  0.00    +0.013 A 
ATOM     16  C   UNL     1       2.029  -2.429  -0.868  0.00  0.00    +0.046 A 
BRANCH  11  17
ATOM     17  O   UNL     1       0.842  -0.387  -1.151  0.00  0.00    -0.492 OA
BRANCH  17  19
ATOM     18  C   UNL     1      -0.233   1.767  -1.364  0.00  0.00    +0.048 C 
ATOM     19  C   UNL     1      -0.337   0.264  -1.630  0.00  0.00    +0.225 C 
ENDBRANCH  17  19
ENDBRANCH  11  17
ENDBRANCH   1  14
BRANCH  10  20
ATOM     20  C   UNL     1       3.380  -5.463  -4.085  0.00  0.00    -0.035 A 
ATOM     21  C   UNL     1       2.815  -6.131  -5.155  0.00  0.00    +0.005 A 
ATOM     22  C   UNL     1       2.679  -5.493  -6.374  0.00  0.00    +0.004 A 
ATOM     23  C   UNL     1       3.108  -4.188  -6.522  0.00  0.00    -0.045 A 
ATOM     24  C   UNL     1       3.673  -3.520  -5.452  0.00  0.00    +0.004 A 
ATOM     25  C   UNL     1       3.805  -4.156  -4.232  0.00  0.00    +0.005 A 
BRANCH  23  26
ATOM     26  C   UNL     1       2.962  -3.493  -7.851  0.00  0.00    +0.013 C 
ATOM     27  C   UNL     1       2.081  -2.253  -7.684  0.00  0.00    +0.012 C 
ATOM     28  C   UNL     1       4.341  -3.073  -8.363  0.00  0.00    +0.012 C 
ENDBRANCH  23  26
ENDBRANCH  10  20
BRANCH   8  29
ATOM     29  N   UNL     1       4.916  -9.628  -3.025  0.00  0.00    -0.328 N 
ATOM     30  H   UNL     1       4.631 -10.556  -3.011  0.00  0.00    +0.145 HD
ATOM     31  H   UNL     1       5.854  -9.411  -3.145  0.00  0.00    +0.145 HD
ENDBRANCH   8  29
BRANCH   9  32
ATOM     32  C   UNL     1       5.841  -7.122  -3.081  0.00  0.00    +0.101 C 
ATOM     33  N   UNL     1       6.954  -6.940  -3.222  0.00  0.00    -0.191 NA
ENDBRANCH   9  32
TORSDOF 7
