REMARK  Name = ZINC44218071
REMARK  7 active torsions:
REMARK  status: ('A' for Active; 'I' for Inactive)
REMARK    1  A    between atoms: C_1  and  C_2
REMARK    2  A    between atoms: C_5  and  N_8
REMARK    3  A    between atoms: N_8  and  C_9
REMARK    4  A    between atoms: C_10  and  C_20
REMARK    5  A    between atoms: C_20  and  C_22
REMARK    6  A    between atoms: C_20  and  N_26
REMARK    7  A    between atoms: C_22  and  C_23
REMARK                            x       y       z     vdW  Elec       q    Type
REMARK                         _______ _______ _______ _____ _____    ______ ____
ROOT
ATOM      1  C   UNL     1       0.265  -4.787   1.214  0.00  0.00    +0.132 A 
ATOM      2  C   UNL     1       0.244  -6.177   1.290  0.00  0.00    +0.044 A 
ATOM      3  C   UNL     1       0.189  -6.781   2.544  0.00  0.00    +0.262 A 
ATOM      4  O   UNL     1       0.171  -7.999   2.644  0.00  0.00    -0.267 OA
ATOM      5  N   UNL     1       0.158  -6.004   3.647  0.00  0.00    -0.268 N 
ATOM      6  C   UNL     1       0.104  -6.587   4.878  0.00  0.00    +0.096 A 
ATOM      7  C   UNL     1       0.071  -5.832   5.999  0.00  0.00    +0.018 A 
ATOM      8  C   UNL     1       0.092  -4.433   5.908  0.00  0.00    +0.005 A 
ATOM      9  C   UNL     1       0.146  -3.840   4.683  0.00  0.00    +0.047 A 
ATOM     10  C   UNL     1       0.180  -4.642   3.526  0.00  0.00    +0.142 A 
ATOM     11  N   UNL     1       0.237  -4.063   2.330  0.00  0.00    -0.214 NA
ENDROOT
BRANCH   1  12
ATOM     12  N   UNL     1       0.320  -4.160  -0.019  0.00  0.00    -0.299 N 
ATOM     13  H   UNL     1       1.046  -4.357  -0.631  0.00  0.00    +0.154 HD
BRANCH  12  18
ATOM     14  C   UNL     1      -3.700  -0.439  -1.490  0.00  0.00    +0.044 C 
ATOM     15  C   UNL     1      -2.632  -1.427  -1.099  0.00  0.00    -0.050 A 
ATOM     16  C   UNL     1      -1.526  -1.606  -1.911  0.00  0.00    +0.005 A 
ATOM     17  C   UNL     1      -0.546  -2.511  -1.556  0.00  0.00    +0.023 A 
ATOM     18  C   UNL     1      -0.671  -3.243  -0.381  0.00  0.00    +0.032 A 
ATOM     19  C   UNL     1      -1.782  -3.061   0.432  0.00  0.00    +0.023 A 
ATOM     20  C   UNL     1      -2.756  -2.150   0.073  0.00  0.00    +0.005 A 
ENDBRANCH  12  18
ENDBRANCH   1  12
BRANCH   2  21
ATOM     21  C   UNL     1       0.280  -7.014   0.037  0.00  0.00    -0.025 C 
BRANCH  21  22
ATOM     22  N   UNL     1       1.419  -7.941   0.100  0.00  0.00    +0.383 N 
ATOM     23  H   UNL     1       1.318  -8.543   0.903  0.00  0.00    -0.089 HD
ATOM     24  H   UNL     1       1.443  -8.501  -0.739  0.00  0.00    -0.089 HD
ATOM     25  H   UNL     1       2.276  -7.415   0.178  0.00  0.00    -0.089 HD
ENDBRANCH  21  22
BRANCH  21  26
ATOM     26  C   UNL     1      -1.020  -7.811  -0.082  0.00  0.00    +0.114 C 
BRANCH  26  27
ATOM     27  C   UNL     1      -1.037  -8.553  -1.394  0.00  0.00    +0.355 C 
ATOM     28  O   UNL     1      -0.096  -8.453  -2.162  0.00  0.00    -0.246 OA
ATOM     29  O   UNL     1      -1.992  -9.252  -1.686  0.00  0.00    -0.246 OA
ENDBRANCH  26  27
ENDBRANCH  21  26
ENDBRANCH   2  21
TORSDOF 6
