REMARK  Name = ZINC39012042
REMARK  10 active torsions:
REMARK  status: ('A' for Active; 'I' for Inactive)
REMARK    1  A    between atoms: C_1  and  C_2
REMARK    2  A    between atoms: C_4  and  N_9
REMARK    3  A    between atoms: C_10  and  C_12
REMARK    4  A    between atoms: C_12  and  S_13
REMARK    5  A    between atoms: S_13  and  C_14
REMARK    6  A    between atoms: C_18  and  C_22
REMARK    7  A    between atoms: N_20  and  N_21
REMARK    8  A    between atoms: C_25  and  C_28
REMARK    9  A    between atoms: C_31  and  O_34
REMARK   10  A    between atoms: O_34  and  C_35
REMARK                            x       y       z     vdW  Elec       q    Type
REMARK                         _______ _______ _______ _____ _____    ______ ____
ROOT
ATOM      1  C   UNL     1       0.541  -7.366  -5.069  0.00  0.00    +0.214 C 
ATOM      2  N   UNL     1      -0.643  -7.003  -5.881  0.00  0.00    -0.228 NA
ATOM      3  N   UNL     1      -0.213  -5.826  -6.653  0.00  0.00    -0.234 NA
ATOM      4  C   UNL     1       1.200  -6.143  -6.988  0.00  0.00    +0.185 C 
ATOM      5  N   UNL     1       1.719  -6.819  -5.775  0.00  0.00    -0.197 NA
ATOM      6  H   UNL     1      -0.909  -7.760  -6.493  0.00  0.00    +0.143 HD
ATOM      7  H   UNL     1      -0.768  -5.720  -7.489  0.00  0.00    +0.143 HD
ENDROOT
BRANCH   4   8
ATOM      8  C   UNL     1       1.985  -4.859  -7.265  0.00  0.00    +0.187 C 
ATOM      9  C   UNL     1       1.358  -4.085  -8.412  0.00  0.00    +0.034 C 
ATOM     10  C   UNL     1       2.329  -4.050  -9.345  0.00  0.00    +0.091 C 
ATOM     11  N   UNL     1       3.438  -4.699  -8.902  0.00  0.00    -0.154 NA
ATOM     12  N   UNL     1       3.334  -5.172  -7.764  0.00  0.00    -0.176 NA
BRANCH  10  13
ATOM     13  C   UNL     1       2.204  -3.397 -10.671  0.00  0.00    +0.002 A 
ATOM     14  C   UNL     1       1.019  -2.752 -11.024  0.00  0.00    +0.013 A 
ATOM     15  C   UNL     1       0.907  -2.145 -12.257  0.00  0.00    +0.046 A 
ATOM     16  C   UNL     1       1.972  -2.175 -13.147  0.00  0.00    +0.120 A 
ATOM     17  C   UNL     1       3.154  -2.816 -12.799  0.00  0.00    +0.046 A 
ATOM     18  C   UNL     1       3.274  -3.420 -11.565  0.00  0.00    +0.013 A 
BRANCH  16  19
ATOM     19  O   UNL     1       1.858  -1.577 -14.361  0.00  0.00    -0.495 OA
ATOM     20  C   UNL     1       2.992  -1.646 -15.228  0.00  0.00    +0.277 C 
ENDBRANCH  16  19
ENDBRANCH  10  13
ENDBRANCH   4   8
BRANCH   5  21
ATOM     21  N   UNL     1       2.652  -7.877  -6.127  0.00  0.00    -0.264 NA
ATOM     22  H   UNL     1       2.978  -8.360  -5.303  0.00  0.00    +0.137 HD
ATOM     23  H   UNL     1       2.238  -8.522  -6.784  0.00  0.00    +0.137 HD
ENDBRANCH   5  21
BRANCH   1  24
ATOM     24  S   UNL     1       0.411  -6.631  -3.416  0.00  0.00    -0.115 S 
BRANCH  24  25
ATOM     25  C   UNL     1       0.265  -4.851  -3.737  0.00  0.00    +0.168 C 
BRANCH  25  27
ATOM     26  N   UNL     1       0.028  -2.771  -2.420  0.00  0.00    -0.285 N 
ATOM     27  C   UNL     1       0.148  -4.113  -2.428  0.00  0.00    +0.227 C 
ATOM     28  O   UNL     1       0.162  -4.727  -1.382  0.00  0.00    -0.275 OA
ATOM     29  H   UNL     1      -0.060  -2.287  -3.256  0.00  0.00    +0.155 HD
BRANCH  26  33
ATOM     30  C   UNL     1       1.619  -2.350   2.213  0.00  0.00    +0.045 C 
ATOM     31  C   UNL     1       0.793  -1.849   1.057  0.00  0.00    -0.035 A 
ATOM     32  C   UNL     1       0.792  -2.538  -0.141  0.00  0.00    +0.027 A 
ATOM     33  C   UNL     1       0.030  -2.075  -1.206  0.00  0.00    +0.034 A 
ATOM     34  C   UNL     1      -0.729  -0.921  -1.063  0.00  0.00    +0.024 A 
ATOM     35  C   UNL     1      -0.724  -0.236   0.136  0.00  0.00    +0.017 A 
ATOM     36  C   UNL     1       0.032  -0.703   1.197  0.00  0.00    +0.021 A 
ATOM     37 BR   UNL     1       0.029   0.233   2.841  0.00  0.00    -0.050 Br
ENDBRANCH  26  33
ENDBRANCH  25  27
ENDBRANCH  24  25
ENDBRANCH   1  24
TORSDOF 8
