REMARK  Name = ZINC12244305
REMARK  15 active torsions:
REMARK  status: ('A' for Active; 'I' for Inactive)
REMARK    1  A    between atoms: C_1  and  C_2
REMARK    2  A    between atoms: C_2  and  C_3
REMARK    3  A    between atoms: C_2  and  C_4
REMARK    4  A    between atoms: C_4  and  C_6
REMARK    5  A    between atoms: C_4  and  N_28
REMARK    6  A    between atoms: C_15  and  C_16
REMARK    7  A    between atoms: C_15  and  N_65
REMARK    8  A    between atoms: C_19  and  O_26
REMARK    9  A    between atoms: C_20  and  O_24
REMARK   10  A    between atoms: C_21  and  O_22
REMARK   11  A    between atoms: O_22  and  C_23
REMARK   12  A    between atoms: O_24  and  C_25
REMARK   13  A    between atoms: O_26  and  C_27
REMARK   14  A    between atoms: N_28  and  S_29
REMARK   15  A    between atoms: S_29  and  C_32
REMARK                            x       y       z     vdW  Elec       q    Type
REMARK                         _______ _______ _______ _____ _____    ______ ____
ROOT
ATOM      1  C   UNL     1      -7.367   2.721  -0.829  0.00  0.00    +0.152 A 
ATOM      2  N   UNL     1      -7.558   1.838  -1.773  0.00  0.00    -0.133 NA
ATOM      3  N   UNL     1      -6.513   1.769  -2.522  0.00  0.00    -0.134 NA
ATOM      4  C   UNL     1      -5.615   2.608  -2.094  0.00  0.00    +0.132 A 
ATOM      5  N   UNL     1      -6.125   3.222  -0.998  0.00  0.00    -0.315 N 
ATOM      6  C   UNL     1      -5.437   4.211  -0.168  0.00  0.00    +0.106 C 
ATOM      7  C   UNL     1      -4.410   4.959  -1.024  0.00  0.00    -0.056 C 
ATOM      8  C   UNL     1      -3.223   2.900  -1.545  0.00  0.00    -0.071 C 
ATOM      9  C   UNL     1      -4.253   2.880  -2.679  0.00  0.00    +0.058 C 
ATOM     10  N   UNL     1      -3.098   4.271  -1.006  0.00  0.00    +0.384 N 
ATOM     11  H   UNL     1      -2.441   4.798  -1.594  0.00  0.00    -0.081 HD
ENDROOT
BRANCH   1  12
ATOM     12  C   UNL     1      -8.350   3.108   0.246  0.00  0.00    +0.146 C 
BRANCH  12  14
ATOM     13  C   UNL     1     -10.483   4.319   0.717  0.00  0.00    +0.009 C 
ATOM     14  C   UNL     1      -9.443   3.993  -0.356  0.00  0.00    +0.009 C 
ATOM     15  C   UNL     1      -8.822   5.290  -0.876  0.00  0.00    +0.009 C 
ENDBRANCH  12  14
BRANCH  12  16
ATOM     16  N   UNL     1      -8.955   1.901   0.813  0.00  0.00    -0.184 NA
ATOM     17  H   UNL     1      -9.721   1.493   0.379  0.00  0.00    +0.148 HD
BRANCH  16  18
ATOM     18  S   UNL     1      -8.331   1.231   2.193  0.00  0.00    +0.027 S 
ATOM     19  O   UNL     1      -9.163   0.111   2.460  0.00  0.00    -0.158 OA
ATOM     20  O   UNL     1      -6.948   1.057   1.919  0.00  0.00    -0.158 OA
ATOM     21  C   UNL     1      -8.560   2.498   3.470  0.00  0.00    +0.214 C 
ENDBRANCH  16  18
ENDBRANCH  12  16
ENDBRANCH   1  12
BRANCH  10  22
ATOM     22  C   UNL     1      -2.575   4.224   0.370  0.00  0.00    -0.039 C 
BRANCH  22  23
ATOM     23  C   UNL     1      -1.144   3.751   0.324  0.00  0.00    -0.018 A 
ATOM     24  C   UNL     1      -0.841   2.437   0.628  0.00  0.00    +0.009 A 
ATOM     25  C   UNL     1       0.470   2.001   0.591  0.00  0.00    +0.050 A 
ATOM     26  C   UNL     1       1.485   2.877   0.238  0.00  0.00    +0.165 A 
ATOM     27  C   UNL     1       1.184   4.197  -0.074  0.00  0.00    +0.204 A 
ATOM     28  C   UNL     1      -0.135   4.634  -0.030  0.00  0.00    +0.167 A 
BRANCH  28  29
ATOM     29  O   UNL     1      -0.435   5.925  -0.335  0.00  0.00    -0.491 OA
ATOM     30  C   UNL     1      -0.616   6.240  -1.717  0.00  0.00    +0.277 C 
ENDBRANCH  28  29
BRANCH  27  31
ATOM     31  O   UNL     1       2.177   5.060  -0.421  0.00  0.00    -0.488 OA
ATOM     32  C   UNL     1       2.758   5.837   0.628  0.00  0.00    +0.277 C 
ENDBRANCH  27  31
BRANCH  26  33
ATOM     33  O   UNL     1       2.774   2.445   0.198  0.00  0.00    -0.491 OA
ATOM     34  C   UNL     1       3.010   1.075   0.531  0.00  0.00    +0.277 C 
ENDBRANCH  26  33
ENDBRANCH  22  23
ENDBRANCH  10  22
TORSDOF 9
