REMARK  Name = ZINC40151087
REMARK  9 active torsions:
REMARK  status: ('A' for Active; 'I' for Inactive)
REMARK    1  A    between atoms: C_4  and  N_7
REMARK    2  A    between atoms: N_7  and  N_8
REMARK    3  A    between atoms: C_9  and  C_10
REMARK    4  A    between atoms: C_9  and  C_22
REMARK    5  A    between atoms: C_22  and  C_24
REMARK    6  A    between atoms: C_22  and  O_29
REMARK    7  A    between atoms: C_24  and  C_26
REMARK    8  A    between atoms: C_24  and  O_28
REMARK    9  A    between atoms: C_26  and  O_27
REMARK                            x       y       z     vdW  Elec       q    Type
REMARK                         _______ _______ _______ _____ _____    ______ ____
ROOT
ATOM      1  N   UNL     1       3.655  -2.073   0.117  0.00  0.00    -0.186 NA
ATOM      2  C   UNL     1       4.753  -2.672  -0.157  0.00  0.00    +0.099 C 
ENDROOT
BRANCH   2   3
ATOM      3  C   UNL     1       6.049  -1.903  -0.166  0.00  0.00    +0.215 C 
ATOM      4  C   UNL     1       6.650  -1.996   1.218  0.00  0.00    +0.245 C 
ATOM      5  O   UNL     1       6.028  -1.608   2.186  0.00  0.00    -0.273 OA
ATOM      6  N   UNL     1       7.873  -2.510   1.362  0.00  0.00    -0.282 N 
ATOM      7  C   UNL     1       8.571  -2.940   0.324  0.00  0.00    +0.057 A 
ATOM      8  C   UNL     1       9.864  -3.479   0.512  0.00  0.00    +0.025 A 
ATOM      9  C   UNL     1      10.583  -3.920  -0.547  0.00  0.00    +0.002 A 
ATOM     10  C   UNL     1      10.102  -3.871  -1.866  0.00  0.00    +0.002 A 
ATOM     11  C   UNL     1       8.879  -3.376  -2.157  0.00  0.00    +0.027 A 
ATOM     12  C   UNL     1       8.035  -2.875  -1.059  0.00  0.00    +0.058 A 
ATOM     13  N   UNL     1       6.852  -2.391  -1.299  0.00  0.00    -0.368 N 
ATOM     14  H   UNL     1       8.260  -2.570   2.249  0.00  0.00    +0.155 HD
ATOM     15  H   UNL     1       6.507  -2.352  -2.204  0.00  0.00    +0.161 HD
ENDBRANCH   2   3
BRANCH   1  16
ATOM     16  N   UNL     1       3.672  -0.732   0.523  0.00  0.00    -0.238 N 
ATOM     17  H   UNL     1       4.517  -0.281   0.672  0.00  0.00    +0.174 HD
BRANCH  16  21
ATOM     18  C   UNL     1       0.091   1.315   1.091  0.00  0.00    +0.000 A 
ATOM     19  C   UNL     1       1.296   1.960   1.305  0.00  0.00    +0.002 A 
ATOM     20  C   UNL     1       2.485   1.284   1.117  0.00  0.00    +0.025 A 
ATOM     21  C   UNL     1       2.471  -0.046   0.714  0.00  0.00    +0.048 A 
ATOM     22  C   UNL     1       1.259  -0.691   0.501  0.00  0.00    +0.025 A 
ATOM     23  C   UNL     1       0.073  -0.009   0.690  0.00  0.00    +0.002 A 
ENDBRANCH  16  21
ENDBRANCH   1  16
BRANCH   2  24
ATOM     24  C   UNL     1       4.749  -4.146  -0.469  0.00  0.00    +0.193 C 
BRANCH  24  25
ATOM     25  O   UNL     1       5.567  -4.836   0.479  0.00  0.00    -0.383 OA
ATOM     26  H   UNL     1       6.490  -4.548   0.485  0.00  0.00    +0.210 HD
ENDBRANCH  24  25
BRANCH  24  27
ATOM     27  C   UNL     1       3.317  -4.680  -0.392  0.00  0.00    +0.174 C 
BRANCH  27  28
ATOM     28  O   UNL     1       2.761  -4.367   0.887  0.00  0.00    -0.387 OA
ATOM     29  H   UNL     1       3.247  -4.747   1.631  0.00  0.00    +0.210 HD
ENDBRANCH  27  28
BRANCH  27  30
ATOM     30  C   UNL     1       3.328  -6.198  -0.586  0.00  0.00    +0.190 C 
BRANCH  30  31
ATOM     31  O   UNL     1       1.984  -6.682  -0.630  0.00  0.00    -0.392 OA
ATOM     32  H   UNL     1       1.914  -7.638  -0.751  0.00  0.00    +0.210 HD
ENDBRANCH  30  31
ENDBRANCH  27  30
ENDBRANCH  24  27
ENDBRANCH   2  24
TORSDOF 9
