REMARK  Name = ZINC44452591
REMARK  5 active torsions:
REMARK  status: ('A' for Active; 'I' for Inactive)
REMARK    1  A    between atoms: C_3  and  S_24
REMARK    2  A    between atoms: C_6  and  C_7
REMARK    3  A    between atoms: N_9  and  C_10
REMARK    4  A    between atoms: C_11  and  C_18
REMARK    5  A    between atoms: S_24  and  N_27
REMARK                            x       y       z     vdW  Elec       q    Type
REMARK                         _______ _______ _______ _____ _____    ______ ____
ROOT
ATOM      1  C   UNL     1      -1.266  -0.764   0.011  0.00  0.00    +0.249 C 
ATOM      2  O   UNL     1      -2.328  -0.173   0.024  0.00  0.00    -0.270 OA
ATOM      3  N   UNL     1      -1.244  -2.111   0.003  0.00  0.00    -0.275 N 
ATOM      4  H   UNL     1      -0.396  -2.583  -0.008  0.00  0.00    +0.156 HD
ENDROOT
BRANCH   3   5
ATOM      5  C   UNL     1      -2.432  -2.823   0.011  0.00  0.00    +0.085 A 
ATOM      6  C   UNL     1      -2.601  -4.196   0.011  0.00  0.00    +0.069 A 
ATOM      7  C   UNL     1      -3.974  -4.702   0.021  0.00  0.00    -0.023 A 
ATOM      8  C   UNL     1      -4.913  -3.739   0.028  0.00  0.00    -0.004 A 
ATOM      9  S   UNL     1      -3.996  -2.219   0.030  0.00  0.00    -0.077 S 
ATOM     10  C   UNL     1      -6.304  -4.312   0.034  0.00  0.00    +0.043 C 
ATOM     11  C   UNL     1      -6.122  -5.783  -0.403  0.00  0.00    +0.010 C 
ATOM     12  C   UNL     1      -4.668  -6.062   0.029  0.00  0.00    +0.037 C 
BRANCH   6  13
ATOM     13  C   UNL     1      -1.454  -5.106   0.001  0.00  0.00    +0.254 C 
ATOM     14  O   UNL     1      -0.968  -5.486   1.050  0.00  0.00    -0.270 OA
ATOM     15  N   UNL     1      -0.935  -5.523  -1.171  0.00  0.00    -0.236 N 
ATOM     16  C   UNL     1       0.121  -6.361  -1.181  0.00  0.00    +0.304 C 
ATOM     17  O   UNL     1       0.606  -6.740  -0.133  0.00  0.00    -0.253 OA
ATOM     18  N   UNL     1       0.640  -6.778  -2.353  0.00  0.00    -0.313 N 
ATOM     19  H   UNL     1      -1.321  -5.221  -2.008  0.00  0.00    +0.159 HD
ATOM     20  H   UNL     1       0.253  -6.475  -3.189  0.00  0.00    +0.146 HD
ATOM     21  H   UNL     1       1.400  -7.380  -2.360  0.00  0.00    +0.146 HD
ENDBRANCH   6  13
ENDBRANCH   3   5
BRANCH   1  27
ATOM     22  C   UNL     1      -0.017   1.392   0.010  0.00  0.00    +0.015 A 
ATOM     23  C   UNL     1       1.170   2.095   0.002  0.00  0.00    +0.029 A 
ATOM     24  C   UNL     1       2.378   1.419  -0.013  0.00  0.00    +0.106 A 
ATOM     25  C   UNL     1       2.404   0.036  -0.021  0.00  0.00    +0.029 A 
ATOM     26  C   UNL     1       1.224  -0.679  -0.014  0.00  0.00    +0.015 A 
ATOM     27  C   UNL     1       0.002  -0.004   0.002  0.00  0.00    +0.037 A 
BRANCH  24  28
ATOM     28  S   UNL     1       3.889   2.325  -0.023  0.00  0.00    +0.061 S 
ATOM     29  O   UNL     1       4.872   1.468  -0.588  0.00  0.00    -0.153 OA
ATOM     30  O   UNL     1       3.592   3.604  -0.565  0.00  0.00    -0.153 OA
BRANCH  28  31
ATOM     31  N   UNL     1       4.324   2.568   1.556  0.00  0.00    -0.177 NA
ATOM     32  C   UNL     1       3.867   3.760   2.283  0.00  0.00    +0.109 C 
ATOM     33  C   UNL     1       3.184   3.314   3.580  0.00  0.00    +0.017 C 
ATOM     34  C   UNL     1       4.141   2.422   4.375  0.00  0.00    +0.003 C 
ATOM     35  C   UNL     1       4.479   1.175   3.553  0.00  0.00    +0.017 C 
ATOM     36  C   UNL     1       5.171   1.594   2.258  0.00  0.00    +0.109 C 
ENDBRANCH  28  31
ENDBRANCH  24  28
ENDBRANCH   1  27
TORSDOF 5
