REMARK  Name = ZINC04278436
REMARK  7 active torsions:
REMARK  status: ('A' for Active; 'I' for Inactive)
REMARK    1  A    between atoms: C_1  and  N_2
REMARK    2  A    between atoms: C_6  and  C_8
REMARK    3  A    between atoms: C_8  and  C_10
REMARK    4  A    between atoms: C_8  and  O_16
REMARK    5  A    between atoms: O_16  and  C_17
REMARK    6  A    between atoms: C_17  and  C_19
REMARK    7  A    between atoms: C_19  and  N_20
REMARK                            x       y       z     vdW  Elec       q    Type
REMARK                         _______ _______ _______ _____ _____    ______ ____
ROOT
ATOM      1  O   UNL     1      -2.417   0.989   0.138  0.00  0.00    -0.446 OA
ENDROOT
BRANCH   1   2
ATOM      2  C   UNL     1      -3.530   1.408   0.761  0.00  0.00    +0.330 C 
ATOM      3  O   UNL     1      -3.593   2.535   1.193  0.00  0.00    -0.249 OA
BRANCH   2   4
ATOM      4  C   UNL     1      -4.700   0.473   0.923  0.00  0.00    +0.265 C 
BRANCH   4   5
ATOM      5  N   UNL     1      -5.782   1.162   1.630  0.00  0.00    -0.238 N 
ATOM      6  C   UNL     1      -6.699   1.844   0.917  0.00  0.00    +0.274 A 
ATOM      7  O   UNL     1      -6.626   1.883  -0.296  0.00  0.00    -0.266 OA
ATOM      8  C   UNL     1      -7.799   2.540   1.620  0.00  0.00    +0.053 A 
ATOM      9  C   UNL     1      -8.769   3.251   0.929  0.00  0.00    +0.014 A 
ATOM     10  C   UNL     1      -9.777   3.892   1.629  0.00  0.00    +0.001 A 
ATOM     11  C   UNL     1      -9.823   3.828   3.011  0.00  0.00    +0.001 A 
ATOM     12  C   UNL     1      -8.862   3.123   3.715  0.00  0.00    +0.014 A 
ATOM     13  C   UNL     1      -7.845   2.475   3.027  0.00  0.00    +0.053 A 
ATOM     14  C   UNL     1      -6.796   1.709   3.734  0.00  0.00    +0.271 A 
ATOM     15  O   UNL     1      -6.806   1.633   4.947  0.00  0.00    -0.266 OA
ATOM     16  N   UNL     1      -5.829   1.097   3.024  0.00  0.00    -0.260 N 
ATOM     17  H   UNL     1      -5.144   0.597   3.494  0.00  0.00    +0.190 HD
ENDBRANCH   4   5
ENDBRANCH   2   4
ENDBRANCH   1   2
BRANCH   1  18
ATOM     18  C   UNL     1      -1.330   1.944   0.019  0.00  0.00    +0.292 C 
BRANCH  18  24
ATOM     19  C   UNL     1       4.756   1.214  -0.037  0.00  0.00    +0.129 C 
ATOM     20  N   UNL     1       3.478   1.930  -0.021  0.00  0.00    -0.302 N 
ATOM     21  C   UNL     1       2.320   1.240  -0.013  0.00  0.00    +0.306 C 
ATOM     22  O   UNL     1       2.336   0.025  -0.020  0.00  0.00    -0.252 OA
ATOM     23  N   UNL     1       1.143   1.898   0.001  0.00  0.00    -0.237 N 
ATOM     24  C   UNL     1      -0.014   1.208   0.009  0.00  0.00    +0.266 C 
ATOM     25  O   UNL     1       0.002  -0.004   0.002  0.00  0.00    -0.271 OA
ATOM     26  H   UNL     1       3.465   2.900  -0.015  0.00  0.00    +0.150 HD
ATOM     27  H   UNL     1       1.130   2.868   0.007  0.00  0.00    +0.159 HD
ENDBRANCH  18  24
BRANCH  18  28
ATOM     28  C   UNL     1      -1.481   2.720  -1.264  0.00  0.00    +0.002 A 
ATOM     29  C   UNL     1      -1.982   2.099  -2.393  0.00  0.00    +0.008 A 
ATOM     30  C   UNL     1      -2.125   2.812  -3.568  0.00  0.00    +0.000 A 
ATOM     31  C   UNL     1      -1.758   4.144  -3.617  0.00  0.00    +0.000 A 
ATOM     32  C   UNL     1      -1.252   4.764  -2.490  0.00  0.00    +0.000 A 
ATOM     33  C   UNL     1      -1.113   4.052  -1.313  0.00  0.00    +0.008 A 
ENDBRANCH  18  28
ENDBRANCH   1  18
TORSDOF 6
