REMARK  Name = ZINC32841154
REMARK  7 active torsions:
REMARK  status: ('A' for Active; 'I' for Inactive)
REMARK    1  A    between atoms: C_1  and  C_2
REMARK    2  A    between atoms: C_2  and  C_4
REMARK    3  A    between atoms: C_2  and  O_14
REMARK    4  A    between atoms: N_6  and  C_7
REMARK    5  A    between atoms: C_8  and  C_12
REMARK    6  A    between atoms: O_14  and  C_15
REMARK    7  A    between atoms: C_15  and  C_17
REMARK                            x       y       z     vdW  Elec       q    Type
REMARK                         _______ _______ _______ _____ _____    ______ ____
ROOT
ATOM      1  O   UNL     1       2.264   8.206  -0.279  0.00  0.00    -0.449 OA
ENDROOT
BRANCH   1   3
ATOM      2  C   UNL     1       1.692  10.189  -1.572  0.00  0.00    +0.062 C 
ATOM      3  C   UNL     1       2.195   9.655  -0.230  0.00  0.00    +0.259 C 
BRANCH   3   4
ATOM      4  C   UNL     1       3.567  10.213   0.050  0.00  0.00    +0.258 C 
ATOM      5  O   UNL     1       4.525   9.471   0.103  0.00  0.00    -0.271 OA
ATOM      6  N   UNL     1       3.730  11.537   0.241  0.00  0.00    -0.276 N 
ATOM      7  H   UNL     1       2.861  12.211   0.193  0.00  0.00    +0.155 HD
BRANCH   6   8
ATOM      8  C   UNL     1       4.993  12.052   0.498  0.00  0.00    +0.089 A 
ATOM      9  C   UNL     1       5.359  13.374   0.714  0.00  0.00    +0.080 A 
ATOM     10  C   UNL     1       6.757  13.629   0.964  0.00  0.00    +0.028 A 
ATOM     11  C   UNL     1       7.586  12.568   0.958  0.00  0.00    +0.048 A 
ATOM     12  S   UNL     1       6.496  11.200   0.620  0.00  0.00    -0.081 S 
BRANCH   9  13
ATOM     13  C   UNL     1       4.395  14.433   0.693  0.00  0.00    +0.102 C 
ATOM     14  N   UNL     1       3.630  15.272   0.676  0.00  0.00    -0.191 NA
ENDBRANCH   9  13
ENDBRANCH   6   8
ENDBRANCH   3   4
ENDBRANCH   1   3
BRANCH   1  15
ATOM     15  C   UNL     1       1.161   7.528   0.098  0.00  0.00    +0.340 C 
ATOM     16  O   UNL     1       0.171   8.132   0.458  0.00  0.00    -0.245 OA
BRANCH  15  17
ATOM     17  C   UNL     1       1.158   6.054   0.072  0.00  0.00    +0.059 A 
ATOM     18  C   UNL     1       2.297   5.357  -0.342  0.00  0.00    +0.017 A 
ATOM     19  C   UNL     1       2.290   3.981  -0.365  0.00  0.00    +0.024 A 
ATOM     20  C   UNL     1       1.151   3.282   0.025  0.00  0.00    +0.037 A 
ATOM     21  C   UNL     1       0.016   3.973   0.438  0.00  0.00    -0.025 A 
ATOM     22  C   UNL     1       0.015   5.349   0.463  0.00  0.00    +0.020 A 
ATOM     23  C   UNL     1      -1.214   3.210   0.859  0.00  0.00    +0.046 C 
ATOM     24  C   UNL     1      -1.333   1.934   0.019  0.00  0.00    +0.101 C 
ATOM     25  C   UNL     1      -0.014   1.209   0.009  0.00  0.00    +0.218 C 
ATOM     26  O   UNL     1       0.002  -0.004   0.002  0.00  0.00    -0.275 OA
ATOM     27  N   UNL     1       1.146   1.889   0.001  0.00  0.00    -0.285 N 
ATOM     28  H   UNL     1       2.097   1.336  -0.023  0.00  0.00    +0.155 HD
ENDBRANCH  15  17
ENDBRANCH   1  15
TORSDOF 6
