REMARK  Name = ZINC42095761
REMARK  7 active torsions:
REMARK  status: ('A' for Active; 'I' for Inactive)
REMARK    1  A    between atoms: C_1  and  C_2
REMARK    2  A    between atoms: C_4  and  N_22
REMARK    3  A    between atoms: C_7  and  N_8
REMARK    4  A    between atoms: C_9  and  C_11
REMARK    5  A    between atoms: C_11  and  C_13
REMARK    6  A    between atoms: C_11  and  S_14
REMARK    7  A    between atoms: S_14  and  C_15
REMARK                            x       y       z     vdW  Elec       q    Type
REMARK                         _______ _______ _______ _____ _____    ______ ____
ROOT
ATOM      1  N   UNL     1       0.044  -0.049   2.407  0.00  0.00    -0.284 N 
ATOM      2  C   UNL     1      -0.043  -0.717   3.574  0.00  0.00    +0.230 C 
ATOM      3  O   UNL     1      -0.025  -1.930   3.582  0.00  0.00    -0.274 OA
ATOM      4  H   UNL     1       0.092   0.920   2.405  0.00  0.00    +0.155 HD
ENDROOT
BRANCH   1  11
ATOM      5  C   UNL     1      -1.229   1.121   0.147  0.00  0.00    +0.046 C 
ATOM      6  C   UNL     1      -0.543  -0.218   0.071  0.00  0.00    -0.027 A 
ATOM      7  C   UNL     1      -0.515  -0.913  -1.123  0.00  0.00    +0.038 A 
ATOM      8  C   UNL     1       0.114  -2.143  -1.194  0.00  0.00    +0.127 A 
ATOM      9  C   UNL     1       0.717  -2.680  -0.072  0.00  0.00    +0.034 A 
ATOM     10  C   UNL     1       0.693  -1.990   1.124  0.00  0.00    +0.026 A 
ATOM     11  C   UNL     1       0.066  -0.753   1.198  0.00  0.00    +0.036 A 
BRANCH   8  12
ATOM     12  N   UNL     1       0.142  -2.885  -2.474  0.00  0.00    +0.056 N 
ATOM     13  O   UNL     1      -0.385  -2.416  -3.457  0.00  0.00    -0.126 OA
ATOM     14  O   UNL     1       0.692  -3.960  -2.538  0.00  0.00    -0.126 OA
ENDBRANCH   8  12
ENDBRANCH   1  11
BRANCH   2  15
ATOM     15  C   UNL     1      -0.164   0.042   4.870  0.00  0.00    +0.134 C 
ATOM     16  C   UNL     1       1.217   0.538   5.302  0.00  0.00    +0.029 C 
BRANCH  15  17
ATOM     17  S   UNL     1      -0.842  -1.050   6.150  0.00  0.00    -0.110 S 
BRANCH  17  18
ATOM     18  C   UNL     1      -2.519  -1.285   5.666  0.00  0.00    +0.044 A 
ATOM     19  C   UNL     1      -2.979  -0.754   4.468  0.00  0.00    +0.017 A 
ATOM     20  C   UNL     1      -4.295  -0.940   4.092  0.00  0.00    +0.001 A 
ATOM     21  C   UNL     1      -5.156  -1.653   4.905  0.00  0.00    +0.003 A 
ATOM     22  C   UNL     1      -4.703  -2.184   6.100  0.00  0.00    +0.039 A 
ATOM     23  C   UNL     1      -3.386  -2.007   6.481  0.00  0.00    +0.137 A 
ATOM     24  F   UNL     1      -2.942  -2.531   7.644  0.00  0.00    -0.204 F 
ENDBRANCH  17  18
ENDBRANCH  15  17
ENDBRANCH   2  15
TORSDOF 5
