REMARK  Name = ZINC13939164
REMARK  8 active torsions:
REMARK  status: ('A' for Active; 'I' for Inactive)
REMARK    1  A    between atoms: C_1  and  C_2
REMARK    2  A    between atoms: C_2  and  C_3
REMARK    3  A    between atoms: C_3  and  C_4
REMARK    4  A    between atoms: C_4  and  C_6
REMARK    5  A    between atoms: C_4  and  N_7
REMARK    6  A    between atoms: N_7  and  S_8
REMARK    7  A    between atoms: S_8  and  C_11
REMARK    8  A    between atoms: C_15  and  N_17
REMARK                            x       y       z     vdW  Elec       q    Type
REMARK                         _______ _______ _______ _____ _____    ______ ____
ROOT
ATOM      1  S   UNL     1       1.124  -3.905   0.643  0.00  0.00    +0.059 S 
ATOM      2  O   UNL     1       2.106  -4.118   1.648  0.00  0.00    -0.153 OA
ATOM      3  O   UNL     1      -0.261  -3.797   0.941  0.00  0.00    -0.153 OA
ENDROOT
BRANCH   1   4
ATOM      4  C   UNL     1       1.290  -5.226  -0.511  0.00  0.00    +0.107 A 
ATOM      5  C   UNL     1       0.219  -5.586  -1.308  0.00  0.00    +0.028 A 
ATOM      6  C   UNL     1       0.349  -6.622  -2.213  0.00  0.00    +0.004 A 
ATOM      7  C   UNL     1       1.550  -7.298  -2.322  0.00  0.00    +0.033 A 
ATOM      8  C   UNL     1       2.621  -6.938  -1.526  0.00  0.00    +0.128 A 
ATOM      9  C   UNL     1       2.492  -5.898  -0.624  0.00  0.00    +0.061 A 
BRANCH   8  10
ATOM     10  N   UNL     1       3.906  -7.662  -1.643  0.00  0.00    +0.056 N 
ATOM     11  O   UNL     1       4.020  -8.569  -2.434  0.00  0.00    -0.126 OA
ATOM     12  O   UNL     1       4.843  -7.346  -0.947  0.00  0.00    -0.126 OA
ENDBRANCH   8  10
ENDBRANCH   1   4
BRANCH   1  13
ATOM     13  N   UNL     1       1.548  -2.511  -0.144  0.00  0.00    -0.187 NA
ATOM     14  H   UNL     1       2.333  -2.015   0.137  0.00  0.00    +0.148 HD
BRANCH  13  15
ATOM     15  C   UNL     1       0.739  -2.027  -1.265  0.00  0.00    +0.073 C 
ATOM     16  C   UNL     1       1.343  -2.522  -2.581  0.00  0.00    +0.025 C 
BRANCH  15  17
ATOM     17  C   UNL     1       0.718  -0.497  -1.257  0.00  0.00    +0.020 C 
BRANCH  17  19
ATOM     18  C   UNL     1      -0.019   1.526   0.010  0.00  0.00    +0.004 C 
ATOM     19  C   UNL     1       0.002  -0.004   0.002  0.00  0.00    -0.002 C 
ENDBRANCH  17  19
ENDBRANCH  15  17
ENDBRANCH  13  15
ENDBRANCH   1  13
TORSDOF 6
