REMARK  Name = ZINC05483298
REMARK  4 active torsions:
REMARK  status: ('A' for Active; 'I' for Inactive)
REMARK    1  A    between atoms: C_5  and  C_7
REMARK    2  A    between atoms: C_10  and  C_21
REMARK    3  A    between atoms: C_16  and  N_20
REMARK    4  A    between atoms: C_17  and  C_18
REMARK                            x       y       z     vdW  Elec       q    Type
REMARK                         _______ _______ _______ _____ _____    ______ ____
ROOT
ATOM      1  C   UNL     1       1.229  -2.186  -0.022  0.00  0.00    +0.103 C 
ATOM      2  C   UNL     1       0.526  -2.711   1.203  0.00  0.00    +0.054 A 
ATOM      3  C   UNL     1       0.947  -2.703   2.536  0.00  0.00    +0.100 A 
ATOM      4  N   UNL     1       0.003  -3.270   3.264  0.00  0.00    -0.171 NA
ATOM      5  N   UNL     1      -1.043  -3.653   2.410  0.00  0.00    -0.246 N 
ATOM      6  H   UNL     1      -1.866  -4.092   2.677  0.00  0.00    +0.192 HD
ATOM      7  C   UNL     1      -0.703  -3.303   1.152  0.00  0.00    +0.223 A 
ATOM      8  O   UNL     1      -1.388  -3.469  -0.007  0.00  0.00    -0.423 OA
ATOM      9  C   UNL     1      -0.717  -3.283  -1.162  0.00  0.00    +0.200 C 
ATOM     10  C   UNL     1       0.500  -2.698  -1.240  0.00  0.00    +0.098 C 
ENDROOT
BRANCH   3  11
ATOM     11  C   UNL     1       2.229  -2.154   3.044  0.00  0.00    +0.006 A 
ATOM     12  C   UNL     1       3.383  -2.249   2.270  0.00  0.00    +0.014 A 
ATOM     13  C   UNL     1       4.575  -1.738   2.742  0.00  0.00    +0.050 A 
ATOM     14  C   UNL     1       4.628  -1.129   3.987  0.00  0.00    +0.166 A 
ATOM     15  C   UNL     1       3.476  -1.032   4.765  0.00  0.00    +0.167 A 
ATOM     16  C   UNL     1       2.279  -1.538   4.293  0.00  0.00    +0.059 A 
ATOM     17  O   UNL     1       3.791  -0.398   5.933  0.00  0.00    -0.453 OA
ATOM     18  C   UNL     1       5.225  -0.473   6.037  0.00  0.00    +0.466 C 
ATOM     19  O   UNL     1       5.663  -0.556   4.668  0.00  0.00    -0.453 OA
ENDBRANCH   3  11
BRANCH   1  24
ATOM     20  C   UNL     1      -0.017   1.378   0.010  0.00  0.00    +0.000 A 
ATOM     21  C   UNL     1       1.171   2.086   0.002  0.00  0.00    +0.001 A 
ATOM     22  C   UNL     1       2.377   1.412  -0.013  0.00  0.00    +0.020 A 
ATOM     23  C   UNL     1       2.397   0.029  -0.021  0.00  0.00    +0.045 A 
ATOM     24  C   UNL     1       1.208  -0.679  -0.013  0.00  0.00    -0.016 A 
ATOM     25  C   UNL     1       0.002  -0.004   0.002  0.00  0.00    +0.006 A 
ATOM     26 CL   UNL     1       3.912  -0.818  -0.041  0.00  0.00    -0.083 Cl
ENDBRANCH   1  24
BRANCH   9  27
ATOM     27  N   UNL     1      -1.302  -3.714  -2.326  0.00  0.00    -0.328 N 
ATOM     28  H   UNL     1      -2.174  -4.138  -2.303  0.00  0.00    +0.145 HD
ATOM     29  H   UNL     1      -0.843  -3.594  -3.173  0.00  0.00    +0.145 HD
ENDBRANCH   9  27
BRANCH  10  30
ATOM     30  C   UNL     1       1.119  -2.559  -2.523  0.00  0.00    +0.101 C 
ATOM     31  N   UNL     1       1.611  -2.448  -3.541  0.00  0.00    -0.191 NA
ENDBRANCH  10  30
TORSDOF 4
