REMARK  Name = ZINC50639215
REMARK  6 active torsions:
REMARK  status: ('A' for Active; 'I' for Inactive)
REMARK    1  A    between atoms: C_3  and  N_21
REMARK    2  A    between atoms: C_4  and  S_10
REMARK    3  A    between atoms: C_6  and  N_7
REMARK    4  A    between atoms: S_10  and  N_13
REMARK    5  A    between atoms: N_13  and  C_14
REMARK    6  A    between atoms: C_17  and  O_20
REMARK                            x       y       z     vdW  Elec       q    Type
REMARK                         _______ _______ _______ _____ _____    ______ ____
ROOT
ATOM      1  S   UNL     1       4.615  -0.761   0.049  0.00  0.00    +0.060 S 
ATOM      2  O   UNL     1       5.778  -0.371   0.766  0.00  0.00    -0.153 OA
ATOM      3  O   UNL     1       4.157  -2.106   0.013  0.00  0.00    -0.153 OA
ENDROOT
BRANCH   1   7
ATOM      4  C   UNL     1       1.195   1.727   1.677  0.00  0.00    +0.034 A 
ATOM      5  C   UNL     1       0.965   0.837   0.646  0.00  0.00    +0.027 A 
ATOM      6  C   UNL     1       2.011   0.073   0.144  0.00  0.00    +0.051 A 
ATOM      7  C   UNL     1       3.285   0.206   0.682  0.00  0.00    +0.128 A 
ATOM      8  C   UNL     1       3.508   1.097   1.712  0.00  0.00    +0.063 A 
ATOM      9  C   UNL     1       2.465   1.857   2.210  0.00  0.00    +0.128 A 
BRANCH   9  10
ATOM     10  N   UNL     1       2.707   2.811   3.315  0.00  0.00    +0.056 N 
ATOM     11  O   UNL     1       1.796   3.476   3.751  0.00  0.00    -0.126 OA
ATOM     12  O   UNL     1       3.817   2.926   3.781  0.00  0.00    -0.126 OA
ENDBRANCH   9  10
BRANCH   6  13
ATOM     13  N   UNL     1       1.781  -0.828  -0.898  0.00  0.00    -0.356 N 
ATOM     14  H   UNL     1       0.886  -0.940  -1.255  0.00  0.00    +0.142 HD
ATOM     15  H   UNL     1       2.517  -1.342  -1.266  0.00  0.00    +0.142 HD
ENDBRANCH   6  13
ENDBRANCH   1   7
BRANCH   1  16
ATOM     16  N   UNL     1       4.851  -0.300  -1.524  0.00  0.00    -0.187 NA
ATOM     17  H   UNL     1       4.707  -0.935  -2.243  0.00  0.00    +0.148 HD
BRANCH  16  18
ATOM     18  C   UNL     1       5.278   1.068  -1.829  0.00  0.00    +0.077 C 
ATOM     19  C   UNL     1       4.242   1.735  -2.737  0.00  0.00    +0.023 C 
ATOM     20  C   UNL     1       4.687   3.163  -3.056  0.00  0.00    +0.033 C 
ATOM     21  C   UNL     1       6.041   3.128  -3.768  0.00  0.00    +0.115 C 
ATOM     22  C   UNL     1       7.077   2.462  -2.861  0.00  0.00    +0.033 C 
ATOM     23  C   UNL     1       6.631   1.033  -2.541  0.00  0.00    +0.023 C 
BRANCH  21  24
ATOM     24  O   UNL     1       6.457   4.463  -4.066  0.00  0.00    -0.392 OA
ATOM     25  H   UNL     1       7.310   4.517  -4.519  0.00  0.00    +0.210 HD
ENDBRANCH  21  24
ENDBRANCH  16  18
ENDBRANCH   1  16
TORSDOF 6
