REMARK  Name = ZINC64960831
REMARK  8 active torsions:
REMARK  status: ('A' for Active; 'I' for Inactive)
REMARK    1  A    between atoms: C_1  and  O_2
REMARK    2  A    between atoms: O_2  and  C_3
REMARK    3  A    between atoms: C_5  and  C_13
REMARK    4  A    between atoms: C_7  and  O_11
REMARK    5  A    between atoms: C_8  and  O_9
REMARK    6  A    between atoms: O_9  and  C_10
REMARK    7  A    between atoms: O_11  and  C_12
REMARK    8  A    between atoms: C_16  and  C_20
REMARK                            x       y       z     vdW  Elec       q    Type
REMARK                         _______ _______ _______ _____ _____    ______ ____
ROOT
ATOM      1  C   UNL     1       2.410   0.795  -4.205  0.00  0.00    +0.181 C 
ATOM      2  N   UNL     1       2.429  -0.089  -5.395  0.00  0.00    -0.265 NA
ATOM      3  C   UNL     1       1.992   0.741  -6.535  0.00  0.00    +0.247 C 
ATOM      4  O   UNL     1       1.744   2.065  -6.028  0.00  0.00    -0.274 OA
ATOM      5  N   UNL     1       1.463   1.877  -4.585  0.00  0.00    -0.177 NA
ATOM      6  H   UNL     1       3.353  -0.463  -5.552  0.00  0.00    +0.127 HD
ATOM      7  H   UNL     1       0.507   1.589  -4.439  0.00  0.00    +0.156 HD
ENDROOT
BRANCH   3   8
ATOM      8  C   UNL     1       3.075   0.783  -7.583  0.00  0.00    +0.061 A 
ATOM      9  H   UNL     1       5.371   2.784  -8.669  0.00  0.00    +0.165 HD
ATOM     10  C   UNL     1       3.853   1.879  -7.702  0.00  0.00    +0.094 A 
ATOM     11  N   UNL     1       4.841   1.973  -8.626  0.00  0.00    -0.360 N 
ATOM     12  C   UNL     1       5.109   0.947  -9.504  0.00  0.00    +0.050 A 
ATOM     13  C   UNL     1       6.125   1.055 -10.448  0.00  0.00    +0.026 A 
ATOM     14  C   UNL     1       6.368   0.009 -11.312  0.00  0.00    +0.002 A 
ATOM     15  C   UNL     1       5.609  -1.151 -11.251  0.00  0.00    +0.001 A 
ATOM     16  C   UNL     1       4.606  -1.278 -10.331  0.00  0.00    +0.014 A 
ATOM     17  C   UNL     1       4.344  -0.231  -9.447  0.00  0.00    +0.045 A 
ATOM     18  C   UNL     1       3.276  -0.327  -8.436  0.00  0.00    +0.196 A 
ATOM     19  O   UNL     1       2.587  -1.329  -8.340  0.00  0.00    -0.287 OA
ENDBRANCH   3   8
BRANCH   1  22
ATOM     20  C   UNL     1       0.723   0.034  -0.910  0.00  0.00    +0.166 A 
ATOM     21  C   UNL     1       1.190   0.718  -2.022  0.00  0.00    +0.056 A 
ATOM     22  C   UNL     1       1.904   0.048  -2.998  0.00  0.00    -0.007 A 
ATOM     23  C   UNL     1       2.155  -1.306  -2.870  0.00  0.00    +0.056 A 
ATOM     24  C   UNL     1       1.691  -1.996  -1.760  0.00  0.00    +0.166 A 
ATOM     25  C   UNL     1       0.978  -1.325  -0.774  0.00  0.00    +0.204 A 
BRANCH  20  27
ATOM     26  C   UNL     1      -0.204   2.091  -0.156  0.00  0.00    +0.277 C 
ATOM     27  O   UNL     1       0.021   0.694   0.050  0.00  0.00    -0.491 OA
ENDBRANCH  20  27
BRANCH  25  28
ATOM     28  O   UNL     1       0.525  -1.999   0.319  0.00  0.00    -0.488 OA
ATOM     29  C   UNL     1      -0.775  -2.584   0.228  0.00  0.00    +0.277 C 
ENDBRANCH  25  28
BRANCH  24  30
ATOM     30  O   UNL     1       1.937  -3.328  -1.635  0.00  0.00    -0.491 OA
ATOM     31  C   UNL     1       2.681  -3.951  -2.684  0.00  0.00    +0.277 C 
ENDBRANCH  24  30
ENDBRANCH   1  22
TORSDOF 5
