REMARK  Name = ZINC67271768
REMARK  5 active torsions:
REMARK  status: ('A' for Active; 'I' for Inactive)
REMARK    1  A    between atoms: C_1  and  C_2
REMARK    2  A    between atoms: C_5  and  N_9
REMARK    3  A    between atoms: C_10  and  C_12
REMARK    4  A    between atoms: C_12  and  N_13
REMARK    5  A    between atoms: C_14  and  C_16
REMARK                            x       y       z     vdW  Elec       q    Type
REMARK                         _______ _______ _______ _____ _____    ______ ____
ROOT
ATOM      1  N   UNL     1      -0.234  -6.825  -2.571  0.00  0.00    -0.306 N 
ATOM      2  C   UNL     1      -0.329  -8.147  -2.818  0.00  0.00    +0.217 C 
ATOM      3  O   UNL     1      -0.333  -8.937  -1.897  0.00  0.00    -0.276 OA
ATOM      4  H   UNL     1      -0.231  -6.193  -3.307  0.00  0.00    +0.149 HD
ENDROOT
BRANCH   2   5
ATOM      5  C   UNL     1      -0.429  -8.643  -4.237  0.00  0.00    +0.075 C 
ATOM      6  C   UNL     1      -1.678  -8.053  -4.896  0.00  0.00    +0.015 C 
ATOM      7  C   UNL     1      -1.772  -8.547  -6.342  0.00  0.00    +0.036 C 
ATOM      8  C   UNL     1      -1.841 -10.070  -6.357  0.00  0.00    +0.112 C 
ATOM      9  C   UNL     1      -0.615 -10.673  -5.681  0.00  0.00    +0.036 C 
ATOM     10  C   UNL     1      -0.525 -10.170  -4.238  0.00  0.00    +0.015 C 
ATOM     11  C   UNL     1      -3.105 -10.549  -5.682  0.00  0.00    +0.244 C 
ATOM     12  O   UNL     1      -3.434 -10.370  -4.529  0.00  0.00    -0.273 OA
ATOM     13  N   UNL     1      -3.791 -11.217  -6.633  0.00  0.00    -0.238 N 
ATOM     14  C   UNL     1      -3.136 -11.224  -7.800  0.00  0.00    +0.307 C 
ATOM     15  O   UNL     1      -3.553 -11.763  -8.806  0.00  0.00    -0.252 OA
ATOM     16  N   UNL     1      -1.963 -10.565  -7.735  0.00  0.00    -0.285 N 
ATOM     17  H   UNL     1      -4.651 -11.641  -6.488  0.00  0.00    +0.159 HD
ATOM     18  H   UNL     1      -1.326 -10.441  -8.455  0.00  0.00    +0.151 HD
ENDBRANCH   2   5
BRANCH   1  19
ATOM     19  C   UNL     1      -0.136  -6.343  -1.191  0.00  0.00    +0.200 C 
BRANCH  19  21
ATOM     20  N   UNL     1       0.057  -4.171  -0.023  0.00  0.00    -0.283 N 
ATOM     21  C   UNL     1      -0.042  -4.839  -1.190  0.00  0.00    +0.234 C 
ATOM     22  O   UNL     1      -0.055  -4.230  -2.238  0.00  0.00    -0.274 OA
ATOM     23  H   UNL     1       0.149  -4.660   0.809  0.00  0.00    +0.155 HD
BRANCH  20  28
ATOM     24  C   UNL     1      -0.064   1.502   0.016  0.00  0.00    +0.044 C 
ATOM     25  C   UNL     1      -0.031  -0.005   0.006  0.00  0.00    -0.049 A 
ATOM     26  C   UNL     1      -0.622  -0.701  -1.033  0.00  0.00    +0.005 A 
ATOM     27  C   UNL     1      -0.594  -2.082  -1.045  0.00  0.00    +0.025 A 
ATOM     28  C   UNL     1       0.028  -2.772  -0.014  0.00  0.00    +0.052 A 
ATOM     29  C   UNL     1       0.621  -2.070   1.029  0.00  0.00    +0.062 A 
ATOM     30  C   UNL     1       0.595  -0.688   1.032  0.00  0.00    +0.025 A 
ATOM     31 CL   UNL     1       1.401  -2.928   2.321  0.00  0.00    -0.082 Cl
ENDBRANCH  20  28
ENDBRANCH  19  21
ENDBRANCH   1  19
TORSDOF 4
