REMARK  Name = ZINC64697349
REMARK  7 active torsions:
REMARK  status: ('A' for Active; 'I' for Inactive)
REMARK    1  A    between atoms: C_1  and  C_2
REMARK    2  A    between atoms: C_2  and  C_4
REMARK    3  A    between atoms: C_2  and  N_17
REMARK    4  A    between atoms: N_17  and  C_18
REMARK    5  A    between atoms: C_18  and  C_19
REMARK    6  A    between atoms: C_19  and  C_21
REMARK    7  A    between atoms: C_19  and  C_27
REMARK                            x       y       z     vdW  Elec       q    Type
REMARK                         _______ _______ _______ _____ _____    ______ ____
ROOT
ATOM      1  N   UNL     1       0.872  -0.261   1.191  0.00  0.00    +0.387 N 
ATOM      2  H   UNL     1       0.549  -0.082   2.131  0.00  0.00    -0.085 HD
ATOM      3  H   UNL     1       0.803  -1.248   0.995  0.00  0.00    -0.085 HD
ENDROOT
BRANCH   1   5
ATOM      4  C   UNL     1       0.046   1.970   0.612  0.00  0.00    -0.004 C 
ATOM      5  C   UNL     1       0.041   0.487   0.238  0.00  0.00    +0.013 C 
BRANCH   5   6
ATOM      6  C   UNL     1      -1.371  -0.038   0.281  0.00  0.00    +0.206 C 
ATOM      7  O   UNL     1      -1.783  -0.588   1.281  0.00  0.00    -0.277 OA
ATOM      8  N   UNL     1      -2.175   0.103  -0.790  0.00  0.00    -0.262 N 
ATOM      9  C   UNL     1      -1.669   0.666  -2.051  0.00  0.00    +0.209 C 
ATOM     10  C   UNL     1      -2.697   1.613  -2.614  0.00  0.00    +0.235 C 
ATOM     11  O   UNL     1      -2.338   2.549  -3.298  0.00  0.00    -0.274 OA
ATOM     12  N   UNL     1      -4.008   1.434  -2.369  0.00  0.00    -0.283 N 
ATOM     13  C   UNL     1      -4.445   0.392  -1.543  0.00  0.00    +0.055 A 
ATOM     14  C   UNL     1      -3.523  -0.287  -0.741  0.00  0.00    +0.058 A 
ATOM     15  C   UNL     1      -3.938  -1.318   0.082  0.00  0.00    +0.025 A 
ATOM     16  C   UNL     1      -5.273  -1.683   0.105  0.00  0.00    +0.002 A 
ATOM     17  C   UNL     1      -6.188  -1.020  -0.691  0.00  0.00    +0.002 A 
ATOM     18  C   UNL     1      -5.780   0.023  -1.514  0.00  0.00    +0.025 A 
ATOM     19  H   UNL     1      -4.658   2.033  -2.768  0.00  0.00    +0.155 HD
ENDBRANCH   5   6
ENDBRANCH   1   5
BRANCH   1  20
ATOM     20  C   UNL     1       2.271   0.168   1.064  0.00  0.00    -0.073 C 
BRANCH  20  21
ATOM     21  C   UNL     1       3.119  -0.537   2.125  0.00  0.00    +0.014 C 
BRANCH  21  22
ATOM     22  C   UNL     1       2.648  -0.129   3.497  0.00  0.00    -0.039 C 
ATOM     23  C   UNL     1       2.174  -0.941   4.469  0.00  0.00    -0.001 A 
ATOM     24  C   UNL     1       1.961  -2.391   4.537  0.00  0.00    +0.010 A 
ATOM     25  C   UNL     1       1.459  -2.928   5.672  0.00  0.00    +0.001 A 
ATOM     26  C   UNL     1       1.137  -2.136   6.782  0.00  0.00    +0.002 A 
ATOM     27  C   UNL     1       1.305  -0.797   6.796  0.00  0.00    +0.026 A 
ATOM     28  C   UNL     1       1.827  -0.126   5.655  0.00  0.00    +0.043 A 
ATOM     29  N   UNL     1       2.076   1.140   5.426  0.00  0.00    -0.380 N 
ATOM     30  C   UNL     1       2.617   1.271   4.068  0.00  0.00    +0.145 C 
ATOM     31  H   UNL     1       1.932   1.868   6.050  0.00  0.00    +0.160 HD
ENDBRANCH  21  22
BRANCH  21  32
ATOM     32  C   UNL     1       4.586  -0.141   1.950  0.00  0.00    +0.060 C 
ATOM     33  C   UNL     1       5.172  -0.698   0.626  0.00  0.00    +0.042 C 
ATOM     34  C   UNL     1       6.581  -1.159   0.822  0.00  0.00    -0.019 C 
ATOM     35  C   UNL     1       7.030  -1.397   2.039  0.00  0.00    +0.036 C 
ATOM     36  S   UNL     1       5.673  -1.033   3.141  0.00  0.00    -0.129 S 
ENDBRANCH  21  32
ENDBRANCH  20  21
ENDBRANCH   1  20
TORSDOF 6
