REMARK  Name = ZINC09731325
REMARK  9 active torsions:
REMARK  status: ('A' for Active; 'I' for Inactive)
REMARK    1  A    between atoms: C_1  and  C_2
REMARK    2  A    between atoms: C_2  and  O_3
REMARK    3  A    between atoms: O_3  and  C_4
REMARK    4  A    between atoms: C_6  and  C_11
REMARK    5  A    between atoms: C_9  and  O_10
REMARK    6  A    between atoms: C_14  and  C_31
REMARK    7  A    between atoms: N_16  and  C_24
REMARK    8  A    between atoms: C_19  and  N_23
REMARK    9  A    between atoms: C_20  and  C_21
REMARK                            x       y       z     vdW  Elec       q    Type
REMARK                         _______ _______ _______ _____ _____    ______ ____
ROOT
ATOM      1  C   UNL     1       1.282  -0.799  -0.012  0.00  0.00    +0.101 C 
ATOM      2  C   UNL     1       0.002  -0.004   0.002  0.00  0.00    +0.050 A 
ATOM      3  C   UNL     1      -1.312  -0.453   0.010  0.00  0.00    +0.068 A 
ATOM      4  N   UNL     1      -2.104   0.593   0.023  0.00  0.00    -0.168 NA
ATOM      5  N   UNL     1      -1.310   1.751   0.018  0.00  0.00    -0.200 N 
ATOM      6  C   UNL     1      -0.017   1.363   0.009  0.00  0.00    +0.230 A 
ATOM      7  O   UNL     1       1.114   2.111   0.003  0.00  0.00    -0.423 OA
ATOM      8  C   UNL     1       2.274   1.488  -0.288  0.00  0.00    +0.200 C 
ATOM      9  C   UNL     1       2.419   0.144  -0.315  0.00  0.00    +0.098 C 
ATOM     10  C   UNL     1      -1.753  -1.894   0.005  0.00  0.00    +0.068 C 
ENDROOT
BRANCH   5  11
ATOM     11  C   UNL     1      -1.776   3.073   0.030  0.00  0.00    +0.070 A 
ATOM     12  C   UNL     1      -2.940   3.406  -0.652  0.00  0.00    +0.028 A 
ATOM     13  C   UNL     1      -3.397   4.709  -0.639  0.00  0.00    +0.003 A 
ATOM     14  C   UNL     1      -2.699   5.682   0.052  0.00  0.00    +0.020 A 
ATOM     15  C   UNL     1      -1.540   5.354   0.732  0.00  0.00    +0.043 A 
ATOM     16  C   UNL     1      -1.080   4.050   0.727  0.00  0.00    +0.048 A 
ATOM     17 CL   UNL     1      -0.666   6.579   1.599  0.00  0.00    -0.083 Cl
ENDBRANCH   5  11
BRANCH   1  20
ATOM     18  C   UNL     1       1.778  -3.407   2.676  0.00  0.00    +0.162 A 
ATOM     19  C   UNL     1       1.576  -2.816   1.439  0.00  0.00    +0.054 A 
ATOM     20  C   UNL     1       1.497  -1.440   1.335  0.00  0.00    -0.031 A 
ATOM     21  C   UNL     1       1.610  -0.651   2.464  0.00  0.00    +0.008 A 
ATOM     22  C   UNL     1       1.808  -1.234   3.702  0.00  0.00    +0.049 A 
ATOM     23  C   UNL     1       1.892  -2.612   3.813  0.00  0.00    +0.158 A 
BRANCH  23  24
ATOM     24  O   UNL     1       2.086  -3.188   5.030  0.00  0.00    -0.503 OA
ATOM     25  H   UNL     1       1.268  -3.398   5.500  0.00  0.00    +0.292 HD
ENDBRANCH  23  24
BRANCH  18  26
ATOM     26  O   UNL     1       1.861  -4.760   2.780  0.00  0.00    -0.489 OA
BRANCH  26  28
ATOM     27  C   UNL     1       1.853  -7.005   1.885  0.00  0.00    +0.048 C 
ATOM     28  C   UNL     1       1.735  -5.513   1.571  0.00  0.00    +0.226 C 
ENDBRANCH  26  28
ENDBRANCH  18  26
ENDBRANCH   1  20
BRANCH   8  29
ATOM     29  N   UNL     1       3.371   2.262  -0.574  0.00  0.00    -0.328 N 
ATOM     30  H   UNL     1       4.219   1.843  -0.787  0.00  0.00    +0.145 HD
ATOM     31  H   UNL     1       3.297   3.229  -0.563  0.00  0.00    +0.145 HD
ENDBRANCH   8  29
BRANCH   9  32
ATOM     32  C   UNL     1       3.701  -0.404  -0.643  0.00  0.00    +0.101 C 
ATOM     33  N   UNL     1       4.717  -0.839  -0.904  0.00  0.00    -0.191 NA
ENDBRANCH   9  32
TORSDOF 7
