REMARK  Name = ZINC67168542
REMARK  5 active torsions:
REMARK  status: ('A' for Active; 'I' for Inactive)
REMARK    1  A    between atoms: C_1  and  C_2
REMARK    2  A    between atoms: C_5  and  N_13
REMARK    3  A    between atoms: C_14  and  C_16
REMARK    4  A    between atoms: N_18  and  C_21
REMARK    5  A    between atoms: C_25  and  N_27
REMARK                            x       y       z     vdW  Elec       q    Type
REMARK                         _______ _______ _______ _____ _____    ______ ____
ROOT
ATOM      1  N   UNL     1      -1.037  -2.996   0.027  0.00  0.00    -0.303 N 
ATOM      2  C   UNL     1      -1.357  -4.234   0.454  0.00  0.00    +0.266 C 
ATOM      3  O   UNL     1      -1.841  -4.390   1.558  0.00  0.00    -0.268 OA
ATOM      4  H   UNL     1      -0.651  -2.871  -0.854  0.00  0.00    +0.150 HD
ENDROOT
BRANCH   1   8
ATOM      5  C   UNL     1      -0.019   1.526   0.010  0.00  0.00    +0.012 C 
ATOM      6  C   UNL     1       0.002  -0.004   0.002  0.00  0.00    +0.018 C 
ATOM      7  C   UNL     1      -1.437  -0.559   0.048  0.00  0.00    +0.035 C 
ATOM      8  C   UNL     1      -1.272  -1.839   0.895  0.00  0.00    +0.104 C 
ATOM      9  C   UNL     1      -0.064  -1.582   1.770  0.00  0.00    -0.024 A 
ATOM     10  C   UNL     1       0.671  -0.527   1.255  0.00  0.00    -0.040 A 
ATOM     11  C   UNL     1       1.827  -0.114   1.895  0.00  0.00    +0.004 A 
ATOM     12  C   UNL     1       2.252  -0.752   3.044  0.00  0.00    +0.000 A 
ATOM     13  C   UNL     1       1.521  -1.806   3.558  0.00  0.00    +0.000 A 
ATOM     14  C   UNL     1       0.361  -2.219   2.923  0.00  0.00    +0.006 A 
ENDBRANCH   1   8
BRANCH   2  15
ATOM     15  C   UNL     1      -1.121  -5.399  -0.420  0.00  0.00    +0.167 A 
ATOM     16  C   UNL     1      -1.404  -6.699  -0.111  0.00  0.00    +0.149 A 
ATOM     17  N   UNL     1      -1.037  -7.443  -1.177  0.00  0.00    -0.219 N 
ATOM     18  N   UNL     1      -0.525  -6.554  -2.133  0.00  0.00    -0.060 NA
ATOM     19  N   UNL     1      -0.595  -5.360  -1.656  0.00  0.00    -0.124 NA
BRANCH  17  20
ATOM     20  C   UNL     1      -1.145  -8.835  -1.303  0.00  0.00    +0.069 A 
ATOM     21  C   UNL     1      -1.680  -9.588  -0.266  0.00  0.00    +0.028 A 
ATOM     22  C   UNL     1      -1.786 -10.959  -0.393  0.00  0.00    +0.004 A 
ATOM     23  C   UNL     1      -1.359 -11.582  -1.551  0.00  0.00    +0.033 A 
ATOM     24  C   UNL     1      -0.825 -10.836  -2.585  0.00  0.00    +0.128 A 
ATOM     25  C   UNL     1      -0.722  -9.463  -2.466  0.00  0.00    +0.060 A 
BRANCH  24  26
ATOM     26  N   UNL     1      -0.368 -11.507  -3.822  0.00  0.00    +0.056 N 
ATOM     27  O   UNL     1      -0.462 -12.708  -3.929  0.00  0.00    -0.126 OA
ATOM     28  O   UNL     1       0.099 -10.855  -4.727  0.00  0.00    -0.126 OA
ENDBRANCH  24  26
ENDBRANCH  17  20
ENDBRANCH   2  15
TORSDOF 4
