REMARK  Name = ZINC65315464
REMARK  7 active torsions:
REMARK  status: ('A' for Active; 'I' for Inactive)
REMARK    1  A    between atoms: C_1  and  C_2
REMARK    2  A    between atoms: C_5  and  N_9
REMARK    3  A    between atoms: C_6  and  C_8
REMARK    4  A    between atoms: N_12  and  C_13
REMARK    5  A    between atoms: C_16  and  N_19
REMARK    6  A    between atoms: C_25  and  C_28
REMARK    7  A    between atoms: N_30  and  C_31
REMARK                            x       y       z     vdW  Elec       q    Type
REMARK                         _______ _______ _______ _____ _____    ______ ____
ROOT
ATOM      1  C   UNL     1       0.385  -6.782  -2.461  0.00  0.00    +0.035 A 
ATOM      2  C   UNL     1      -0.242  -6.204  -3.557  0.00  0.00    +0.025 A 
ATOM      3  C   UNL     1      -0.289  -6.878  -4.761  0.00  0.00    +0.025 A 
ATOM      4  C   UNL     1       0.292  -8.134  -4.876  0.00  0.00    +0.035 A 
ATOM      5  C   UNL     1       0.919  -8.712  -3.780  0.00  0.00    +0.025 A 
ATOM      6  C   UNL     1       0.971  -8.035  -2.578  0.00  0.00    +0.025 A 
ENDROOT
BRANCH   4   7
ATOM      7  N   UNL     1       0.244  -8.818  -6.098  0.00  0.00    -0.269 N 
ATOM      8  C   UNL     1       0.158 -10.163  -6.114  0.00  0.00    +0.306 C 
ATOM      9  O   UNL     1      -0.011 -10.774  -5.077  0.00  0.00    -0.252 OA
ATOM     10  N   UNL     1       0.258 -10.831  -7.281  0.00  0.00    -0.285 N 
ATOM     11  C   UNL     1       0.581 -10.119  -8.525  0.00  0.00    +0.110 C 
ATOM     12  C   UNL     1      -0.485 -10.451  -9.574  0.00  0.00    +0.032 C 
ATOM     13  C   UNL     1      -0.590 -11.970  -9.727  0.00  0.00    +0.078 C 
ATOM     14  C   UNL     1      -1.014 -12.591  -8.394  0.00  0.00    +0.032 C 
ATOM     15  C   UNL     1       0.052 -12.285  -7.331  0.00  0.00    +0.110 C 
ATOM     16  H   UNL     1       0.274  -8.324  -6.932  0.00  0.00    +0.156 HD
BRANCH  13  17
ATOM     17  C   UNL     1      -1.614 -12.298 -10.782  0.00  0.00    +0.216 C 
ATOM     18  O   UNL     1      -2.202 -11.406 -11.355  0.00  0.00    -0.276 OA
ATOM     19  N   UNL     1      -1.876 -13.584 -11.090  0.00  0.00    -0.318 N 
ATOM     20  C   UNL     1      -2.872 -13.904 -12.116  0.00  0.00    +0.128 C 
ATOM     21  H   UNL     1      -1.406 -14.298 -10.631  0.00  0.00    +0.148 HD
ENDBRANCH  13  17
ENDBRANCH   4   7
BRANCH   1  25
ATOM     22  N   UNL     1       1.506  -5.663   0.787  0.00  0.00    -0.269 N 
ATOM     23  C   UNL     1       1.510  -6.221  -0.439  0.00  0.00    +0.308 C 
ATOM     24  O   UNL     1       2.486  -6.837  -0.824  0.00  0.00    -0.252 OA
ATOM     25  N   UNL     1       0.433  -6.097  -1.240  0.00  0.00    -0.269 N 
ATOM     26  H   UNL     1       0.707  -5.224   1.118  0.00  0.00    +0.156 HD
ATOM     27  H   UNL     1      -0.309  -5.534  -0.970  0.00  0.00    +0.156 HD
BRANCH  22  32
ATOM     28  C   UNL     1       6.166  -5.879   4.017  0.00  0.00    +0.044 C 
ATOM     29  C   UNL     1       4.928  -5.822   3.159  0.00  0.00    -0.050 A 
ATOM     30  C   UNL     1       4.641  -6.860   2.292  0.00  0.00    +0.005 A 
ATOM     31  C   UNL     1       3.507  -6.811   1.504  0.00  0.00    +0.024 A 
ATOM     32  C   UNL     1       2.655  -5.717   1.584  0.00  0.00    +0.038 A 
ATOM     33  C   UNL     1       2.946  -4.676   2.456  0.00  0.00    -0.029 A 
ATOM     34  C   UNL     1       4.079  -4.734   3.245  0.00  0.00    +0.008 A 
ATOM     35  C   UNL     1       2.025  -3.487   2.546  0.00  0.00    +0.045 C 
ENDBRANCH  22  32
ENDBRANCH   1  25
TORSDOF 4
