REMARK  Name = ZINC16475986
REMARK  9 active torsions:
REMARK  status: ('A' for Active; 'I' for Inactive)
REMARK    1  A    between atoms: C_1  and  C_2
REMARK    2  A    between atoms: C_5  and  C_30
REMARK    3  A    between atoms: N_8  and  C_10
REMARK    4  A    between atoms: C_10  and  C_11
REMARK    5  A    between atoms: C_11  and  C_13
REMARK    6  A    between atoms: C_14  and  N_29
REMARK    7  A    between atoms: N_15  and  C_22
REMARK    8  A    between atoms: N_18  and  C_21
REMARK    9  A    between atoms: C_22  and  C_23
REMARK                            x       y       z     vdW  Elec       q    Type
REMARK                         _______ _______ _______ _____ _____    ______ ____
ROOT
ATOM      1  C   UNL     1       2.640  -0.038   4.949  0.00  0.00    +0.118 A 
ATOM      2  C   UNL     1       2.095   0.613   6.069  0.00  0.00    +0.116 A 
ATOM      3  N   UNL     1       2.588   0.319   7.308  0.00  0.00    -0.277 N 
ATOM      4  C   UNL     1       3.576  -0.574   7.473  0.00  0.00    +0.333 A 
ATOM      5  O   UNL     1       3.980  -0.801   8.596  0.00  0.00    -0.246 OA
ATOM      6  N   UNL     1       4.135  -1.227   6.441  0.00  0.00    -0.263 N 
ATOM      7  C   UNL     1       3.715  -1.012   5.177  0.00  0.00    +0.269 A 
ATOM      8  O   UNL     1       4.220  -1.610   4.244  0.00  0.00    -0.267 OA
ATOM      9  C   UNL     1       5.210  -2.190   6.691  0.00  0.00    +0.157 C 
ENDROOT
BRANCH   2  10
ATOM     10  N   UNL     1       1.094   1.522   5.921  0.00  0.00    -0.344 N 
ATOM     11  H   UNL     1       0.694   1.666   5.049  0.00  0.00    +0.144 HD
ATOM     12  H   UNL     1       0.780   2.027   6.688  0.00  0.00    +0.144 HD
ENDBRANCH   2  10
BRANCH   1  13
ATOM     13  C   UNL     1       2.165   0.231   3.647  0.00  0.00    +0.155 C 
ATOM     14  O   UNL     1       1.201   0.954   3.490  0.00  0.00    -0.294 OA
BRANCH  13  15
ATOM     15  C   UNL     1       2.853  -0.379   2.453  0.00  0.00    +0.002 C 
BRANCH  15  21
ATOM     16  C   UNL     1       0.014   1.557   0.003  0.00  0.00    +0.005 C 
ATOM     17  C   UNL     1       0.066   0.028  -0.028  0.00  0.00    -0.031 C 
ATOM     18  C   UNL     1       0.809  -0.432  -1.286  0.00  0.00    +0.003 C 
ATOM     19  C   UNL     1       2.255   0.069  -1.225  0.00  0.00    -0.031 C 
ATOM     20  C   UNL     1       2.913  -0.445   0.058  0.00  0.00    -0.075 C 
ATOM     21  N   UNL     1       2.172   0.051   1.224  0.00  0.00    +0.385 N 
ATOM     22  C   UNL     1       0.805  -0.483   1.211  0.00  0.00    -0.075 C 
ATOM     23  C   UNL     1       3.027  -0.451  -2.439  0.00  0.00    +0.005 C 
ATOM     24  H   UNL     1       2.139   1.059   1.196  0.00  0.00    -0.081 HD
ENDBRANCH  15  21
ENDBRANCH  13  15
ENDBRANCH   1  13
BRANCH   3  25
ATOM     25  C   UNL     1       2.027   0.993   8.482  0.00  0.00    +0.163 C 
BRANCH  25  26
ATOM     26  C   UNL     1       0.874   0.186   9.021  0.00  0.00    -0.028 A 
ATOM     27  C   UNL     1      -0.408   0.418   8.557  0.00  0.00    +0.005 A 
ATOM     28  C   UNL     1      -1.466  -0.322   9.051  0.00  0.00    +0.000 A 
ATOM     29  C   UNL     1      -1.243  -1.293  10.008  0.00  0.00    +0.000 A 
ATOM     30  C   UNL     1       0.039  -1.525  10.472  0.00  0.00    +0.000 A 
ATOM     31  C   UNL     1       1.098  -0.788   9.975  0.00  0.00    +0.005 A 
ENDBRANCH  25  26
ENDBRANCH   3  25
TORSDOF 6
