REMARK  Name = ZINC45634253
REMARK  10 active torsions:
REMARK  status: ('A' for Active; 'I' for Inactive)
REMARK    1  A    between atoms: C_1  and  C_2
REMARK    2  A    between atoms: C_4  and  C_8
REMARK    3  A    between atoms: C_5  and  C_7
REMARK    4  A    between atoms: N_10  and  N_11
REMARK    5  A    between atoms: N_14  and  C_15
REMARK    6  A    between atoms: C_15  and  C_16
REMARK    7  A    between atoms: C_16  and  C_18
REMARK    8  A    between atoms: C_16  and  N_21
REMARK    9  A    between atoms: C_18  and  C_19
REMARK   10  A    between atoms: C_18  and  C_20
REMARK                            x       y       z     vdW  Elec       q    Type
REMARK                         _______ _______ _______ _____ _____    ______ ____
ROOT
ATOM      1  N   UNL     1      -3.377  -3.703  -1.310  0.00  0.00    -0.218 N 
ATOM      2  C   UNL     1      -4.703  -3.793  -1.088  0.00  0.00    +0.316 C 
ATOM      3  O   UNL     1      -5.277  -4.852  -1.252  0.00  0.00    -0.251 OA
ATOM      4  N   UNL     1      -5.393  -2.708  -0.683  0.00  0.00    -0.297 N 
ATOM      5  H   UNL     1      -2.880  -4.484  -1.601  0.00  0.00    +0.174 HD
ATOM      6  H   UNL     1      -4.936  -1.863  -0.552  0.00  0.00    +0.150 HD
ENDROOT
BRANCH   1   9
ATOM      7  C   UNL     1      -1.389  -2.393  -1.344  0.00  0.00    +0.263 C 
ATOM      8  O   UNL     1      -0.766  -3.371  -1.709  0.00  0.00    -0.269 OA
ATOM      9  N   UNL     1      -2.716  -2.482  -1.121  0.00  0.00    -0.229 N 
ATOM     10  H   UNL     1      -3.212  -1.702  -0.830  0.00  0.00    +0.173 HD
BRANCH   7  14
ATOM     11  C   UNL     1      -0.398   2.497  -0.279  0.00  0.00    +0.086 C 
ATOM     12  C   UNL     1      -0.276   1.047  -0.672  0.00  0.00    +0.103 A 
ATOM     13  C   UNL     1      -1.286   0.165  -0.710  0.00  0.00    +0.057 A 
ATOM     14  C   UNL     1      -0.694  -1.109  -1.145  0.00  0.00    +0.079 A 
ATOM     15  C   UNL     1       0.634  -0.853  -1.326  0.00  0.00    +0.114 A 
ATOM     16  O   UNL     1       0.858   0.434  -1.045  0.00  0.00    -0.464 OA
ATOM     17  C   UNL     1       1.671  -1.851  -1.773  0.00  0.00    +0.087 C 
ENDBRANCH   7  14
ENDBRANCH   1   9
BRANCH   4  18
ATOM     18  C   UNL     1      -6.835  -2.806  -0.441  0.00  0.00    +0.125 C 
BRANCH  18  19
ATOM     19  C   UNL     1      -7.361  -1.457   0.054  0.00  0.00    +0.076 C 
BRANCH  19  20
ATOM     20  N   UNL     1      -6.932  -0.396  -0.867  0.00  0.00    -0.293 NA
ATOM     21  C   UNL     1      -7.442   0.914  -0.435  0.00  0.00    +0.113 C 
ATOM     22  C   UNL     1      -6.923   1.996  -1.386  0.00  0.00    +0.175 C 
ATOM     23  O   UNL     1      -7.316   1.676  -2.723  0.00  0.00    -0.377 OA
ATOM     24  C   UNL     1      -6.836   0.407  -3.176  0.00  0.00    +0.175 C 
ATOM     25  C   UNL     1      -7.354  -0.691  -2.244  0.00  0.00    +0.113 C 
ENDBRANCH  19  20
BRANCH  19  26
ATOM     26  C   UNL     1      -6.806  -1.176   1.452  0.00  0.00    +0.001 C 
ATOM     27  C   UNL     1      -7.232  -2.294   2.405  0.00  0.00    +0.009 C 
ATOM     28  C   UNL     1      -5.279  -1.112   1.391  0.00  0.00    +0.009 C 
ENDBRANCH  19  26
ENDBRANCH  18  19
ENDBRANCH   4  18
TORSDOF 6
