REMARK  Name = ZINC39126777
REMARK  6 active torsions:
REMARK  status: ('A' for Active; 'I' for Inactive)
REMARK    1  A    between atoms: C_1  and  C_2
REMARK    2  A    between atoms: C_2  and  C_3
REMARK    3  A    between atoms: C_2  and  O_4
REMARK    4  A    between atoms: O_4  and  N_5
REMARK    5  A    between atoms: C_6  and  N_14
REMARK    6  A    between atoms: C_7  and  N_13
REMARK                            x       y       z     vdW  Elec       q    Type
REMARK                         _______ _______ _______ _____ _____    ______ ____
ROOT
ATOM      1  N   UNL     1      -1.891  -0.691  -1.277  0.00  0.00    -0.131 N 
ATOM      2  C   UNL     1      -2.584   0.261  -1.989  0.00  0.00    +0.158 A 
ATOM      3  C   UNL     1      -2.965  -0.266  -3.175  0.00  0.00    +0.079 A 
ATOM      4  C   UNL     1      -2.472  -1.644  -3.201  0.00  0.00    +0.065 A 
ATOM      5  C   UNL     1      -1.810  -1.853  -2.004  0.00  0.00    +0.245 A 
ATOM      6  O   UNL     1      -1.343  -3.117  -2.015  0.00  0.00    -0.444 OA
ATOM      7  C   UNL     1      -1.667  -3.739  -3.163  0.00  0.00    +0.198 A 
ATOM      8  C   UNL     1      -2.369  -2.903  -3.943  0.00  0.00    +0.053 A 
ENDROOT
BRANCH   3   9
ATOM      9  N   UNL     1      -3.697   0.388  -4.194  0.00  0.00    -0.355 N 
ATOM     10  H   UNL     1      -3.978   1.309  -4.074  0.00  0.00    +0.142 HD
ATOM     11  H   UNL     1      -3.920  -0.085  -5.011  0.00  0.00    +0.142 HD
ENDBRANCH   3   9
BRANCH   2  12
ATOM     12  N   UNL     1      -2.853   1.567  -1.554  0.00  0.00    -0.340 N 
ATOM     13  H   UNL     1      -2.542   1.863  -0.684  0.00  0.00    +0.144 HD
ATOM     14  H   UNL     1      -3.351   2.175  -2.123  0.00  0.00    +0.144 HD
ENDBRANCH   2  12
BRANCH   1  15
ATOM     15  O   UNL     1      -1.339  -0.499   0.012  0.00  0.00    -0.404 OA
BRANCH  15  17
ATOM     16  C   UNL     1      -0.019   1.526   0.010  0.00  0.00    +0.054 C 
ATOM     17  C   UNL     1       0.002  -0.004   0.002  0.00  0.00    +0.196 C 
ATOM     18  C   UNL     1       0.742  -0.511   1.242  0.00  0.00    +0.054 C 
ENDBRANCH  15  17
ENDBRANCH   1  15
TORSDOF 4
