REMARK  Name = ZINC34927018
REMARK  2 active torsions:
REMARK  status: ('A' for Active; 'I' for Inactive)
REMARK    1  A    between atoms: C_1  and  C_2
REMARK    2  A    between atoms: C_6  and  C_8
REMARK                            x       y       z     vdW  Elec       q    Type
REMARK                         _______ _______ _______ _____ _____    ______ ____
ROOT
ATOM      1  C   UNL     1       0.050  -2.683   2.519  0.00  0.00    +0.209 C 
ATOM      2  N   UNL     1      -0.632  -3.975   2.402  0.00  0.00    -0.303 N 
ATOM      3  C   UNL     1      -1.932  -4.110   2.709  0.00  0.00    +0.138 C 
ATOM      4  S   UNL     1      -2.693  -5.620   2.444  0.00  0.00    -0.018 S 
ATOM      5  N   UNL     1      -2.656  -3.096   3.218  0.00  0.00    -0.270 N 
ATOM      6  C   UNL     1      -2.049  -1.867   3.433  0.00  0.00    +0.180 C 
ATOM      7  N   UNL     1      -0.659  -1.866   3.519  0.00  0.00    -0.294 N 
ATOM      8  N   UNL     1      -2.741  -0.771   3.550  0.00  0.00    -0.272 NA
ATOM      9  H   UNL     1      -0.133  -4.750   2.097  0.00  0.00    +0.150 HD
ATOM     10  H   UNL     1      -2.290   0.075   3.700  0.00  0.00    +0.189 HD
ATOM     11  H   UNL     1      -0.184  -1.360   4.196  0.00  0.00    +0.151 HD
ATOM     12  H   UNL     1      -3.594  -3.223   3.432  0.00  0.00    +0.156 HD
ENDROOT
BRANCH   1  18
ATOM     13  C   UNL     1      -0.018   1.503   0.010  0.00  0.00    +0.065 C 
ATOM     14  C   UNL     1       0.002  -0.004   0.002  0.00  0.00    +0.039 A 
ATOM     15  C   UNL     1       0.005  -0.681  -1.203  0.00  0.00    +0.023 A 
ATOM     16  C   UNL     1       0.024  -2.067  -1.200  0.00  0.00    +0.004 A 
ATOM     17  C   UNL     1       0.039  -2.724   0.021  0.00  0.00    +0.027 A 
ATOM     18  C   UNL     1       0.035  -1.980   1.186  0.00  0.00    +0.080 A 
ATOM     19  N   UNL     1       0.022  -0.662   1.145  0.00  0.00    -0.253 NA
ENDBRANCH   1  18
TORSDOF 1
