REMARK  Name = ZINC56156185
REMARK  10 active torsions:
REMARK  status: ('A' for Active; 'I' for Inactive)
REMARK    1  A    between atoms: C_1  and  C_2
REMARK    2  A    between atoms: C_2  and  N_3
REMARK    3  A    between atoms: C_7  and  C_9
REMARK    4  A    between atoms: C_9  and  C_11
REMARK    5  A    between atoms: C_9  and  N_12
REMARK    6  A    between atoms: N_12  and  C_13
REMARK    7  A    between atoms: C_13  and  C_14
REMARK    8  A    between atoms: C_19  and  C_20
REMARK    9  A    between atoms: C_20  and  N_21
REMARK   10  A    between atoms: C_25  and  C_28
REMARK                            x       y       z     vdW  Elec       q    Type
REMARK                         _______ _______ _______ _____ _____    ______ ____
ROOT
ATOM      1  C   UNL     1       2.940  -5.944   5.817  0.00  0.00    +0.117 C 
ENDROOT
BRANCH   1   2
ATOM      2  C   UNL     1       2.706  -7.409   5.553  0.00  0.00    -0.032 A 
ATOM      3  C   UNL     1       1.554  -8.019   6.011  0.00  0.00    +0.005 A 
ATOM      4  C   UNL     1       1.339  -9.363   5.768  0.00  0.00    +0.000 A 
ATOM      5  C   UNL     1       2.278 -10.096   5.066  0.00  0.00    +0.000 A 
ATOM      6  C   UNL     1       3.430  -9.486   4.607  0.00  0.00    +0.002 A 
ATOM      7  C   UNL     1       3.642  -8.141   4.846  0.00  0.00    -0.060 A 
BRANCH   7   8
ATOM      8  C   UNL     1       4.896  -7.475   4.341  0.00  0.00    -0.043 C 
BRANCH   8   9
ATOM      9  N   UNL     1       4.608  -6.786   3.076  0.00  0.00    +0.383 N 
ATOM     10  C   UNL     1       4.261  -7.776   2.050  0.00  0.00    -0.078 C 
ATOM     11  C   UNL     1       3.882  -7.059   0.752  0.00  0.00    -0.018 C 
ATOM     12  C   UNL     1       5.070  -6.220   0.273  0.00  0.00    -0.001 C 
ATOM     13  C   UNL     1       5.471  -5.242   1.380  0.00  0.00    -0.031 C 
ATOM     14  C   UNL     1       5.791  -6.026   2.655  0.00  0.00    -0.075 C 
ATOM     15  C   UNL     1       6.705  -4.451   0.942  0.00  0.00    +0.005 C 
ATOM     16  H   UNL     1       3.832  -6.154   3.207  0.00  0.00    -0.081 HD
ENDBRANCH   8   9
ENDBRANCH   7   8
ENDBRANCH   1   2
BRANCH   1  17
ATOM     17  N   UNL     1       2.573  -5.166   4.626  0.00  0.00    -0.302 NA
ATOM     18  H   UNL     1       1.619  -5.351   4.353  0.00  0.00    +0.123 HD
BRANCH  17  19
ATOM     19  C   UNL     1       2.788  -3.730   4.848  0.00  0.00    +0.138 C 
ATOM     20  C   UNL     1       4.247  -3.380   4.547  0.00  0.00    +0.034 C 
BRANCH  19  25
ATOM     21  N   UNL     1       1.124   0.461   3.182  0.00  0.00    -0.299 N 
ATOM     22  C   UNL     1       1.099  -0.886   3.153  0.00  0.00    +0.306 C 
ATOM     23  O   UNL     1       0.347  -1.464   2.392  0.00  0.00    -0.252 OA
ATOM     24  N   UNL     1       1.908  -1.593   3.967  0.00  0.00    -0.239 N 
ATOM     25  C   UNL     1       1.884  -2.940   3.938  0.00  0.00    +0.237 C 
ATOM     26  O   UNL     1       1.134  -3.517   3.179  0.00  0.00    -0.274 OA
ATOM     27  H   UNL     1       1.723   0.922   3.789  0.00  0.00    +0.150 HD
ATOM     28  H   UNL     1       2.508  -1.132   4.574  0.00  0.00    +0.159 HD
BRANCH  21  30
ATOM     29  C   UNL     1       0.468   2.724   2.528  0.00  0.00    +0.024 C 
ATOM     30  C   UNL     1       0.244   1.229   2.297  0.00  0.00    +0.102 C 
ENDBRANCH  21  30
ENDBRANCH  19  25
ENDBRANCH  17  19
ENDBRANCH   1  17
TORSDOF 7
