REMARK  Name = ZINC37556238
REMARK  10 active torsions:
REMARK  status: ('A' for Active; 'I' for Inactive)
REMARK    1  A    between atoms: C_1  and  C_2
REMARK    2  A    between atoms: C_2  and  C_3
REMARK    3  A    between atoms: C_3  and  C_5
REMARK    4  A    between atoms: C_3  and  N_6
REMARK    5  A    between atoms: N_6  and  C_7
REMARK    6  A    between atoms: N_6  and  S_9
REMARK    7  A    between atoms: C_7  and  C_8
REMARK    8  A    between atoms: S_9  and  C_12
REMARK    9  A    between atoms: C_13  and  N_20
REMARK   10  A    between atoms: N_20  and  N_21
REMARK                            x       y       z     vdW  Elec       q    Type
REMARK                         _______ _______ _______ _____ _____    ______ ____
ROOT
ATOM      1  C   UNL     1       2.539   2.602  -1.788  0.00  0.00    +0.222 A 
ATOM      2  C   UNL     1       1.442   3.380  -1.684  0.00  0.00    +0.179 A 
ATOM      3  N   UNL     1       1.772   4.484  -0.991  0.00  0.00    -0.203 NA
ATOM      4  C   UNL     1       3.031   4.418  -0.663  0.00  0.00    +0.181 A 
ATOM      5  N   UNL     1       3.583   3.254  -1.127  0.00  0.00    -0.276 N 
ATOM      6  C   UNL     1       4.916   3.041  -0.849  0.00  0.00    +0.102 A 
ATOM      7  C   UNL     1       5.620   3.935  -0.157  0.00  0.00    +0.067 A 
ATOM      8  S   UNL     1       4.401   5.202   0.157  0.00  0.00    -0.058 S 
ENDROOT
BRANCH   1   9
ATOM      9  S   UNL     1       2.635   1.043  -2.603  0.00  0.00    +0.080 S 
ATOM     10  O   UNL     1       3.999   0.850  -2.951  0.00  0.00    -0.151 OA
ATOM     11  O   UNL     1       1.593   1.024  -3.568  0.00  0.00    -0.151 OA
BRANCH   9  12
ATOM     12  N   UNL     1       2.264  -0.119  -1.483  0.00  0.00    -0.173 NA
BRANCH  12  13
ATOM     13  C   UNL     1       0.874  -0.545  -1.302  0.00  0.00    +0.077 C 
ATOM     14  C   UNL     1       0.731  -2.009  -1.720  0.00  0.00    +0.026 C 
BRANCH  13  16
ATOM     15  C   UNL     1       0.505   1.088   0.553  0.00  0.00    +0.005 C 
ATOM     16  C   UNL     1       0.482  -0.393   0.169  0.00  0.00    +0.017 C 
ENDBRANCH  13  16
ENDBRANCH  12  13
BRANCH  12  17
ATOM     17  C   UNL     1       3.326  -0.722  -0.673  0.00  0.00    +0.106 C 
ATOM     18  C   UNL     1       3.832  -1.992  -1.359  0.00  0.00    +0.022 C 
ENDBRANCH  12  17
ENDBRANCH   9  12
ENDBRANCH   1   9
BRANCH   2  19
ATOM     19  N   UNL     1       0.174   3.088  -2.209  0.00  0.00    -0.265 N 
ATOM     20  H   UNL     1       0.029   2.262  -2.697  0.00  0.00    +0.168 HD
BRANCH  19  21
ATOM     21  N   UNL     1      -0.858   3.966  -2.032  0.00  0.00    -0.255 NA
ATOM     22  H   UNL     1      -0.619   4.880  -2.384  0.00  0.00    +0.140 HD
ATOM     23  H   UNL     1      -1.703   3.622  -2.462  0.00  0.00    +0.140 HD
ENDBRANCH  19  21
ENDBRANCH   2  19
TORSDOF 7
