REMARK  Name = ZINC10851096
REMARK  5 active torsions:
REMARK  status: ('A' for Active; 'I' for Inactive)
REMARK    1  A    between atoms: C_1  and  C_2
REMARK    2  A    between atoms: C_2  and  C_4
REMARK    3  A    between atoms: C_2  and  O_16
REMARK    4  A    between atoms: O_16  and  C_17
REMARK    5  A    between atoms: C_17  and  C_19
REMARK                            x       y       z     vdW  Elec       q    Type
REMARK                         _______ _______ _______ _____ _____    ______ ____
ROOT
ATOM      1  C   UNL     1       1.097   3.290   0.009  0.00  0.00    +0.151 A 
ATOM      2  N   UNL     1       1.132   1.932   0.002  0.00  0.00    -0.307 N 
ATOM      3  H   UNL     1       1.987   1.473  -0.009  0.00  0.00    +0.170 HD
ATOM      4  C   UNL     1      -0.014   1.213   0.009  0.00  0.00    +0.259 A 
ATOM      5  O   UNL     1       0.002  -0.004   0.002  0.00  0.00    -0.267 OA
ATOM      6  C   UNL     1      -1.281   1.960   0.019  0.00  0.00    +0.065 A 
ATOM      7  C   UNL     1      -2.517   1.315   0.033  0.00  0.00    +0.015 A 
ATOM      8  C   UNL     1      -3.673   2.064   0.048  0.00  0.00    +0.001 A 
ATOM      9  C   UNL     1      -3.615   3.452   0.055  0.00  0.00    +0.002 A 
ATOM     10  C   UNL     1      -2.405   4.108   0.047  0.00  0.00    +0.028 A 
ATOM     11  C   UNL     1      -1.219   3.371   0.032  0.00  0.00    +0.078 A 
ATOM     12  N   UNL     1      -0.005   3.976   0.023  0.00  0.00    -0.230 NA
ENDROOT
BRANCH   1  14
ATOM     13  C   UNL     1       2.152   5.503  -0.363  0.00  0.00    +0.060 C 
ATOM     14  C   UNL     1       2.405   4.039   0.000  0.00  0.00    +0.239 C 
BRANCH  14  15
ATOM     15  O   UNL     1       3.014   3.965   1.317  0.00  0.00    -0.454 OA
BRANCH  15  16
ATOM     16  C   UNL     1       4.355   3.998   1.371  0.00  0.00    +0.311 C 
ATOM     17  O   UNL     1       4.998   4.085   0.352  0.00  0.00    -0.251 OA
BRANCH  16  18
ATOM     18  C   UNL     1       5.057   3.926   2.702  0.00  0.00    +0.102 C 
ATOM     19  C   UNL     1       6.574   4.008   2.490  0.00  0.00    +0.019 C 
ATOM     20  C   UNL     1       7.265   3.755   3.832  0.00  0.00    +0.028 C 
ATOM     21  C   UNL     1       6.653   4.614   4.899  0.00  0.00    -0.031 C 
ATOM     22  C   UNL     1       5.503   5.198   4.790  0.00  0.00    -0.030 C 
ATOM     23  C   UNL     1       4.625   5.105   3.576  0.00  0.00    +0.041 C 
ENDBRANCH  16  18
ENDBRANCH  15  16
ENDBRANCH  14  15
ENDBRANCH   1  14
TORSDOF 4
