REMARK  Name = ZINC55942541
REMARK  4 active torsions:
REMARK  status: ('A' for Active; 'I' for Inactive)
REMARK    1  A    between atoms: C_3  and  O_10
REMARK    2  A    between atoms: C_6  and  N_7
REMARK    3  A    between atoms: O_10  and  S_11
REMARK    4  A    between atoms: S_11  and  C_14
REMARK                            x       y       z     vdW  Elec       q    Type
REMARK                         _______ _______ _______ _____ _____    ______ ____
ROOT
ATOM      1  S   UNL     1       4.094   2.413   1.366  0.00  0.00    +0.154 S 
ATOM      2  O   UNL     1       5.184   3.306   1.183  0.00  0.00    -0.131 OA
ATOM      3  O   UNL     1       2.975   2.733   2.181  0.00  0.00    -0.131 OA
ENDROOT
BRANCH   1   4
ATOM      4  C   UNL     1       4.771   0.917   2.005  0.00  0.00    +0.163 A 
ATOM      5  C   UNL     1       3.972   0.052   2.730  0.00  0.00    +0.039 A 
ATOM      6  C   UNL     1       4.500  -1.121   3.231  0.00  0.00    -0.024 A 
ATOM      7  C   UNL     1       5.834  -1.434   3.008  0.00  0.00    +0.039 A 
ATOM      8  C   UNL     1       6.636  -0.565   2.280  0.00  0.00    +0.064 A 
ATOM      9  C   UNL     1       6.101   0.606   1.775  0.00  0.00    +0.153 A 
ATOM     10  F   UNL     1       6.878   1.451   1.062  0.00  0.00    -0.203 F 
ATOM     11  N   UNL     1       6.367  -2.623   3.515  0.00  0.00    -0.285 N 
ATOM     12  C   UNL     1       5.555  -3.630   3.886  0.00  0.00    +0.218 C 
ATOM     13  O   UNL     1       6.033  -4.649   4.338  0.00  0.00    -0.275 OA
ATOM     14  C   UNL     1       4.062  -3.506   3.747  0.00  0.00    +0.101 C 
ATOM     15  C   UNL     1       3.631  -2.065   4.021  0.00  0.00    +0.046 C 
ATOM     16  H   UNL     1       7.328  -2.723   3.600  0.00  0.00    +0.155 HD
ENDBRANCH   1   4
BRANCH   1  17
ATOM     17  O   UNL     1       3.548   2.104  -0.021  0.00  0.00    -0.342 OA
BRANCH  17  20
ATOM     18  C   UNL     1      -0.017   1.378   0.010  0.00  0.00    +0.036 A 
ATOM     19  C   UNL     1       1.169   2.087   0.002  0.00  0.00    +0.051 A 
ATOM     20  C   UNL     1       2.380   1.409  -0.013  0.00  0.00    +0.157 A 
ATOM     21  C   UNL     1       2.396   0.022  -0.021  0.00  0.00    +0.051 A 
ATOM     22  C   UNL     1       1.207  -0.681  -0.013  0.00  0.00    +0.036 A 
ATOM     23  C   UNL     1       0.002  -0.004   0.002  0.00  0.00    +0.126 A 
BRANCH  23  24
ATOM     24  N   UNL     1      -1.270  -0.760   0.011  0.00  0.00    +0.056 N 
ATOM     25  O   UNL     1      -2.325  -0.169   0.024  0.00  0.00    -0.126 OA
ATOM     26  O   UNL     1      -1.255  -1.969   0.004  0.00  0.00    -0.126 OA
ENDBRANCH  23  24
ENDBRANCH  17  20
ENDBRANCH   1  17
TORSDOF 4
