REMARK  Name = ZINC05456807
REMARK  7 active torsions:
REMARK  status: ('A' for Active; 'I' for Inactive)
REMARK    1  A    between atoms: C_1  and  C_2
REMARK    2  A    between atoms: C_2  and  N_3
REMARK    3  A    between atoms: C_7  and  C_9
REMARK    4  A    between atoms: C_13  and  N_27
REMARK    5  A    between atoms: N_17  and  C_19
REMARK    6  A    between atoms: C_22  and  O_25
REMARK    7  A    between atoms: O_25  and  C_26
REMARK                            x       y       z     vdW  Elec       q    Type
REMARK                         _______ _______ _______ _____ _____    ______ ____
ROOT
ATOM      1  C   UNL     1      -1.168  -0.976  -0.350  0.00  0.00    +0.127 A 
ATOM      2  C   UNL     1      -2.524  -0.475   0.014  0.00  0.00    +0.026 A 
ATOM      3  C   UNL     1      -2.932   0.832   0.039  0.00  0.00    +0.058 A 
ATOM      4  S   UNL     1      -4.635   0.738   0.535  0.00  0.00    -0.081 S 
ATOM      5  C   UNL     1      -4.803  -0.973   0.695  0.00  0.00    +0.076 A 
ATOM      6  C   UNL     1      -3.540  -1.472   0.364  0.00  0.00    +0.078 A 
ATOM      7  C   UNL     1      -3.147  -2.849   0.341  0.00  0.00    +0.282 A 
ATOM      8  O   UNL     1      -3.956  -3.714   0.630  0.00  0.00    -0.265 OA
ATOM      9  N   UNL     1      -1.897  -3.196   0.004  0.00  0.00    -0.196 N 
ATOM     10  N   UNL     1      -0.924  -2.258  -0.337  0.00  0.00    -0.160 NA
ENDROOT
BRANCH   1  15
ATOM     11  N   UNL     1       3.255   1.876  -1.808  0.00  0.00    -0.322 N 
ATOM     12  C   UNL     1       2.040   1.335  -1.423  0.00  0.00    +0.182 A 
ATOM     13  N   UNL     1       0.899   1.943  -1.135  0.00  0.00    -0.126 NA
ATOM     14  N   UNL     1      -0.133   1.300  -0.796  0.00  0.00    -0.138 NA
ATOM     15  C   UNL     1      -0.103  -0.025  -0.719  0.00  0.00    +0.154 A 
ATOM     16  S   UNL     1       1.596  -0.331  -1.188  0.00  0.00    -0.029 S 
ATOM     17  H   UNL     1       4.011   1.295  -1.987  0.00  0.00    +0.148 HD
BRANCH  11  19
ATOM     18  C   UNL     1       4.829   3.660  -2.376  0.00  0.00    +0.024 C 
ATOM     19  C   UNL     1       3.400   3.328  -1.943  0.00  0.00    +0.100 C 
ENDBRANCH  11  19
ENDBRANCH   1  15
BRANCH   9  20
ATOM     20  C   UNL     1      -1.555  -4.553  -0.005  0.00  0.00    +0.069 A 
ATOM     21  C   UNL     1      -1.863  -5.355   1.086  0.00  0.00    +0.031 A 
ATOM     22  C   UNL     1      -1.528  -6.694   1.074  0.00  0.00    +0.048 A 
ATOM     23  C   UNL     1      -0.877  -7.237  -0.024  0.00  0.00    +0.120 A 
ATOM     24  C   UNL     1      -0.565  -6.436  -1.113  0.00  0.00    +0.048 A 
ATOM     25  C   UNL     1      -0.902  -5.097  -1.104  0.00  0.00    +0.031 A 
BRANCH  23  26
ATOM     26  O   UNL     1      -0.544  -8.555  -0.033  0.00  0.00    -0.495 OA
ATOM     27  C   UNL     1      -0.895  -9.321   1.121  0.00  0.00    +0.277 C 
ENDBRANCH  23  26
ENDBRANCH   9  20
BRANCH   5  28
ATOM     28  N   UNL     1      -5.929  -1.687   1.065  0.00  0.00    -0.352 N 
ATOM     29  H   UNL     1      -5.895  -2.655   1.118  0.00  0.00    +0.143 HD
ATOM     30  H   UNL     1      -6.754  -1.219   1.272  0.00  0.00    +0.143 HD
ENDBRANCH   5  28
TORSDOF 5
