REMARK  Name = ZINC38550678
REMARK  5 active torsions:
REMARK  status: ('A' for Active; 'I' for Inactive)
REMARK    1  A    between atoms: N_7  and  C_8
REMARK    2  A    between atoms: C_8  and  C_10
REMARK    3  A    between atoms: C_8  and  C_15
REMARK    4  A    between atoms: C_19  and  N_20
REMARK    5  A    between atoms: C_21  and  C_23
REMARK                            x       y       z     vdW  Elec       q    Type
REMARK                         _______ _______ _______ _____ _____    ______ ____
ROOT
ATOM      1  C   UNL     1       0.152  -4.135  -0.746  0.00  0.00    +0.009 A 
ATOM      2  C   UNL     1      -0.765  -4.481  -1.739  0.00  0.00    -0.030 A 
ATOM      3  C   UNL     1      -0.586  -5.688  -2.340  0.00  0.00    -0.005 A 
ATOM      4  S   UNL     1       0.849  -6.353  -1.540  0.00  0.00    -0.078 S 
ATOM      5  C   UNL     1       1.162  -4.988  -0.431  0.00  0.00    +0.078 A 
ATOM      6  C   UNL     1      -1.417  -6.299  -3.421  0.00  0.00    +0.043 C 
ATOM      7  C   UNL     1      -2.738  -5.520  -3.515  0.00  0.00    +0.005 C 
ATOM      8  C   UNL     1      -2.424  -4.021  -3.531  0.00  0.00    +0.005 C 
ATOM      9  C   UNL     1      -1.922  -3.577  -2.156  0.00  0.00    +0.036 C 
ENDROOT
BRANCH   5  10
ATOM     10  N   UNL     1       2.179  -4.838   0.515  0.00  0.00    -0.273 N 
ATOM     11  C   UNL     1       3.042  -5.847   0.742  0.00  0.00    +0.284 C 
ATOM     12  O   UNL     1       2.937  -6.890   0.122  0.00  0.00    -0.266 OA
ATOM     13  H   UNL     1       2.263  -4.007   1.009  0.00  0.00    +0.156 HD
BRANCH  11  14
ATOM     14  C   UNL     1       4.110  -5.690   1.735  0.00  0.00    +0.189 A 
ATOM     15  C   UNL     1       5.051  -6.625   2.057  0.00  0.00    +0.054 A 
ATOM     16  C   UNL     1       5.866  -6.054   3.047  0.00  0.00    +0.042 A 
ATOM     17  C   UNL     1       5.393  -4.810   3.282  0.00  0.00    +0.196 A 
ATOM     18  O   UNL     1       4.338  -4.593   2.486  0.00  0.00    -0.458 OA
ENDBRANCH  11  14
ENDBRANCH   5  10
BRANCH   1  19
ATOM     19  C   UNL     1       0.027  -2.815  -0.029  0.00  0.00    +0.135 C 
BRANCH  19  26
ATOM     20  C   UNL     1       0.380   1.294   0.741  0.00  0.00    +0.005 A 
ATOM     21  C   UNL     1       1.646   1.861   0.795  0.00  0.00    +0.018 A 
ATOM     22  C   UNL     1       2.754   1.062   0.596  0.00  0.00    +0.084 A 
ATOM     23  N   UNL     1       2.622  -0.229   0.355  0.00  0.00    -0.350 N 
ATOM     24  C   UNL     1       1.432  -0.807   0.295  0.00  0.00    +0.097 A 
ATOM     25  C   UNL     1       0.273  -0.061   0.487  0.00  0.00    +0.041 A 
ATOM     26  N   UNL     1       1.340  -2.170   0.039  0.00  0.00    -0.320 N 
ATOM     27  H   UNL     1       2.146  -2.693  -0.095  0.00  0.00    +0.148 HD
ATOM     28  H   UNL     1       3.417  -0.768   0.219  0.00  0.00    +0.166 HD
ENDBRANCH  19  26
BRANCH  19  29
ATOM     29  C   UNL     1      -0.491  -3.049   1.367  0.00  0.00    -0.016 A 
ATOM     30  C   UNL     1      -1.848  -3.015   1.627  0.00  0.00    +0.013 A 
ATOM     31  C   UNL     1      -2.280  -3.230   2.893  0.00  0.00    +0.045 A 
ATOM     32  S   UNL     1      -0.746  -3.490   3.768  0.00  0.00    -0.105 S 
ATOM     33  C   UNL     1       0.367  -3.301   2.385  0.00  0.00    +0.051 A 
ENDBRANCH  19  29
ENDBRANCH   1  19
TORSDOF 5
