REMARK  Name = ZINC14268057
REMARK  6 active torsions:
REMARK  status: ('A' for Active; 'I' for Inactive)
REMARK    1  A    between atoms: C_1  and  C_2
REMARK    2  A    between atoms: N_10  and  C_13
REMARK    3  A    between atoms: C_13  and  C_14
REMARK    4  A    between atoms: C_14  and  C_15
REMARK    5  A    between atoms: C_15  and  C_16
REMARK    6  A    between atoms: N_18  and  C_19
REMARK                            x       y       z     vdW  Elec       q    Type
REMARK                         _______ _______ _______ _____ _____    ______ ____
ROOT
ATOM      1  C   UNL     1       4.574  -0.328  -2.905  0.00  0.00    +0.217 C 
ATOM      2  O   UNL     1       3.886   0.078  -3.819  0.00  0.00    -0.275 OA
ATOM      3  N   UNL     1       5.706  -1.011  -3.166  0.00  0.00    -0.285 N 
ATOM      4  H   UNL     1       6.290  -1.277  -2.438  0.00  0.00    +0.155 HD
ENDROOT
BRANCH   3   5
ATOM      5  C   UNL     1       6.039  -1.337  -4.487  0.00  0.00    +0.035 A 
ATOM      6  C   UNL     1       6.683  -2.538  -4.763  0.00  0.00    +0.025 A 
ATOM      7  C   UNL     1       7.008  -2.868  -6.064  0.00  0.00    +0.029 A 
ATOM      8  C   UNL     1       6.703  -1.994  -7.096  0.00  0.00    +0.067 A 
ATOM      9  C   UNL     1       6.061  -0.785  -6.821  0.00  0.00    +0.069 A 
ATOM     10  C   UNL     1       5.731  -0.460  -5.515  0.00  0.00    +0.051 A 
ATOM     11  N   UNL     1       5.890  -0.133  -8.040  0.00  0.00    -0.306 N 
ATOM     12  H   UNL     1       5.472   0.733  -8.166  0.00  0.00    +0.170 HD
ATOM     13  C   UNL     1       6.404  -0.909  -9.013  0.00  0.00    +0.325 A 
ATOM     14  O   UNL     1       6.416  -0.632 -10.198  0.00  0.00    -0.247 OA
ATOM     15  N   UNL     1       6.902  -2.039  -8.476  0.00  0.00    -0.306 N 
ATOM     16  H   UNL     1       7.327  -2.761  -8.966  0.00  0.00    +0.170 HD
ENDBRANCH   3   5
BRANCH   1  17
ATOM     17  C   UNL     1       4.162  -0.067  -1.479  0.00  0.00    +0.098 C 
BRANCH  17  18
ATOM     18  C   UNL     1       2.852   0.722  -1.463  0.00  0.00    +0.031 C 
BRANCH  18  19
ATOM     19  C   UNL     1       2.434   0.987  -0.015  0.00  0.00    +0.127 C 
BRANCH  19  29
ATOM     20  C   UNL     1      -3.771   2.862   0.066  0.00  0.00    +0.046 C 
ATOM     21  C   UNL     1      -2.499   3.670   0.047  0.00  0.00    -0.024 A 
ATOM     22  C   UNL     1      -2.554   5.046   0.046  0.00  0.00    +0.005 A 
ATOM     23  C   UNL     1      -1.391   5.804   0.029  0.00  0.00    +0.001 A 
ATOM     24  C   UNL     1      -0.157   5.193   0.013  0.00  0.00    +0.015 A 
ATOM     25  C   UNL     1      -0.079   3.803   0.015  0.00  0.00    +0.065 A 
ATOM     26  C   UNL     1      -1.260   3.028   0.032  0.00  0.00    +0.081 A 
ATOM     27  N   UNL     1      -1.160   1.675   0.027  0.00  0.00    -0.237 NA
ATOM     28  C   UNL     1      -0.007   1.078   0.017  0.00  0.00    +0.202 A 
ATOM     29  N   UNL     1       1.179   1.742   0.001  0.00  0.00    -0.299 N 
ATOM     30  C   UNL     1       1.210   3.095  -0.002  0.00  0.00    +0.262 A 
ATOM     31  O   UNL     1       2.265   3.703  -0.016  0.00  0.00    -0.267 OA
ENDBRANCH  19  29
ENDBRANCH  18  19
ENDBRANCH  17  18
ENDBRANCH   1  17
TORSDOF 5
