REMARK  Name = ZINC14990749
REMARK  11 active torsions:
REMARK  status: ('A' for Active; 'I' for Inactive)
REMARK    1  A    between atoms: C_1  and  N_2
REMARK    2  A    between atoms: N_2  and  C_3
REMARK    3  A    between atoms: C_3  and  C_4
REMARK    4  A    between atoms: C_10  and  C_12
REMARK    5  A    between atoms: C_15  and  S_28
REMARK    6  A    between atoms: N_18  and  C_19
REMARK    7  A    between atoms: C_19  and  C_20
REMARK    8  A    between atoms: C_25  and  O_26
REMARK    9  A    between atoms: S_28  and  C_29
REMARK   10  A    between atoms: C_32  and  O_35
REMARK   11  A    between atoms: O_35  and  C_36
REMARK                            x       y       z     vdW  Elec       q    Type
REMARK                         _______ _______ _______ _____ _____    ______ ____
ROOT
ATOM      1  C   UNL     1      -0.023   0.089  -2.470  0.00  0.00    +0.021 C 
ATOM      2  C   UNL     1      -1.311   0.927  -2.565  0.00  0.00    +0.006 C 
ATOM      3  C   UNL     1      -2.030   0.418  -3.836  0.00  0.00    +0.034 C 
ATOM      4  C   UNL     1      -0.880  -0.224  -4.651  0.00  0.00    -0.063 C 
ATOM      5  N   UNL     1      -0.030  -0.857  -3.606  0.00  0.00    +0.391 N 
ATOM      6  H   UNL     1      -0.429  -1.740  -3.322  0.00  0.00    -0.080 HD
ENDROOT
BRANCH   1   9
ATOM      7  C   UNL     1      -0.018   1.461   0.010  0.00  0.00    +0.132 C 
ATOM      8  N   UNL     1       0.002  -0.004   0.002  0.00  0.00    -0.300 N 
ATOM      9  C   UNL     1       0.000  -0.672  -1.169  0.00  0.00    +0.202 C 
ATOM     10  O   UNL     1       0.017  -1.884  -1.175  0.00  0.00    -0.277 OA
BRANCH   8  11
ATOM     11  C   UNL     1       0.024  -0.743   1.267  0.00  0.00    +0.164 C 
BRANCH  11  12
ATOM     12  C   UNL     1      -1.389  -1.016   1.714  0.00  0.00    +0.080 A 
ATOM     13  C   UNL     1      -2.114  -2.188   1.472  0.00  0.00    +0.045 A 
ATOM     14  C   UNL     1      -3.337  -2.044   2.033  0.00  0.00    +0.105 A 
ATOM     15  N   UNL     1      -3.384  -0.824   2.609  0.00  0.00    -0.284 N 
ATOM     16  N   UNL     1      -2.148  -0.200   2.400  0.00  0.00    -0.177 NA
ATOM     17  H   UNL     1      -4.140  -0.448   3.087  0.00  0.00    +0.188 HD
ENDBRANCH  11  12
ENDBRANCH   8  11
ENDBRANCH   1   9
BRANCH   5  18
ATOM     18  C   UNL     1       1.336  -1.056  -4.109  0.00  0.00    -0.038 C 
BRANCH  18  19
ATOM     19  C   UNL     1       1.327  -2.113  -5.184  0.00  0.00    -0.021 A 
ATOM     20  C   UNL     1       1.702  -3.408  -4.883  0.00  0.00    +0.025 A 
ATOM     21  C   UNL     1       1.694  -4.378  -5.868  0.00  0.00    +0.041 A 
ATOM     22  C   UNL     1       1.310  -4.054  -7.158  0.00  0.00    +0.023 A 
ATOM     23  C   UNL     1       0.934  -2.761  -7.463  0.00  0.00    +0.047 A 
ATOM     24  C   UNL     1       0.936  -1.787  -6.474  0.00  0.00    +0.118 A 
ATOM     25 CL   UNL     1       2.167  -6.005  -5.488  0.00  0.00    -0.084 Cl
BRANCH  24  26
ATOM     26  O   UNL     1       0.560  -0.515  -6.771  0.00  0.00    -0.507 OA
ATOM     27  H   UNL     1       1.288   0.053  -7.060  0.00  0.00    +0.292 HD
ENDBRANCH  24  26
ENDBRANCH  18  19
ENDBRANCH   5  18
BRANCH   3  28
ATOM     28  S   UNL     1      -2.776   1.798  -4.747  0.00  0.00    -0.124 S 
BRANCH  28  29
ATOM     29  C   UNL     1      -4.042   2.385  -3.671  0.00  0.00    +0.008 A 
ATOM     30  C   UNL     1      -4.244   1.776  -2.439  0.00  0.00    +0.018 A 
ATOM     31  C   UNL     1      -5.237   2.236  -1.597  0.00  0.00    +0.047 A 
ATOM     32  C   UNL     1      -6.032   3.306  -1.981  0.00  0.00    +0.120 A 
ATOM     33  C   UNL     1      -5.832   3.914  -3.211  0.00  0.00    +0.047 A 
ATOM     34  C   UNL     1      -4.836   3.459  -4.053  0.00  0.00    +0.018 A 
BRANCH  32  35
ATOM     35  O   UNL     1      -7.010   3.758  -1.151  0.00  0.00    -0.495 OA
ATOM     36  C   UNL     1      -7.792   4.863  -1.610  0.00  0.00    +0.277 C 
ENDBRANCH  32  35
ENDBRANCH  28  29
ENDBRANCH   3  28
TORSDOF 9
