REMARK  Name = ZINC37115583
REMARK  6 active torsions:
REMARK  status: ('A' for Active; 'I' for Inactive)
REMARK    1  A    between atoms: C_1  and  C_2
REMARK    2  A    between atoms: N_5  and  S_8
REMARK    3  A    between atoms: S_8  and  C_11
REMARK    4  A    between atoms: C_14  and  N_20
REMARK    5  A    between atoms: C_16  and  N_17
REMARK    6  A    between atoms: N_20  and  N_21
REMARK                            x       y       z     vdW  Elec       q    Type
REMARK                         _______ _______ _______ _____ _____    ______ ____
ROOT
ATOM      1  C   UNL     1      -1.108  -5.239   1.265  0.00  0.00    +0.136 A 
ATOM      2  C   UNL     1      -0.170  -5.407   0.262  0.00  0.00    +0.033 A 
ATOM      3  C   UNL     1       0.210  -6.678  -0.122  0.00  0.00    +0.026 A 
ATOM      4  C   UNL     1      -0.350  -7.787   0.499  0.00  0.00    +0.043 A 
ATOM      5  C   UNL     1      -1.291  -7.614   1.505  0.00  0.00    +0.059 A 
ATOM      6  C   UNL     1      -1.663  -6.340   1.889  0.00  0.00    +0.154 A 
ENDROOT
BRANCH   1   7
ATOM      7  S   UNL     1      -1.589  -3.615   1.753  0.00  0.00    +0.063 S 
ATOM      8  O   UNL     1      -0.888  -3.328   2.955  0.00  0.00    -0.153 OA
ATOM      9  O   UNL     1      -3.007  -3.570   1.669  0.00  0.00    -0.153 OA
BRANCH   7  14
ATOM     10  C   UNL     1      -0.794   1.406  -0.899  0.00  0.00    +0.007 C 
ATOM     11  C   UNL     1      -0.608  -0.102  -0.717  0.00  0.00    -0.012 C 
ATOM     12  C   UNL     1      -1.972  -0.794  -0.768  0.00  0.00    +0.020 C 
ATOM     13  C   UNL     1      -1.778  -2.307  -0.620  0.00  0.00    +0.110 C 
ATOM     14  N   UNL     1      -1.013  -2.568   0.607  0.00  0.00    -0.176 NA
ATOM     15  C   UNL     1       0.272  -1.882   0.799  0.00  0.00    +0.110 C 
ATOM     16  C   UNL     1       0.055  -0.374   0.635  0.00  0.00    +0.020 C 
ENDBRANCH   7  14
ENDBRANCH   1   7
BRANCH   6  17
ATOM     17  N   UNL     1      -2.662  -6.154   2.966  0.00  0.00    +0.058 N 
ATOM     18  O   UNL     1      -3.243  -7.111   3.422  0.00  0.00    -0.126 OA
ATOM     19  O   UNL     1      -2.896  -5.046   3.388  0.00  0.00    -0.126 OA
ENDBRANCH   6  17
BRANCH   4  20
ATOM     20  N   UNL     1       0.032  -9.074   0.112  0.00  0.00    -0.283 N 
ATOM     21  H   UNL     1      -0.360  -9.847   0.546  0.00  0.00    +0.166 HD
BRANCH  20  22
ATOM     22  N   UNL     1       0.958  -9.242  -0.878  0.00  0.00    -0.257 NA
ATOM     23  H   UNL     1       1.814  -8.755  -0.660  0.00  0.00    +0.140 HD
ATOM     24  H   UNL     1       1.131 -10.222  -1.048  0.00  0.00    +0.140 HD
ENDBRANCH  20  22
ENDBRANCH   4  20
TORSDOF 5
