REMARK  Name = ZINC44060927
REMARK  3 active torsions:
REMARK  status: ('A' for Active; 'I' for Inactive)
REMARK    1  A    between atoms: N_8  and  N_9
REMARK    2  A    between atoms: C_10  and  C_12
REMARK    3  A    between atoms: C_15  and  O_17
REMARK                            x       y       z     vdW  Elec       q    Type
REMARK                         _______ _______ _______ _____ _____    ______ ____
ROOT
ATOM      1  C   UNL     1      -0.017   1.383   0.010  0.00  0.00    +0.050 A 
ATOM      2  C   UNL     1       1.176   2.085   0.002  0.00  0.00    +0.125 A 
ATOM      3  C   UNL     1       2.385   1.406  -0.013  0.00  0.00    +0.055 A 
ATOM      4  C   UNL     1       2.419   0.026  -0.021  0.00  0.00    +0.047 A 
ATOM      5  C   UNL     1       1.226  -0.703  -0.014  0.00  0.00    +0.091 A 
ATOM      6  C   UNL     1       0.002  -0.004   0.002  0.00  0.00    +0.036 A 
ATOM      7  C   UNL     1      -1.050  -1.047   0.006  0.00  0.00    +0.152 C 
ATOM      8  N   UNL     1      -2.352  -0.879   0.019  0.00  0.00    -0.174 NA
ATOM      9  C   UNL     1      -0.299  -2.318  -0.008  0.00  0.00    +0.241 C 
ATOM     10  N   UNL     1       0.977  -2.041  -0.020  0.00  0.00    -0.210 NA
ATOM     11 BR   UNL     1       4.080  -0.878  -0.043  0.00  0.00    -0.048 Br
ATOM     12  F   UNL     1       1.163   3.436   0.009  0.00  0.00    -0.205 F 
ENDROOT
BRANCH   8  13
ATOM     13  N   UNL     1      -3.135  -1.904   0.020  0.00  0.00    -0.198 N 
ATOM     14  C   UNL     1      -4.471  -1.732   0.034  0.00  0.00    +0.318 C 
ATOM     15  O   UNL     1      -4.938  -0.612   0.044  0.00  0.00    -0.263 OA
ATOM     16  H   UNL     1      -2.761  -2.799   0.012  0.00  0.00    +0.178 HD
BRANCH  14  17
ATOM     17  C   UNL     1      -5.377  -2.918   0.035  0.00  0.00    +0.298 C 
ATOM     18  O   UNL     1      -4.910  -4.038   0.025  0.00  0.00    -0.265 OA
ATOM     19  N   UNL     1      -6.713  -2.746   0.049  0.00  0.00    -0.322 N 
ATOM     20  H   UNL     1      -7.087  -1.851   0.057  0.00  0.00    +0.145 HD
ATOM     21  H   UNL     1      -7.302  -3.517   0.050  0.00  0.00    +0.145 HD
ENDBRANCH  14  17
ENDBRANCH   8  13
BRANCH   9  22
ATOM     22  O   UNL     1      -0.842  -3.560  -0.010  0.00  0.00    -0.491 OA
ATOM     23  H   UNL     1      -0.189  -4.274  -0.020  0.00  0.00    +0.294 HD
ENDBRANCH   9  22
TORSDOF 3
