REMARK  Name = ZINC11731203
REMARK  2 active torsions:
REMARK  status: ('A' for Active; 'I' for Inactive)
REMARK    1  A    between atoms: C_1  and  C_2
REMARK    2  A    between atoms: C_3  and  C_8
REMARK                            x       y       z     vdW  Elec       q    Type
REMARK                         _______ _______ _______ _____ _____    ______ ____
ROOT
ATOM      1  C   UNL     1       0.031  -0.380   2.445  0.00  0.00    +0.003 A 
ATOM      2  C   UNL     1       0.716   0.794   2.762  0.00  0.00    +0.012 A 
ATOM      3  C   UNL     1       0.721   1.265   4.058  0.00  0.00    +0.028 A 
ATOM      4  C   UNL     1       0.052   0.566   5.053  0.00  0.00    +0.067 A 
ATOM      5  C   UNL     1      -0.632  -0.612   4.742  0.00  0.00    +0.067 A 
ATOM      6  C   UNL     1      -0.642  -1.084   3.441  0.00  0.00    +0.037 A 
ATOM      7  N   UNL     1      -1.194  -1.076   5.930  0.00  0.00    -0.306 N 
ATOM      8  H   UNL     1      -1.729  -1.879   6.029  0.00  0.00    +0.170 HD
ATOM      9  C   UNL     1      -0.868  -0.220   6.917  0.00  0.00    +0.325 A 
ATOM     10  O   UNL     1      -1.201  -0.334   8.081  0.00  0.00    -0.247 OA
ATOM     11  N   UNL     1      -0.117   0.780   6.420  0.00  0.00    -0.306 N 
ATOM     12  H   UNL     1       0.244   1.524   6.926  0.00  0.00    +0.170 HD
ENDROOT
BRANCH   1  15
ATOM     13  C   UNL     1      -0.018   1.503   0.010  0.00  0.00    +0.054 C 
ATOM     14  C   UNL     1       0.002  -0.004   0.002  0.00  0.00    +0.016 A 
ATOM     15  C   UNL     1       0.024  -0.880   1.049  0.00  0.00    +0.083 A 
ATOM     16  N   UNL     1       0.039  -2.189   0.804  0.00  0.00    -0.225 NA
ATOM     17  C   UNL     1       0.034  -2.651  -0.433  0.00  0.00    +0.156 A 
ATOM     18  S   UNL     1      -0.004  -1.137  -1.381  0.00  0.00    -0.057 S 
ATOM     19  N   UNL     1       0.048  -3.963  -0.878  0.00  0.00    -0.338 N 
ATOM     20  H   UNL     1       0.064  -4.692  -0.238  0.00  0.00    +0.144 HD
ATOM     21  H   UNL     1       0.041  -4.153  -1.829  0.00  0.00    +0.144 HD
ENDBRANCH   1  15
TORSDOF 1
