REMARK  Name = ZINC38995227
REMARK  9 active torsions:
REMARK  status: ('A' for Active; 'I' for Inactive)
REMARK    1  A    between atoms: C_1  and  O_2
REMARK    2  A    between atoms: O_2  and  C_3
REMARK    3  A    between atoms: C_6  and  C_13
REMARK    4  A    between atoms: C_7  and  O_11
REMARK    5  A    between atoms: C_8  and  O_9
REMARK    6  A    between atoms: O_9  and  C_10
REMARK    7  A    between atoms: O_11  and  C_12
REMARK    8  A    between atoms: N_14  and  N_15
REMARK    9  A    between atoms: C_16  and  C_22
REMARK                            x       y       z     vdW  Elec       q    Type
REMARK                         _______ _______ _______ _____ _____    ______ ____
ROOT
ATOM      1  C   UNL     1       2.481  -2.496   4.831  0.00  0.00    +0.142 C 
ATOM      2  N   UNL     1       2.750  -3.767   4.815  0.00  0.00    -0.183 NA
ENDROOT
BRANCH   2   3
ATOM      3  N   UNL     1       3.582  -4.320   5.797  0.00  0.00    -0.171 N 
ATOM      4  C   UNL     1       5.001  -4.011   6.056  0.00  0.00    +0.280 C 
ATOM      5  N   UNL     1       5.349  -4.881   7.190  0.00  0.00    -0.188 NA
ATOM      6  N   UNL     1       4.346  -5.532   7.496  0.00  0.00    -0.219 N 
ATOM      7  C   UNL     1       3.264  -5.251   6.723  0.00  0.00    +0.174 C 
ATOM      8  S   UNL     1       1.722  -5.975   6.895  0.00  0.00    -0.015 S 
ATOM      9  H   UNL     1       4.331  -6.178   8.219  0.00  0.00    +0.176 HD
BRANCH   4  10
ATOM     10  C   UNL     1       5.843  -4.343   4.852  0.00  0.00    +0.062 A 
ATOM     11  C   UNL     1       5.337  -4.130   3.584  0.00  0.00    +0.025 A 
ATOM     12  C   UNL     1       6.120  -4.439   2.482  0.00  0.00    +0.003 A 
ATOM     13  C   UNL     1       7.389  -4.954   2.699  0.00  0.00    +0.017 A 
ATOM     14  C   UNL     1       7.828  -5.140   3.996  0.00  0.00    +0.083 A 
ATOM     15  N   UNL     1       7.057  -4.830   5.020  0.00  0.00    -0.361 N 
ATOM     16  H   UNL     1       7.391  -4.966   5.921  0.00  0.00    +0.165 HD
ENDBRANCH   4  10
ENDBRANCH   2   3
BRANCH   1  20
ATOM     17  C   UNL     1       0.215  -0.757   1.684  0.00  0.00    +0.165 A 
ATOM     18  C   UNL     1       0.586   0.010   2.781  0.00  0.00    +0.050 A 
ATOM     19  C   UNL     1       1.320  -0.550   3.804  0.00  0.00    +0.017 A 
ATOM     20  C   UNL     1       1.696  -1.895   3.740  0.00  0.00    +0.040 A 
ATOM     21  C   UNL     1       1.321  -2.670   2.634  0.00  0.00    +0.174 A 
ATOM     22  C   UNL     1       0.577  -2.098   1.612  0.00  0.00    +0.204 A 
BRANCH  17  24
ATOM     23  C   UNL     1      -0.847   1.185   0.816  0.00  0.00    +0.277 C 
ATOM     24  O   UNL     1      -0.509  -0.196   0.679  0.00  0.00    -0.491 OA
ENDBRANCH  17  24
BRANCH  22  25
ATOM     25  O   UNL     1       0.206  -2.847   0.538  0.00  0.00    -0.488 OA
ATOM     26  C   UNL     1       1.107  -2.881  -0.571  0.00  0.00    +0.277 C 
ENDBRANCH  22  25
BRANCH  21  27
ATOM     27  O   UNL     1       1.682  -3.979   2.564  0.00  0.00    -0.491 OA
ATOM     28  C   UNL     1       0.725  -4.940   3.013  0.00  0.00    +0.277 C 
ENDBRANCH  21  27
ENDBRANCH   1  20
TORSDOF 6
