REMARK  Name = ZINC21082574
REMARK  10 active torsions:
REMARK  status: ('A' for Active; 'I' for Inactive)
REMARK    1  A    between atoms: C_1  and  C_2
REMARK    2  A    between atoms: C_5  and  N_9
REMARK    3  A    between atoms: C_6  and  C_8
REMARK    4  A    between atoms: C_10  and  C_12
REMARK    5  A    between atoms: C_12  and  C_13
REMARK    6  A    between atoms: C_13  and  S_14
REMARK    7  A    between atoms: S_14  and  C_15
REMARK    8  A    between atoms: N_20  and  N_21
REMARK    9  A    between atoms: C_22  and  C_23
REMARK   10  A    between atoms: C_22  and  C_24
REMARK                            x       y       z     vdW  Elec       q    Type
REMARK                         _______ _______ _______ _____ _____    ______ ____
ROOT
ATOM      1  C   UNL     1      -0.018   1.361   0.040  0.00  0.00    +0.210 A 
ATOM      2  N   UNL     1       0.001  -0.005   0.041  0.00  0.00    -0.186 NA
ATOM      3  C   UNL     1       1.306  -0.410   0.022  0.00  0.00    +0.232 A 
ATOM      4  N   UNL     1       2.063   0.661   0.010  0.00  0.00    -0.245 N 
ATOM      5  N   UNL     1       1.224   1.783   0.021  0.00  0.00    -0.144 NA
ATOM      6  N   UNL     1       1.752  -1.724   0.017  0.00  0.00    -0.205 N 
ATOM      7  H   UNL     1       1.027  -2.551   0.028  0.00  0.00    +0.177 HD
ATOM      8  H   UNL     1       3.158   0.560  -0.005  0.00  0.00    +0.192 HD
ENDROOT
BRANCH   6   9
ATOM      9  N   UNL     1       3.126  -1.997  -0.003  0.00  0.00    -0.184 NA
ATOM     10  C   UNL     1       3.544  -3.227  -0.008  0.00  0.00    +0.063 C 
ATOM     11  C   UNL     1       2.551  -4.360   0.007  0.00  0.00    +0.068 C 
BRANCH  10  12
ATOM     12  C   UNL     1       4.989  -3.515  -0.029  0.00  0.00    +0.000 A 
ATOM     13  C   UNL     1       5.462  -4.834  -0.029  0.00  0.00    +0.029 A 
ATOM     14  C   UNL     1       6.822  -5.057  -0.053  0.00  0.00    +0.111 A 
ATOM     15  N   UNL     1       7.673  -4.048  -0.066  0.00  0.00    -0.263 NA
ATOM     16  C   UNL     1       7.272  -2.791  -0.062  0.00  0.00    +0.111 A 
ATOM     17  C   UNL     1       5.930  -2.476  -0.043  0.00  0.00    +0.029 A 
ENDBRANCH  10  12
ENDBRANCH   6   9
BRANCH   1  18
ATOM     18  S   UNL     1      -1.457   2.377   0.053  0.00  0.00    -0.084 S 
BRANCH  18  19
ATOM     19  C   UNL     1      -0.685   4.015   0.044  0.00  0.00    +0.086 C 
BRANCH  19  20
ATOM     20  C   UNL     1      -1.773   5.091   0.054  0.00  0.00    +0.107 C 
BRANCH  20  22
ATOM     21  N   UNL     1      -1.899   7.561   0.053  0.00  0.00    -0.285 N 
ATOM     22  C   UNL     1      -1.130   6.454   0.046  0.00  0.00    +0.218 C 
ATOM     23  O   UNL     1       0.078   6.555   0.034  0.00  0.00    -0.275 OA
ATOM     24  H   UNL     1      -2.992   7.472  -0.028  0.00  0.00    +0.155 HD
BRANCH  21  29
ATOM     25  C   UNL     1       0.505  12.681   0.497  0.00  0.00    +0.044 C 
ATOM     26  C   UNL     1      -0.133  11.321   0.379  0.00  0.00    -0.050 A 
ATOM     27  C   UNL     1       0.522  10.206   0.869  0.00  0.00    +0.005 A 
ATOM     28  C   UNL     1      -0.061   8.958   0.763  0.00  0.00    +0.024 A 
ATOM     29  C   UNL     1      -1.306   8.824   0.162  0.00  0.00    +0.036 A 
ATOM     30  C   UNL     1      -1.958   9.945  -0.335  0.00  0.00    -0.029 A 
ATOM     31  C   UNL     1      -1.373  11.190  -0.220  0.00  0.00    +0.008 A 
ATOM     32  C   UNL     1      -3.307   9.802  -0.993  0.00  0.00    +0.045 C 
ENDBRANCH  21  29
ENDBRANCH  20  22
ENDBRANCH  19  20
ENDBRANCH  18  19
ENDBRANCH   1  18
TORSDOF 7
