REMARK  Name = ZINC04417976
REMARK  4 active torsions:
REMARK  status: ('A' for Active; 'I' for Inactive)
REMARK    1  A    between atoms: C_1  and  C_2
REMARK    2  A    between atoms: C_9  and  C_26
REMARK    3  A    between atoms: C_10  and  N_25
REMARK    4  A    between atoms: N_11  and  C_19
REMARK                            x       y       z     vdW  Elec       q    Type
REMARK                         _______ _______ _______ _____ _____    ______ ____
ROOT
ATOM      1  C   UNL     1      -3.040   0.007  -4.326  0.00  0.00    +0.044 C 
ATOM      2  C   UNL     1      -3.194  -0.730  -3.020  0.00  0.00    -0.050 A 
ATOM      3  C   UNL     1      -4.403  -1.321  -2.717  0.00  0.00    +0.005 A 
ATOM      4  C   UNL     1      -4.606  -2.013  -1.533  0.00  0.00    +0.024 A 
ATOM      5  C   UNL     1      -3.530  -2.090  -0.647  0.00  0.00    +0.038 A 
ATOM      6  C   UNL     1      -2.310  -1.484  -0.966  0.00  0.00    -0.001 A 
ATOM      7  C   UNL     1      -2.115  -0.799  -2.146  0.00  0.00    +0.010 A 
ATOM      8  C   UNL     1      -1.390  -1.754   0.185  0.00  0.00    +0.141 C 
ATOM      9  C   UNL     1      -0.960  -0.476   0.842  0.00  0.00    +0.089 C 
ATOM     10  C   UNL     1       0.295   0.013   0.662  0.00  0.00    +0.108 C 
ATOM     11  N   UNL     1       1.198  -0.675  -0.117  0.00  0.00    -0.259 N 
ATOM     12  C   UNL     1       1.013  -2.004  -0.394  0.00  0.00    +0.025 C 
ATOM     13  C   UNL     1      -0.206  -2.570  -0.264  0.00  0.00    +0.037 C 
ATOM     14  C   UNL     1      -0.407  -3.932  -0.548  0.00  0.00    +0.162 C 
ATOM     15  O   UNL     1      -1.513  -4.415  -0.405  0.00  0.00    -0.292 OA
ATOM     16  C   UNL     1       0.723  -4.804  -1.025  0.00  0.00    +0.080 C 
ATOM     17  C   UNL     1       1.739  -3.936  -1.776  0.00  0.00    +0.014 C 
ATOM     18  C   UNL     1       2.203  -2.816  -0.842  0.00  0.00    +0.052 C 
ATOM     19  C   UNL     1      -2.232  -2.567   1.148  0.00  0.00    +0.238 C 
ATOM     20  O   UNL     1      -1.877  -3.007   2.221  0.00  0.00    -0.274 OA
ATOM     21  N   UNL     1      -3.450  -2.709   0.588  0.00  0.00    -0.284 N 
ATOM     22  H   UNL     1      -4.185  -3.189   1.002  0.00  0.00    +0.155 HD
ENDROOT
BRANCH  11  23
ATOM     23  C   UNL     1       2.318  -0.009  -0.631  0.00  0.00    +0.058 A 
ATOM     24  C   UNL     1       2.259   0.617  -1.874  0.00  0.00    +0.027 A 
ATOM     25  C   UNL     1       3.392   1.262  -2.340  0.00  0.00    +0.021 A 
ATOM     26  C   UNL     1       4.535   1.265  -1.562  0.00  0.00    +0.111 A 
ATOM     27  N   UNL     1       4.559   0.663  -0.389  0.00  0.00    -0.261 NA
ATOM     28  C   UNL     1       3.501   0.042   0.094  0.00  0.00    +0.134 A 
ENDBRANCH  11  23
BRANCH  10  29
ATOM     29  N   UNL     1       0.665   1.192   1.264  0.00  0.00    -0.345 N 
ATOM     30  H   UNL     1       1.585   1.494   1.212  0.00  0.00    +0.144 HD
ATOM     31  H   UNL     1       0.005   1.723   1.736  0.00  0.00    +0.144 HD
ENDBRANCH  10  29
BRANCH   9  32
ATOM     32  C   UNL     1      -1.886   0.241   1.666  0.00  0.00    +0.100 C 
ATOM     33  N   UNL     1      -2.620   0.810   2.319  0.00  0.00    -0.191 NA
ENDBRANCH   9  32
TORSDOF 3
