REMARK  Name = ZINC65266630
REMARK  6 active torsions:
REMARK  status: ('A' for Active; 'I' for Inactive)
REMARK    1  A    between atoms: C_1  and  O_2
REMARK    2  A    between atoms: O_2  and  C_3
REMARK    3  A    between atoms: C_3  and  C_5
REMARK    4  A    between atoms: C_10  and  N_11
REMARK    5  A    between atoms: C_22  and  N_24
REMARK    6  A    between atoms: C_25  and  C_27
REMARK                            x       y       z     vdW  Elec       q    Type
REMARK                         _______ _______ _______ _____ _____    ______ ____
ROOT
ATOM      1  N   UNL     1       1.701  -2.007  -3.365  0.00  0.00    -0.269 N 
ATOM      2  C   UNL     1       2.109  -2.659  -4.472  0.00  0.00    +0.307 C 
ATOM      3  O   UNL     1       1.955  -3.862  -4.560  0.00  0.00    -0.252 OA
ATOM      4  N   UNL     1       2.688  -1.978  -5.481  0.00  0.00    -0.282 N 
ATOM      5  C   UNL     1       2.952  -0.525  -5.527  0.00  0.00    +0.115 C 
ATOM      6  C   UNL     1       3.611  -0.271  -6.919  0.00  0.00    +0.028 C 
ATOM      7  C   UNL     1       2.868  -1.372  -7.759  0.00  0.00    +0.029 C 
ATOM      8  C   UNL     1       3.192  -2.546  -6.764  0.00  0.00    +0.080 C 
ATOM      9  C   UNL     1       4.744  -2.428  -6.665  0.00  0.00    +0.045 C 
ATOM     10  C   UNL     1       5.034  -0.897  -6.781  0.00  0.00    +0.080 C 
ATOM     11  H   UNL     1       1.751  -1.039  -3.327  0.00  0.00    +0.156 HD
ENDROOT
BRANCH   1  17
ATOM     12  C   UNL     1       0.174  -2.187  -1.492  0.00  0.00    +0.080 A 
ATOM     13  C   UNL     1      -0.316  -2.918  -0.406  0.00  0.00    +0.017 A 
ATOM     14  C   UNL     1       0.218  -4.153  -0.112  0.00  0.00    +0.001 A 
ATOM     15  C   UNL     1       1.240  -4.676  -0.887  0.00  0.00    +0.002 A 
ATOM     16  C   UNL     1       1.736  -3.966  -1.962  0.00  0.00    +0.024 A 
ATOM     17  C   UNL     1       1.206  -2.722  -2.278  0.00  0.00    +0.049 A 
BRANCH  12  18
ATOM     18  C   UNL     1      -0.392  -0.865  -1.812  0.00  0.00    +0.341 C 
ATOM     19  O   UNL     1       0.093  -0.195  -2.703  0.00  0.00    -0.245 OA
BRANCH  18  21
ATOM     20  C   UNL     1      -1.946   0.891  -1.482  0.00  0.00    +0.280 C 
ATOM     21  O   UNL     1      -1.448  -0.398  -1.117  0.00  0.00    -0.464 OA
ENDBRANCH  18  21
ENDBRANCH  12  18
ENDBRANCH   1  17
BRANCH  10  22
ATOM     22  N   UNL     1       5.702  -0.392  -5.580  0.00  0.00    -0.308 N 
ATOM     23  C   UNL     1       6.453   0.725  -5.646  0.00  0.00    +0.244 C 
ATOM     24  O   UNL     1       6.576   1.314  -6.703  0.00  0.00    -0.270 OA
ATOM     25  H   UNL     1       5.605  -0.861  -4.736  0.00  0.00    +0.149 HD
BRANCH  23  26
ATOM     26  C   UNL     1       7.128   1.236  -4.433  0.00  0.00    +0.037 A 
ATOM     27  C   UNL     1       6.994   0.559  -3.220  0.00  0.00    +0.013 A 
ATOM     28  C   UNL     1       7.627   1.040  -2.092  0.00  0.00    +0.001 A 
ATOM     29  C   UNL     1       8.393   2.191  -2.163  0.00  0.00    +0.000 A 
ATOM     30  C   UNL     1       8.529   2.866  -3.362  0.00  0.00    +0.001 A 
ATOM     31  C   UNL     1       7.907   2.392  -4.499  0.00  0.00    +0.013 A 
ENDBRANCH  23  26
ENDBRANCH  10  22
TORSDOF 5
