REMARK  Name = ZINC48798392
REMARK  5 active torsions:
REMARK  status: ('A' for Active; 'I' for Inactive)
REMARK    1  A    between atoms: C_3  and  N_20
REMARK    2  A    between atoms: C_4  and  C_10
REMARK    3  A    between atoms: C_6  and  N_7
REMARK    4  A    between atoms: C_12  and  C_15
REMARK    5  A    between atoms: C_15  and  C_16
REMARK                            x       y       z     vdW  Elec       q    Type
REMARK                         _______ _______ _______ _____ _____    ______ ____
ROOT
ATOM      1  C   UNL     1      -0.012   1.388   0.040  0.00  0.00    +0.034 A 
ATOM      2  C   UNL     1       1.173   2.084   0.173  0.00  0.00    +0.026 A 
ATOM      3  C   UNL     1       2.385   1.409   0.129  0.00  0.00    +0.037 A 
ATOM      4  C   UNL     1       2.399   0.018  -0.051  0.00  0.00    +0.062 A 
ATOM      5  C   UNL     1       1.193  -0.672  -0.185  0.00  0.00    +0.047 A 
ATOM      6  C   UNL     1      -0.001   0.014  -0.139  0.00  0.00    +0.127 A 
ENDROOT
BRANCH   4   7
ATOM      7  C   UNL     1       3.681  -0.711  -0.101  0.00  0.00    +0.260 A 
ATOM      8  N   UNL     1       3.966  -1.819   0.548  0.00  0.00    -0.191 NA
ATOM      9  C   UNL     1       5.214  -2.201   0.271  0.00  0.00    +0.181 A 
ATOM     10  N   UNL     1       5.748  -1.349  -0.557  0.00  0.00    -0.061 NA
ATOM     11  O   UNL     1       4.761  -0.363  -0.822  0.00  0.00    -0.333 OA
BRANCH   9  12
ATOM     12  C   UNL     1       5.897  -3.424   0.827  0.00  0.00    +0.192 C 
BRANCH  12  13
ATOM     13  C   UNL     1       5.643  -4.616  -0.099  0.00  0.00    +0.397 C 
ATOM     14  F   UNL     1       6.152  -4.335  -1.371  0.00  0.00    -0.170 F 
ATOM     15  F   UNL     1       6.277  -5.751   0.417  0.00  0.00    -0.170 F 
ATOM     16  F   UNL     1       4.266  -4.851  -0.189  0.00  0.00    -0.170 F 
ENDBRANCH  12  13
ENDBRANCH   9  12
ENDBRANCH   4   7
BRANCH   6  17
ATOM     17  N   UNL     1      -1.279  -0.720  -0.280  0.00  0.00    +0.056 N 
ATOM     18  O   UNL     1      -2.328  -0.120  -0.240  0.00  0.00    -0.126 OA
ATOM     19  O   UNL     1      -1.273  -1.919  -0.436  0.00  0.00    -0.126 OA
ENDBRANCH   6  17
BRANCH   3  20
ATOM     20  N   UNL     1       3.580   2.109   0.263  0.00  0.00    -0.357 N 
ATOM     21  H   UNL     1       3.573   3.079   0.295  0.00  0.00    +0.142 HD
ATOM     22  H   UNL     1       4.420   1.628   0.323  0.00  0.00    +0.142 HD
ENDBRANCH   3  20
TORSDOF 5
