REMARK  Name = ZINC21520876
REMARK  7 active torsions:
REMARK  status: ('A' for Active; 'I' for Inactive)
REMARK    1  A    between atoms: C_1  and  C_2
REMARK    2  A    between atoms: C_2  and  C_4
REMARK    3  A    between atoms: C_2  and  S_15
REMARK    4  A    between atoms: N_6  and  C_7
REMARK    5  A    between atoms: C_12  and  N_13
REMARK    6  A    between atoms: S_15  and  C_16
REMARK    7  A    between atoms: N_20  and  C_21
REMARK                            x       y       z     vdW  Elec       q    Type
REMARK                         _______ _______ _______ _____ _____    ______ ____
ROOT
ATOM      1  C   UNL     1      -0.731   2.290   1.250  0.00  0.00    +0.230 C 
ATOM      2  O   UNL     1      -0.766   1.591   2.241  0.00  0.00    -0.274 OA
ATOM      3  N   UNL     1      -1.313   3.506   1.262  0.00  0.00    -0.283 N 
ATOM      4  H   UNL     1      -1.203   4.176   0.397  0.00  0.00    +0.155 HD
ENDROOT
BRANCH   3   5
ATOM      5  C   UNL     1      -2.058   3.916   2.377  0.00  0.00    +0.054 A 
ATOM      6  C   UNL     1      -2.634   2.971   3.213  0.00  0.00    +0.026 A 
ATOM      7  C   UNL     1      -3.368   3.377   4.312  0.00  0.00    +0.022 A 
ATOM      8  C   UNL     1      -3.531   4.724   4.582  0.00  0.00    +0.043 A 
ATOM      9  C   UNL     1      -2.959   5.673   3.752  0.00  0.00    +0.044 A 
ATOM     10  C   UNL     1      -2.217   5.274   2.651  0.00  0.00    +0.047 A 
ATOM     11 CL   UNL     1      -4.454   5.226   5.963  0.00  0.00    -0.083 Cl
BRANCH  10  12
ATOM     12  N   UNL     1      -1.633   6.231   1.814  0.00  0.00    -0.356 N 
ATOM     13  H   UNL     1      -1.760   7.302   2.032  0.00  0.00    +0.142 HD
ATOM     14  H   UNL     1      -1.048   5.913   0.939  0.00  0.00    +0.142 HD
ENDBRANCH  10  12
ENDBRANCH   3   5
BRANCH   1  16
ATOM     15  C   UNL     1       1.401   2.326  -0.016  0.00  0.00    +0.029 C 
ATOM     16  C   UNL     1      -0.036   1.800   0.006  0.00  0.00    +0.137 C 
BRANCH  16  17
ATOM     17  S   UNL     1      -0.015  -0.010   0.001  0.00  0.00    -0.072 S 
BRANCH  17  18
ATOM     18  C   UNL     1       0.695  -0.303  -1.585  0.00  0.00    +0.210 A 
ATOM     19  N   UNL     1       1.073   0.610  -2.453  0.00  0.00    -0.102 NA
ATOM     20  N   UNL     1       1.550   0.057  -3.509  0.00  0.00    -0.022 NA
ATOM     21  N   UNL     1       1.512  -1.227  -3.398  0.00  0.00    -0.043 NA
ATOM     22  N   UNL     1       0.959  -1.510  -2.138  0.00  0.00    -0.223 N 
ATOM     23  C   UNL     1       0.717  -2.830  -1.549  0.00  0.00    +0.177 C 
ENDBRANCH  17  18
ENDBRANCH  16  17
ENDBRANCH   1  16
TORSDOF 5
