REMARK  Name = ZINC39652707
REMARK  9 active torsions:
REMARK  status: ('A' for Active; 'I' for Inactive)
REMARK    1  A    between atoms: C_1  and  C_2
REMARK    2  A    between atoms: C_2  and  O_3
REMARK    3  A    between atoms: O_3  and  C_4
REMARK    4  A    between atoms: C_9  and  C_10
REMARK    5  A    between atoms: C_10  and  C_11
REMARK    6  A    between atoms: C_11  and  N_12
REMARK    7  A    between atoms: C_13  and  C_15
REMARK    8  A    between atoms: C_26  and  C_28
REMARK    9  A    between atoms: C_31  and  C_36
REMARK                            x       y       z     vdW  Elec       q    Type
REMARK                         _______ _______ _______ _____ _____    ______ ____
ROOT
ATOM      1  C   UNL     1       5.818   1.175  -4.381  0.00  0.00    +0.100 C 
ATOM      2  C   UNL     1       4.895   2.349  -4.778  0.00  0.00    +0.121 C 
ATOM      3  N   UNL     1       5.461   3.524  -4.074  0.00  0.00    -0.296 N 
ATOM      4  C   UNL     1       6.929   3.347  -4.183  0.00  0.00    +0.115 C 
ATOM      5  C   UNL     1       7.152   1.834  -3.994  0.00  0.00    -0.004 C 
ATOM      6  C   UNL     1       8.268   1.346  -4.914  0.00  0.00    -0.010 C 
ATOM      7  C   UNL     1       9.595   1.970  -4.473  0.00  0.00    -0.082 C 
ATOM      8  N   UNL     1       9.879   1.592  -3.084  0.00  0.00    +0.379 N 
ATOM      9  C   UNL     1       8.850   2.144  -2.195  0.00  0.00    -0.082 C 
ATOM     10  C   UNL     1       7.491   1.528  -2.539  0.00  0.00    -0.010 C 
ATOM     11  C   UNL     1       4.792   4.526  -3.470  0.00  0.00    +0.250 C 
ATOM     12  O   UNL     1       5.400   5.474  -3.013  0.00  0.00    -0.270 OA
ATOM     13  H   UNL     1       9.885   0.586  -3.005  0.00  0.00    -0.086 HD
ATOM     14  H   UNL     1      10.782   1.953  -2.816  0.00  0.00    -0.086 HD
ENDROOT
BRANCH  11  15
ATOM     15  C   UNL     1       3.320   4.473  -3.365  0.00  0.00    +0.075 A 
ATOM     16  C   UNL     1       2.563   3.905  -4.392  0.00  0.00    +0.016 A 
ATOM     17  C   UNL     1       1.189   3.858  -4.289  0.00  0.00    +0.007 A 
ATOM     18  C   UNL     1       0.556   4.372  -3.170  0.00  0.00    -0.012 A 
ATOM     19  C   UNL     1       1.296   4.937  -2.147  0.00  0.00    +0.162 A 
ATOM     20  C   UNL     1       2.678   4.986  -2.234  0.00  0.00    +0.171 A 
ATOM     21  F   UNL     1       3.402   5.532  -1.233  0.00  0.00    -0.202 F 
ATOM     22  F   UNL     1       0.671   5.436  -1.058  0.00  0.00    -0.202 F 
ATOM     23  C   UNL     1      -0.947   4.316  -3.067  0.00  0.00    +0.047 C 
ENDBRANCH  11  15
BRANCH   1  25
ATOM     24  N   UNL     1       5.523  -0.878  -3.031  0.00  0.00    -0.315 N 
ATOM     25  C   UNL     1       5.241   0.429  -3.205  0.00  0.00    +0.218 C 
ATOM     26  O   UNL     1       4.523   1.004  -2.415  0.00  0.00    -0.275 OA
ATOM     27  H   UNL     1       6.097  -1.338  -3.663  0.00  0.00    +0.149 HD
BRANCH  24  28
ATOM     28  C   UNL     1       4.963  -1.603  -1.889  0.00  0.00    +0.109 C 
BRANCH  28  29
ATOM     29  C   UNL     1       5.435  -3.058  -1.926  0.00  0.00    +0.057 C 
BRANCH  29  35
ATOM     30  C   UNL     1       3.587  -4.353  -0.833  0.00  0.00    +0.124 A 
ATOM     31  C   UNL     1       3.062  -5.044   0.250  0.00  0.00    +0.046 A 
ATOM     32  C   UNL     1       3.802  -5.178   1.408  0.00  0.00    +0.004 A 
ATOM     33  C   UNL     1       5.067  -4.624   1.490  0.00  0.00    +0.000 A 
ATOM     34  C   UNL     1       5.593  -3.935   0.412  0.00  0.00    +0.007 A 
ATOM     35  C   UNL     1       4.858  -3.803  -0.750  0.00  0.00    -0.004 A 
BRANCH  30  36
ATOM     36  O   UNL     1       2.861  -4.221  -1.973  0.00  0.00    -0.492 OA
BRANCH  36  38
ATOM     37  C   UNL     1       0.900  -4.561  -3.344  0.00  0.00    +0.048 C 
ATOM     38  C   UNL     1       1.560  -4.812  -1.987  0.00  0.00    +0.225 C 
ENDBRANCH  36  38
ENDBRANCH  30  36
ENDBRANCH  29  35
ENDBRANCH  28  29
ENDBRANCH  24  28
ENDBRANCH   1  25
TORSDOF 7
