REMARK  Name = ZINC11134523
REMARK  10 active torsions:
REMARK  status: ('A' for Active; 'I' for Inactive)
REMARK    1  A    between atoms: C_1  and  C_2
REMARK    2  A    between atoms: C_10  and  C_27
REMARK    3  A    between atoms: C_11  and  C_12
REMARK    4  A    between atoms: C_12  and  O_14
REMARK    5  A    between atoms: O_14  and  C_15
REMARK    6  A    between atoms: C_15  and  C_17
REMARK    7  A    between atoms: C_15  and  C_18
REMARK    8  A    between atoms: N_23  and  C_24
REMARK    9  A    between atoms: C_24  and  C_25
REMARK   10  A    between atoms: C_24  and  C_26
REMARK                            x       y       z     vdW  Elec       q    Type
REMARK                         _______ _______ _______ _____ _____    ______ ____
ROOT
ATOM      1  C   UNL     1       3.459   6.132   0.005  0.00  0.00    +0.342 C 
ATOM      2  O   UNL     1       3.971   6.468   1.054  0.00  0.00    -0.245 OA
ENDROOT
BRANCH   1  13
ATOM      3  C   UNL     1       3.679   3.229  -0.015  0.00  0.00    +0.045 C 
ATOM      4  C   UNL     1       2.336   3.913   0.001  0.00  0.00    -0.026 A 
ATOM      5  C   UNL     1       1.144   3.169   0.008  0.00  0.00    +0.004 A 
ATOM      6  C   UNL     1       1.162   1.764   0.000  0.00  0.00    +0.010 A 
ATOM      7  C   UNL     1      -0.013   1.076   0.008  0.00  0.00    +0.001 A 
ATOM      8  C   UNL     1      -1.234   1.747   0.017  0.00  0.00    +0.002 A 
ATOM      9  C   UNL     1      -1.288   3.107   0.031  0.00  0.00    +0.028 A 
ATOM     10  C   UNL     1      -0.097   3.854   0.024  0.00  0.00    +0.072 A 
ATOM     11  N   UNL     1      -0.128   5.192   0.032  0.00  0.00    -0.251 NA
ATOM     12  C   UNL     1       0.969   5.905   0.026  0.00  0.00    +0.053 A 
ATOM     13  C   UNL     1       2.239   5.301   0.011  0.00  0.00    +0.083 A 
ATOM     14  C   UNL     1       0.870   7.409   0.036  0.00  0.00    +0.066 C 
ENDBRANCH   1  13
BRANCH   1  15
ATOM     15  O   UNL     1       4.005   6.518  -1.165  0.00  0.00    -0.449 OA
BRANCH  15  16
ATOM     16  C   UNL     1       5.204   7.335  -1.095  0.00  0.00    +0.259 C 
ATOM     17  C   UNL     1       4.812   8.813  -1.056  0.00  0.00    +0.062 C 
BRANCH  16  18
ATOM     18  C   UNL     1       6.061   7.074  -2.307  0.00  0.00    +0.261 C 
ATOM     19  O   UNL     1       5.656   6.348  -3.190  0.00  0.00    -0.271 OA
ATOM     20  N   UNL     1       7.276   7.647  -2.409  0.00  0.00    -0.237 N 
ATOM     21  C   UNL     1       8.042   7.413  -3.493  0.00  0.00    +0.306 C 
ATOM     22  O   UNL     1       7.637   6.686  -4.378  0.00  0.00    -0.252 OA
ATOM     23  N   UNL     1       9.258   7.986  -3.595  0.00  0.00    -0.297 N 
ATOM     24  H   UNL     1       7.599   8.227  -1.702  0.00  0.00    +0.159 HD
ATOM     25  H   UNL     1       9.581   8.567  -2.888  0.00  0.00    +0.151 HD
BRANCH  23  26
ATOM     26  C   UNL     1      10.091   7.733  -4.773  0.00  0.00    +0.068 C 
ATOM     27  C   UNL     1       9.702   8.702  -5.891  0.00  0.00    +0.027 C 
ATOM     28  C   UNL     1      11.563   7.937  -4.410  0.00  0.00    +0.027 C 
ENDBRANCH  23  26
ENDBRANCH  16  18
ENDBRANCH  15  16
ENDBRANCH   1  15
TORSDOF 5
