REMARK  Name = ZINC12576348
REMARK  8 active torsions:
REMARK  status: ('A' for Active; 'I' for Inactive)
REMARK    1  A    between atoms: C_10  and  N_12
REMARK    2  A    between atoms: C_13  and  C_14
REMARK    3  A    between atoms: C_15  and  O_21
REMARK    4  A    between atoms: C_17  and  O_20
REMARK    5  A    between atoms: C_23  and  N_25
REMARK    6  A    between atoms: C_26  and  C_27
REMARK    7  A    between atoms: C_28  and  O_34
REMARK    8  A    between atoms: C_30  and  O_33
REMARK                            x       y       z     vdW  Elec       q    Type
REMARK                         _______ _______ _______ _____ _____    ______ ____
ROOT
ATOM      1  C   UNL     1      -0.016   1.350   0.009  0.00  0.00    +0.012 A 
ATOM      2  C   UNL     1       1.197   2.070   0.002  0.00  0.00    -0.001 A 
ATOM      3  C   UNL     1       2.468   1.337  -0.014  0.00  0.00    +0.049 A 
ATOM      4  N   UNL     1       3.628   1.988  -0.022  0.00  0.00    -0.354 N 
ATOM      5  C   UNL     1       3.678   3.318  -0.016  0.00  0.00    +0.049 A 
ATOM      6  C   UNL     1       2.445   4.113   0.000  0.00  0.00    -0.001 A 
ATOM      7  C   UNL     1       1.207   3.467   0.009  0.00  0.00    +0.020 A 
ATOM      8  C   UNL     1       2.531   5.522   0.006  0.00  0.00    +0.012 A 
ATOM      9  C   UNL     1       3.744   6.124  -0.002  0.00  0.00    +0.028 A 
ATOM     10  C   UNL     1       4.936   5.373  -0.018  0.00  0.00    +0.066 A 
ATOM     11  C   UNL     1       4.914   3.990  -0.024  0.00  0.00    +0.054 A 
ATOM     12  C   UNL     1       2.434  -0.070  -0.021  0.00  0.00    +0.054 A 
ATOM     13  C   UNL     1       1.214  -0.722  -0.013  0.00  0.00    +0.066 A 
ATOM     14  C   UNL     1       0.002  -0.004   0.002  0.00  0.00    +0.028 A 
ATOM     15  H   UNL     1       4.456   1.483  -0.033  0.00  0.00    +0.166 HD
ENDROOT
BRANCH  10  16
ATOM     16  N   UNL     1       6.137   6.024  -0.026  0.00  0.00    -0.255 NA
ATOM     17  C   UNL     1       6.323   7.042  -0.823  0.00  0.00    +0.123 C 
BRANCH  17  18
ATOM     18  C   UNL     1       7.613   7.741  -0.833  0.00  0.00    +0.035 A 
ATOM     19  C   UNL     1       8.654   7.314   0.010  0.00  0.00    +0.129 A 
ATOM     20  C   UNL     1       9.867   7.979  -0.006  0.00  0.00    +0.091 A 
ATOM     21  C   UNL     1      10.054   9.063  -0.851  0.00  0.00    +0.120 A 
ATOM     22  C   UNL     1       9.025   9.488  -1.687  0.00  0.00    +0.046 A 
ATOM     23  C   UNL     1       7.816   8.832  -1.686  0.00  0.00    +0.016 A 
BRANCH  21  24
ATOM     24  O   UNL     1      11.246   9.713  -0.863  0.00  0.00    -0.507 OA
ATOM     25  H   UNL     1      11.881   9.357  -1.500  0.00  0.00    +0.292 HD
ENDBRANCH  21  24
BRANCH  19  26
ATOM     26  O   UNL     1       8.469   6.254   0.837  0.00  0.00    -0.506 OA
ATOM     27  H   UNL     1       8.705   5.402   0.443  0.00  0.00    +0.292 HD
ENDBRANCH  19  26
ENDBRANCH  17  18
ENDBRANCH  10  16
BRANCH  13  28
ATOM     28  N   UNL     1       1.184  -2.087  -0.021  0.00  0.00    -0.255 NA
ATOM     29  C   UNL     1       0.378  -2.727   0.783  0.00  0.00    +0.123 C 
BRANCH  29  30
ATOM     30  C   UNL     1       0.345  -4.194   0.776  0.00  0.00    +0.035 A 
ATOM     31  C   UNL     1       1.185  -4.914  -0.091  0.00  0.00    +0.129 A 
ATOM     32  C   UNL     1       1.147  -6.297  -0.091  0.00  0.00    +0.091 A 
ATOM     33  C   UNL     1       0.283  -6.969   0.762  0.00  0.00    +0.120 A 
ATOM     34  C   UNL     1      -0.549  -6.258   1.621  0.00  0.00    +0.046 A 
ATOM     35  C   UNL     1      -0.518  -4.883   1.636  0.00  0.00    +0.016 A 
BRANCH  33  36
ATOM     36  O   UNL     1       0.250  -8.326   0.758  0.00  0.00    -0.507 OA
ATOM     37  H   UNL     1       0.868  -8.736   1.379  0.00  0.00    +0.292 HD
ENDBRANCH  33  36
BRANCH  31  38
ATOM     38  O   UNL     1       2.028  -4.256  -0.925  0.00  0.00    -0.506 OA
ATOM     39  H   UNL     1       2.901  -4.082  -0.546  0.00  0.00    +0.292 HD
ENDBRANCH  31  38
ENDBRANCH  29  30
ENDBRANCH  13  28
TORSDOF 8
