REMARK  Name = ZINC01530930
REMARK  8 active torsions:
REMARK  status: ('A' for Active; 'I' for Inactive)
REMARK    1  A    between atoms: C_1  and  C_2
REMARK    2  A    between atoms: C_2  and  C_3
REMARK    3  A    between atoms: C_4  and  C_5
REMARK    4  A    between atoms: C_5  and  C_7
REMARK    5  A    between atoms: C_5  and  C_8
REMARK    6  A    between atoms: C_8  and  C_18
REMARK    7  A    between atoms: N_14  and  C_17
REMARK    8  A    between atoms: C_18  and  C_19
REMARK                            x       y       z     vdW  Elec       q    Type
REMARK                         _______ _______ _______ _____ _____    ______ ____
ROOT
ATOM      1  C   UNL     1       2.437   1.312  -0.014  0.00  0.00    +0.140 C 
ATOM      2  C   UNL     1       1.119   2.064   0.003  0.00  0.00    +0.237 C 
ATOM      3  O   UNL     1       1.087   3.276   0.009  0.00  0.00    -0.274 OA
ATOM      4  N   UNL     1      -0.016   1.334   0.009  0.00  0.00    -0.239 N 
ATOM      5  C   UNL     1       0.002  -0.004   0.002  0.00  0.00    +0.315 C 
ATOM      6  O   UNL     1      -1.067  -0.582   0.009  0.00  0.00    -0.252 OA
ATOM      7  N   UNL     1       1.111  -0.752  -0.013  0.00  0.00    -0.228 N 
ATOM      8  C   UNL     1       2.344  -0.202  -0.021  0.00  0.00    +0.239 C 
ATOM      9  O   UNL     1       3.340  -0.893  -0.034  0.00  0.00    -0.274 OA
ATOM     10  C   UNL     1       0.984  -2.212  -0.019  0.00  0.00    +0.143 C 
ATOM     11  H   UNL     1      -0.994   1.837   0.021  0.00  0.00    +0.159 HD
ENDROOT
BRANCH   1  12
ATOM     12  C   UNL     1       3.241   1.734   1.217  0.00  0.00    +0.085 C 
ATOM     13  C   UNL     1       2.533   1.243   2.482  0.00  0.00    +0.023 C 
BRANCH  12  15
ATOM     14  C   UNL     1       3.436   4.372   1.282  0.00  0.00    -0.102 C 
ATOM     15  C   UNL     1       3.349   3.201   1.253  0.00  0.00    -0.098 C 
BRANCH  14  17
ATOM     16  C   UNL     1       2.144   6.452   1.389  0.00  0.00    +0.017 C 
ATOM     17  C   UNL     1       3.544   5.839   1.318  0.00  0.00    +0.085 C 
ENDBRANCH  14  17
ENDBRANCH  12  15
ENDBRANCH   1  12
BRANCH   1  18
ATOM     18  C   UNL     1       3.218   1.747  -1.256  0.00  0.00    +0.053 C 
BRANCH  18  19
ATOM     19  C   UNL     1       2.497   1.277  -2.493  0.00  0.00    -0.033 C 
ATOM     20  C   UNL     1       2.166   2.137  -3.425  0.00  0.00    +0.004 C 
ENDBRANCH  18  19
ENDBRANCH   1  18
TORSDOF 5
