REMARK  Name = ZINC63486264
REMARK  9 active torsions:
REMARK  status: ('A' for Active; 'I' for Inactive)
REMARK    1  A    between atoms: C_1  and  C_2
REMARK    2  A    between atoms: C_3  and  C_14
REMARK    3  A    between atoms: C_4  and  C_13
REMARK    4  A    between atoms: C_10  and  C_12
REMARK    5  A    between atoms: C_14  and  C_15
REMARK    6  A    between atoms: C_15  and  C_16
REMARK    7  A    between atoms: N_18  and  C_19
REMARK    8  A    between atoms: C_19  and  C_20
REMARK    9  A    between atoms: C_20  and  C_21
REMARK                            x       y       z     vdW  Elec       q    Type
REMARK                         _______ _______ _______ _____ _____    ______ ____
ROOT
ATOM      1  C   UNL     1      -4.367   0.705  -1.379  0.00  0.00    +0.213 C 
ATOM      2  O   UNL     1      -4.859   1.040  -0.323  0.00  0.00    -0.276 OA
ATOM      3  N   UNL     1      -5.028   0.928  -2.532  0.00  0.00    -0.315 N 
ATOM      4  H   UNL     1      -4.634   0.660  -3.377  0.00  0.00    +0.149 HD
ENDROOT
BRANCH   1   5
ATOM      5  C   UNL     1      -3.015   0.039  -1.403  0.00  0.00    +0.100 C 
BRANCH   5   6
ATOM      6  C   UNL     1      -2.487  -0.094   0.027  0.00  0.00    +0.047 C 
BRANCH   6   9
ATOM      7  C   UNL     1      -0.018   1.503   0.010  0.00  0.00    +0.063 C 
ATOM      8  C   UNL     1       0.002  -0.004   0.002  0.00  0.00    +0.035 C 
ATOM      9  C   UNL     1      -1.135  -0.759   0.003  0.00  0.00    -0.008 C 
ATOM     10  C   UNL     1      -1.038  -2.166  -0.018  0.00  0.00    +0.041 C 
ATOM     11  N   UNL     1       0.063  -2.799  -0.307  0.00  0.00    -0.246 NA
ATOM     12  C   UNL     1       1.255  -2.041  -0.688  0.00  0.00    +0.304 C 
ATOM     13  N   UNL     1       1.161  -0.729  -0.013  0.00  0.00    -0.186 N 
ATOM     14  N   UNL     1       2.391  -0.516   0.589  0.00  0.00    -0.166 NA
ATOM     15  C   UNL     1       3.119  -1.580   0.536  0.00  0.00    +0.113 C 
ATOM     16  N   UNL     1       2.485  -2.623  -0.141  0.00  0.00    -0.294 N 
ATOM     17  C   UNL     1       4.499  -1.688   1.132  0.00  0.00    +0.084 C 
ATOM     18  C   UNL     1      -2.266  -2.975   0.311  0.00  0.00    +0.065 C 
ATOM     19  H   UNL     1       2.788  -3.540  -0.238  0.00  0.00    +0.151 HD
ENDBRANCH   6   9
ENDBRANCH   5   6
ENDBRANCH   1   5
BRANCH   3  20
ATOM     20  C   UNL     1      -6.343   1.575  -2.509  0.00  0.00    +0.108 C 
BRANCH  20  21
ATOM     21  C   UNL     1      -6.870   1.708  -3.939  0.00  0.00    +0.052 C 
BRANCH  21  22
ATOM     22  C   UNL     1      -8.222   2.374  -3.915  0.00  0.00    -0.040 C 
ATOM     23  C   UNL     1      -8.484   3.690  -4.087  0.00  0.00    -0.001 A 
ATOM     24  C   UNL     1      -7.621   4.851  -4.336  0.00  0.00    +0.010 A 
ATOM     25  C   UNL     1      -8.187   6.073  -4.465  0.00  0.00    +0.001 A 
ATOM     26  C   UNL     1      -9.573   6.258  -4.367  0.00  0.00    +0.002 A 
ATOM     27  C   UNL     1     -10.430   5.240  -4.140  0.00  0.00    +0.026 A 
ATOM     28  C   UNL     1      -9.944   3.912  -3.988  0.00  0.00    +0.043 A 
ATOM     29  N   UNL     1     -10.562   2.777  -3.764  0.00  0.00    -0.380 N 
ATOM     30  C   UNL     1      -9.562   1.705  -3.702  0.00  0.00    +0.144 C 
ATOM     31  H   UNL     1     -11.519   2.664  -3.661  0.00  0.00    +0.160 HD
ENDBRANCH  21  22
ENDBRANCH  20  21
ENDBRANCH   3  20
TORSDOF 6
