REMARK  Name = ZINC12724770
REMARK  11 active torsions:
REMARK  status: ('A' for Active; 'I' for Inactive)
REMARK    1  A    between atoms: C_1  and  C_2
REMARK    2  A    between atoms: C_2  and  O_3
REMARK    3  A    between atoms: O_3  and  C_4
REMARK    4  A    between atoms: C_4  and  C_6
REMARK    5  A    between atoms: C_7  and  C_30
REMARK    6  A    between atoms: C_11  and  C_15
REMARK    7  A    between atoms: C_15  and  S_16
REMARK    8  A    between atoms: S_16  and  C_17
REMARK    9  A    between atoms: C_20  and  C_23
REMARK   10  A    between atoms: N_21  and  N_22
REMARK   11  A    between atoms: C_27  and  C_28
REMARK                            x       y       z     vdW  Elec       q    Type
REMARK                         _______ _______ _______ _____ _____    ______ ____
ROOT
ATOM      1  C   UNL     1      -9.374   3.372   4.003  0.00  0.00    +0.102 A 
ATOM      2  C   UNL     1      -9.290   2.247   3.240  0.00  0.00    -0.017 A 
ATOM      3  C   UNL     1      -8.319   2.157   2.235  0.00  0.00    +0.051 A 
ATOM      4  C   UNL     1      -8.054   1.087   1.328  0.00  0.00    +0.128 A 
ATOM      5  N   UNL     1      -7.078   1.218   0.445  0.00  0.00    -0.216 NA
ATOM      6  C   UNL     1      -6.330   2.304   0.376  0.00  0.00    +0.143 A 
ATOM      7  N   UNL     1      -6.524   3.327   1.185  0.00  0.00    -0.224 NA
ATOM      8  C   UNL     1      -7.477   3.288   2.094  0.00  0.00    +0.115 A 
ATOM      9  S   UNL     1      -8.070   4.397   3.345  0.00  0.00    -0.062 S 
ATOM     10  N   UNL     1      -8.809  -0.067   1.369  0.00  0.00    -0.343 N 
ATOM     11  C   UNL     1     -10.241   1.101   3.477  0.00  0.00    +0.046 C 
ATOM     12  H   UNL     1      -9.721  -0.038   1.699  0.00  0.00    +0.144 HD
ATOM     13  H   UNL     1      -8.428  -0.907   1.069  0.00  0.00    +0.144 HD
ENDROOT
BRANCH   1  14
ATOM     14  C   UNL     1     -10.307   3.669   5.095  0.00  0.00    +0.346 C 
ATOM     15  O   UNL     1     -11.145   2.849   5.419  0.00  0.00    -0.244 OA
BRANCH  14  16
ATOM     16  O   UNL     1     -10.236   4.851   5.741  0.00  0.00    -0.461 OA
BRANCH  16  18
ATOM     17  C   UNL     1     -10.956   6.460   7.421  0.00  0.00    +0.048 C 
ATOM     18  C   UNL     1     -11.190   5.076   6.812  0.00  0.00    +0.229 C 
ENDBRANCH  16  18
ENDBRANCH  14  16
ENDBRANCH   1  14
BRANCH   6  19
ATOM     19  C   UNL     1      -5.232   2.378  -0.654  0.00  0.00    +0.153 C 
BRANCH  19  20
ATOM     20  S   UNL     1      -3.697   1.731   0.052  0.00  0.00    -0.077 S 
BRANCH  20  21
ATOM     21  C   UNL     1      -2.617   1.931  -1.326  0.00  0.00    +0.209 A 
ATOM     22  N   UNL     1      -2.937   2.425  -2.500  0.00  0.00    -0.121 NA
ATOM     23  N   UNL     1      -1.909   2.428  -3.272  0.00  0.00    -0.127 NA
ATOM     24  C   UNL     1      -0.869   1.941  -2.637  0.00  0.00    +0.185 A 
ATOM     25  N   UNL     1      -1.291   1.602  -1.373  0.00  0.00    -0.224 N 
BRANCH  24  26
ATOM     26  C   UNL     1       0.498   1.783  -3.179  0.00  0.00    +0.061 A 
ATOM     27  C   UNL     1       1.670   1.237  -2.484  0.00  0.00    +0.053 A 
ATOM     28  C   UNL     1       2.682   1.289  -3.365  0.00  0.00    +0.196 A 
ATOM     29  O   UNL     1       2.233   1.811  -4.517  0.00  0.00    -0.467 OA
ATOM     30  C   UNL     1       0.928   2.108  -4.428  0.00  0.00    +0.112 A 
ATOM     31  C   UNL     1       0.083   2.704  -5.524  0.00  0.00    +0.087 C 
ENDBRANCH  24  26
BRANCH  25  32
ATOM     32  N   UNL     1      -0.540   1.056  -0.370  0.00  0.00    -0.295 N 
ATOM     33  H   UNL     1      -0.567   0.048  -0.407  0.00  0.00    +0.163 HD
ATOM     34  H   UNL     1       0.409   1.395  -0.404  0.00  0.00    +0.163 HD
ENDBRANCH  25  32
ENDBRANCH  20  21
ENDBRANCH  19  20
ENDBRANCH   6  19
TORSDOF 8
