REMARK  Name = ZINC40758929
REMARK  5 active torsions:
REMARK  status: ('A' for Active; 'I' for Inactive)
REMARK    1  A    between atoms: C_1  and  O_2
REMARK    2  A    between atoms: O_2  and  C_3
REMARK    3  A    between atoms: C_14  and  N_30
REMARK    4  A    between atoms: C_15  and  N_19
REMARK    5  A    between atoms: N_19  and  C_20
REMARK                            x       y       z     vdW  Elec       q    Type
REMARK                         _______ _______ _______ _____ _____    ______ ____
ROOT
ATOM      1  C   UNL     1      -0.681  -0.653   1.966  0.00  0.00    +0.121 A 
ATOM      2  C   UNL     1       0.081   0.103   2.850  0.00  0.00    +0.048 A 
ATOM      3  C   UNL     1       0.886  -0.489   3.788  0.00  0.00    +0.032 A 
ATOM      4  C   UNL     1       0.967  -1.897   3.886  0.00  0.00    +0.081 A 
ATOM      5  C   UNL     1       0.180  -2.635   2.974  0.00  0.00    +0.044 A 
ATOM      6  C   UNL     1      -0.629  -2.038   2.040  0.00  0.00    +0.063 A 
ATOM      7  S   UNL     1       0.557  -4.314   3.419  0.00  0.00    -0.052 S 
ATOM      8  C   UNL     1       1.698  -3.944   4.744  0.00  0.00    +0.165 A 
ATOM      9  N   UNL     1       1.706  -2.631   4.749  0.00  0.00    -0.225 NA
ATOM     10  N   UNL     1       2.394  -4.819   5.558  0.00  0.00    -0.277 N 
ATOM     11  C   UNL     1       3.244  -4.325   6.543  0.00  0.00    +0.150 A 
ATOM     12  C   UNL     1       3.957  -5.199   7.367  0.00  0.00    +0.106 A 
ATOM     13  C   UNL     1       4.795  -4.651   8.339  0.00  0.00    +0.149 A 
ATOM     14  N   UNL     1       4.883  -3.326   8.443  0.00  0.00    -0.219 NA
ATOM     15  C   UNL     1       4.192  -2.538   7.645  0.00  0.00    +0.225 A 
ATOM     16  N   UNL     1       3.393  -3.014   6.712  0.00  0.00    -0.219 NA
ATOM     17  H   UNL     1       2.291  -5.776   5.441  0.00  0.00    +0.156 HD
ENDROOT
BRANCH  12  18
ATOM     18  N   UNL     1       3.833  -6.589   7.222  0.00  0.00    -0.353 N 
ATOM     19  H   UNL     1       3.246  -6.955   6.542  0.00  0.00    +0.143 HD
ATOM     20  H   UNL     1       4.335  -7.184   7.801  0.00  0.00    +0.143 HD
ENDBRANCH  12  18
BRANCH   1  22
ATOM     21  C   UNL     1      -1.471   1.386   1.031  0.00  0.00    +0.277 C 
ATOM     22  O   UNL     1      -1.472  -0.043   1.043  0.00  0.00    -0.495 OA
ENDBRANCH   1  22
BRANCH  13  23
ATOM     23  N   UNL     1       5.527  -5.475   9.186  0.00  0.00    -0.297 N 
ATOM     24  H   UNL     1       5.531  -6.435   9.045  0.00  0.00    +0.154 HD
BRANCH  23  25
ATOM     25  C   UNL     1       6.256  -4.923  10.238  0.00  0.00    +0.040 A 
ATOM     26  C   UNL     1       5.873  -3.720  10.794  0.00  0.00    +0.024 A 
ATOM     27  C   UNL     1       6.594  -3.160  11.844  0.00  0.00    +0.002 A 
ATOM     28  C   UNL     1       7.694  -3.781  12.352  0.00  0.00    +0.008 A 
ATOM     29  C   UNL     1       8.117  -5.009  11.815  0.00  0.00    -0.016 A 
ATOM     30  C   UNL     1       7.389  -5.592  10.749  0.00  0.00    +0.003 A 
ATOM     31  C   UNL     1       7.810  -6.821  10.217  0.00  0.00    +0.010 A 
ATOM     32  C   UNL     1       8.908  -7.438  10.734  0.00  0.00    +0.001 A 
ATOM     33  C   UNL     1       9.622  -6.869  11.787  0.00  0.00    +0.001 A 
ATOM     34  C   UNL     1       9.249  -5.672  12.319  0.00  0.00    +0.008 A 
ENDBRANCH  23  25
ENDBRANCH  13  23
TORSDOF 4
