REMARK  Name = ZINC10021224
REMARK  11 active torsions:
REMARK  status: ('A' for Active; 'I' for Inactive)
REMARK    1  A    between atoms: C_1  and  C_2
REMARK    2  A    between atoms: C_2  and  C_33
REMARK    3  A    between atoms: C_3  and  C_4
REMARK    4  A    between atoms: N_6  and  C_7
REMARK    5  A    between atoms: C_8  and  C_18
REMARK    6  A    between atoms: C_9  and  C_12
REMARK    7  A    between atoms: C_18  and  O_20
REMARK    8  A    between atoms: O_20  and  C_21
REMARK    9  A    between atoms: C_21  and  C_22
REMARK   10  A    between atoms: N_24  and  C_25
REMARK   11  A    between atoms: C_26  and  C_30
REMARK                            x       y       z     vdW  Elec       q    Type
REMARK                         _______ _______ _______ _____ _____    ______ ____
ROOT
ATOM      1  C   UNL     1      -4.576  -0.993   1.419  0.00  0.00    +0.087 A 
ATOM      2  C   UNL     1      -3.868  -0.752   0.248  0.00  0.00    +0.095 A 
ATOM      3  C   UNL     1      -4.176  -1.602  -0.887  0.00  0.00    +0.005 A 
ATOM      4  C   UNL     1      -5.130  -2.549  -0.700  0.00  0.00    +0.056 A 
ATOM      5  S   UNL     1      -5.620  -2.308   0.995  0.00  0.00    -0.080 S 
ENDROOT
BRANCH   3   6
ATOM      6  C   UNL     1      -3.482  -1.443  -2.188  0.00  0.00    -0.017 A 
ATOM      7  C   UNL     1      -3.393  -0.186  -2.784  0.00  0.00    +0.008 A 
ATOM      8  C   UNL     1      -2.740  -0.043  -3.991  0.00  0.00    +0.001 A 
ATOM      9  C   UNL     1      -2.188  -1.146  -4.617  0.00  0.00    +0.000 A 
ATOM     10  C   UNL     1      -2.279  -2.397  -4.033  0.00  0.00    +0.001 A 
ATOM     11  C   UNL     1      -2.923  -2.551  -2.822  0.00  0.00    +0.008 A 
ENDBRANCH   3   6
BRANCH   1  14
ATOM     12  C   UNL     1      -5.248  -0.713   3.670  0.00  0.00    +0.241 C 
ATOM     13  O   UNL     1      -6.040  -1.627   3.537  0.00  0.00    -0.270 OA
ATOM     14  N   UNL     1      -4.473  -0.338   2.634  0.00  0.00    -0.276 N 
ATOM     15  H   UNL     1      -3.842   0.391   2.739  0.00  0.00    +0.156 HD
BRANCH  12  18
ATOM     16  C   UNL     1      -7.152  -1.223   5.692  0.00  0.00    +0.039 C 
ATOM     17  C   UNL     1      -5.984  -0.305   5.946  0.00  0.00    -0.071 C 
ATOM     18  C   UNL     1      -5.138  -0.017   4.960  0.00  0.00    +0.066 C 
ATOM     19  C   UNL     1      -5.775   0.286   7.316  0.00  0.00    +0.039 C 
ENDBRANCH  12  18
ENDBRANCH   1  14
BRANCH   2  20
ATOM     20  C   UNL     1      -2.858   0.303   0.165  0.00  0.00    +0.343 C 
ATOM     21  O   UNL     1      -3.178   1.425  -0.180  0.00  0.00    -0.245 OA
BRANCH  20  22
ATOM     22  O   UNL     1      -1.573   0.032   0.473  0.00  0.00    -0.452 OA
BRANCH  22  23
ATOM     23  C   UNL     1      -0.625   1.127   0.368  0.00  0.00    +0.328 C 
BRANCH  23  24
ATOM     24  C   UNL     1       0.749   0.639   0.747  0.00  0.00    +0.255 C 
ATOM     25  O   UNL     1       0.914  -0.517   1.073  0.00  0.00    -0.272 OA
ATOM     26  N   UNL     1       1.796   1.487   0.719  0.00  0.00    -0.277 N 
ATOM     27  H   UNL     1       1.665   2.412   0.458  0.00  0.00    +0.155 HD
BRANCH  26  28
ATOM     28  C   UNL     1       3.062   1.037   1.062  0.00  0.00    +0.084 A 
ATOM     29  C   UNL     1       4.255   1.751   1.088  0.00  0.00    +0.065 A 
ATOM     30  C   UNL     1       5.436   1.027   1.493  0.00  0.00    +0.022 A 
ATOM     31  C   UNL     1       5.284  -0.275   1.798  0.00  0.00    +0.048 A 
ATOM     32  S   UNL     1       3.542  -0.552   1.555  0.00  0.00    -0.081 S 
BRANCH  29  33
ATOM     33  C   UNL     1       4.309   3.171   0.726  0.00  0.00    +0.244 C 
ATOM     34  O   UNL     1       3.294   3.753   0.393  0.00  0.00    -0.270 OA
ATOM     35  N   UNL     1       5.484   3.831   0.763  0.00  0.00    -0.325 N 
ATOM     36  H   UNL     1       6.293   3.367   1.029  0.00  0.00    +0.145 HD
ATOM     37  H   UNL     1       5.520   4.770   0.524  0.00  0.00    +0.145 HD
ENDBRANCH  29  33
ENDBRANCH  26  28
ENDBRANCH  23  24
ENDBRANCH  22  23
ENDBRANCH  20  22
ENDBRANCH   2  20
TORSDOF 9
