REMARK  Name = ZINC39461649
REMARK  8 active torsions:
REMARK  status: ('A' for Active; 'I' for Inactive)
REMARK    1  A    between atoms: C_1  and  C_2
REMARK    2  A    between atoms: C_2  and  C_3
REMARK    3  A    between atoms: C_3  and  C_4
REMARK    4  A    between atoms: C_4  and  C_6
REMARK    5  A    between atoms: C_4  and  C_7
REMARK    6  A    between atoms: C_15  and  C_17
REMARK    7  A    between atoms: C_17  and  C_18
REMARK    8  A    between atoms: C_18  and  N_19
REMARK                            x       y       z     vdW  Elec       q    Type
REMARK                         _______ _______ _______ _____ _____    ______ ____
ROOT
ATOM      1  C   UNL     1       1.411  -2.549   2.522  0.00  0.00    +0.104 C 
ATOM      2  C   UNL     1       1.512  -4.053   2.505  0.00  0.00    -0.016 C 
ATOM      3  C   UNL     1       0.802  -4.512   3.522  0.00  0.00    +0.022 C 
ATOM      4  C   UNL     1       0.657  -5.983   3.851  0.00  0.00    +0.071 C 
ATOM      5  C   UNL     1       1.032  -6.811   2.618  0.00  0.00    +0.114 C 
ATOM      6  N   UNL     1       2.281  -6.283   2.046  0.00  0.00    -0.297 N 
ATOM      7  C   UNL     1       2.270  -4.906   1.519  0.00  0.00    +0.141 C 
ATOM      8  C   UNL     1       3.400  -7.034   2.007  0.00  0.00    +0.218 C 
ATOM      9  O   UNL     1       4.418  -6.579   1.531  0.00  0.00    -0.276 OA
ATOM     10  N   UNL     1       0.224  -3.472   4.228  0.00  0.00    -0.284 N 
ATOM     11  N   UNL     1       0.548  -2.258   3.686  0.00  0.00    -0.236 NA
ATOM     12  H   UNL     1      -0.339  -3.588   5.009  0.00  0.00    +0.166 HD
ATOM     13  H   UNL     1       1.029  -1.677   4.356  0.00  0.00    +0.145 HD
ENDROOT
BRANCH   1  14
ATOM     14  C   UNL     1       0.763  -2.041   1.233  0.00  0.00    +0.009 C 
ATOM     15  C   UNL     1       0.678  -0.514   1.273  0.00  0.00    +0.009 C 
BRANCH  14  16
ATOM     16  C   UNL     1      -0.645  -2.627   1.105  0.00  0.00    +0.005 C 
BRANCH  16  18
ATOM     17  C   UNL     1      -2.653  -2.806  -0.371  0.00  0.00    +0.004 C 
ATOM     18  C   UNL     1      -1.246  -2.220  -0.242  0.00  0.00    -0.003 C 
ENDBRANCH  16  18
ENDBRANCH  14  16
ENDBRANCH   1  14
BRANCH   8  19
ATOM     19  C   UNL     1       3.384  -8.438   2.553  0.00  0.00    +0.117 C 
BRANCH  19  20
ATOM     20  C   UNL     1       4.770  -9.065   2.387  0.00  0.00    +0.136 C 
BRANCH  20  21
ATOM     21  N   UNL     1       4.755 -10.431   2.918  0.00  0.00    -0.292 N 
ATOM     22  C   UNL     1       5.041 -10.798   4.231  0.00  0.00    +0.070 A 
ATOM     23  C   UNL     1       5.397 -10.081   5.363  0.00  0.00    +0.028 A 
ATOM     24  C   UNL     1       5.621 -10.744   6.554  0.00  0.00    +0.002 A 
ATOM     25  C   UNL     1       5.491 -12.120   6.622  0.00  0.00    +0.002 A 
ATOM     26  C   UNL     1       5.136 -12.843   5.499  0.00  0.00    +0.028 A 
ATOM     27  C   UNL     1       4.909 -12.186   4.299  0.00  0.00    +0.067 A 
ATOM     28  N   UNL     1       4.548 -12.619   3.026  0.00  0.00    -0.306 N 
ATOM     29  H   UNL     1       4.384 -13.539   2.764  0.00  0.00    +0.170 HD
ATOM     30  C   UNL     1       4.458 -11.544   2.221  0.00  0.00    +0.328 A 
ATOM     31  O   UNL     1       4.157 -11.573   1.043  0.00  0.00    -0.247 OA
ENDBRANCH  20  21
ENDBRANCH  19  20
ENDBRANCH   8  19
TORSDOF 6
