REMARK  Name = ZINC48505871
REMARK  4 active torsions:
REMARK  status: ('A' for Active; 'I' for Inactive)
REMARK    1  A    between atoms: C_6  and  C_7
REMARK    2  A    between atoms: C_7  and  S_8
REMARK    3  A    between atoms: S_8  and  N_11
REMARK    4  A    between atoms: C_12  and  C_14
REMARK                            x       y       z     vdW  Elec       q    Type
REMARK                         _______ _______ _______ _____ _____    ______ ____
ROOT
ATOM      1  S   UNL     1      -1.829  -1.075  -1.697  0.00  0.00    +0.077 S 
ATOM      2  O   UNL     1      -2.197   0.150  -2.316  0.00  0.00    -0.151 OA
ATOM      3  O   UNL     1      -0.934  -1.972  -2.340  0.00  0.00    -0.151 OA
ENDROOT
BRANCH   1   4
ATOM      4  N   UNL     1      -3.246  -1.919  -1.555  0.00  0.00    -0.090 NA
ATOM      5  C   UNL     1      -3.893  -2.292  -2.626  0.00  0.00    +0.301 C 
ATOM      6  O   UNL     1      -3.405  -1.989  -3.851  0.00  0.00    -0.263 OA
BRANCH   5   7
ATOM      7  C   UNL     1      -5.150  -3.042  -2.500  0.00  0.00    +0.081 A 
ATOM      8  C   UNL     1      -5.978  -3.530  -3.497  0.00  0.00    +0.022 A 
ATOM      9  C   UNL     1      -7.100  -4.200  -3.067  0.00  0.00    +0.028 A 
ATOM     10  C   UNL     1      -7.316  -4.336  -1.736  0.00  0.00    +0.079 A 
ATOM     11  S   UNL     1      -6.003  -3.566  -1.025  0.00  0.00    -0.072 S 
ATOM     12 CL   UNL     1      -8.643  -5.130  -0.946  0.00  0.00    -0.076 Cl
ENDBRANCH   5   7
ENDBRANCH   1   4
BRANCH   1  13
ATOM     13  C   UNL     1      -1.293  -0.775   0.010  0.00  0.00    +0.228 C 
BRANCH  13  19
ATOM     14  C   UNL     1      -0.017   1.378   0.010  0.00  0.00    +0.008 A 
ATOM     15  C   UNL     1       1.170   2.086   0.002  0.00  0.00    +0.038 A 
ATOM     16  C   UNL     1       2.379   1.410  -0.013  0.00  0.00    +0.123 A 
ATOM     17  C   UNL     1       2.396   0.026  -0.021  0.00  0.00    +0.038 A 
ATOM     18  C   UNL     1       1.208  -0.680  -0.013  0.00  0.00    +0.008 A 
ATOM     19  C   UNL     1       0.002  -0.004   0.002  0.00  0.00    -0.024 A 
ATOM     20  F   UNL     1       3.540   2.101  -0.021  0.00  0.00    -0.205 F 
ENDBRANCH  13  19
ENDBRANCH   1  13
TORSDOF 4
