REMARK  Name = ZINC63468508
REMARK  11 active torsions:
REMARK  status: ('A' for Active; 'I' for Inactive)
REMARK    1  A    between atoms: C_1  and  C_2
REMARK    2  A    between atoms: C_2  and  C_3
REMARK    3  A    between atoms: C_2  and  N_4
REMARK    4  A    between atoms: C_8  and  C_10
REMARK    5  A    between atoms: C_10  and  N_11
REMARK    6  A    between atoms: N_11  and  C_12
REMARK    7  A    between atoms: C_17  and  C_18
REMARK    8  A    between atoms: N_20  and  C_21
REMARK    9  A    between atoms: C_21  and  C_22
REMARK   10  A    between atoms: C_21  and  C_23
REMARK   11  A    between atoms: C_21  and  C_24
REMARK                            x       y       z     vdW  Elec       q    Type
REMARK                         _______ _______ _______ _____ _____    ______ ____
ROOT
ATOM      1  N   UNL     1      -4.630  -5.268  -1.587  0.00  0.00    -0.335 N 
ATOM      2  H   UNL     1      -3.809  -5.677  -1.899  0.00  0.00    +0.147 HD
ENDROOT
BRANCH   1   3
ATOM      3  C   UNL     1      -5.829  -5.964  -1.669  0.00  0.00    +0.040 A 
ATOM      4  C   UNL     1      -6.988  -5.428  -1.122  0.00  0.00    +0.024 A 
ATOM      5  C   UNL     1      -8.177  -6.122  -1.206  0.00  0.00    +0.002 A 
ATOM      6  C   UNL     1      -8.227  -7.356  -1.834  0.00  0.00    +0.001 A 
ATOM      7  C   UNL     1      -7.089  -7.904  -2.382  0.00  0.00    +0.015 A 
ATOM      8  C   UNL     1      -5.877  -7.212  -2.311  0.00  0.00    +0.057 A 
BRANCH   8   9
ATOM      9  C   UNL     1      -4.656  -7.790  -2.901  0.00  0.00    +0.246 C 
ATOM     10  O   UNL     1      -3.584  -7.237  -2.744  0.00  0.00    -0.270 OA
ATOM     11  N   UNL     1      -4.728  -8.931  -3.615  0.00  0.00    -0.307 N 
ATOM     12  H   UNL     1      -5.582  -9.371  -3.741  0.00  0.00    +0.150 HD
BRANCH  11  13
ATOM     13  C   UNL     1      -3.514  -9.505  -4.202  0.00  0.00    +0.026 C 
ATOM     14  C   UNL     1      -2.514  -9.827  -3.090  0.00  0.00    +0.031 C 
ATOM     15  C   UNL     1      -3.870 -10.788  -4.955  0.00  0.00    +0.031 C 
ATOM     16  C   UNL     1      -2.892  -8.500  -5.173  0.00  0.00    +0.031 C 
ENDBRANCH  11  13
ENDBRANCH   8   9
ENDBRANCH   1   3
BRANCH   1  17
ATOM     17  C   UNL     1      -4.607  -3.914  -1.027  0.00  0.00    +0.198 C 
BRANCH  17  22
ATOM     18  N   UNL     1      -1.407  -0.440  -0.134  0.00  0.00    -0.297 N 
ATOM     19  C   UNL     1      -1.671  -1.675  -0.603  0.00  0.00    +0.306 C 
ATOM     20  O   UNL     1      -0.771  -2.363  -1.045  0.00  0.00    -0.252 OA
ATOM     21  N   UNL     1      -2.932  -2.149  -0.582  0.00  0.00    -0.239 N 
ATOM     22  C   UNL     1      -3.196  -3.385  -1.051  0.00  0.00    +0.237 C 
ATOM     23  O   UNL     1      -2.299  -4.070  -1.492  0.00  0.00    -0.274 OA
ATOM     24  H   UNL     1      -2.124   0.109   0.219  0.00  0.00    +0.151 HD
ATOM     25  H   UNL     1      -3.650  -1.600  -0.229  0.00  0.00    +0.159 HD
BRANCH  18  27
ATOM     26  C   UNL     1      -0.065   1.604  -0.184  0.00  0.00    +0.027 C 
ATOM     27  C   UNL     1      -0.035   0.075  -0.158  0.00  0.00    +0.068 C 
ATOM     28  C   UNL     1       0.709  -0.399   1.093  0.00  0.00    +0.027 C 
ENDBRANCH  18  27
ENDBRANCH  17  22
ENDBRANCH   1  17
TORSDOF 6
