REMARK  Name = ZINC46347476
REMARK  12 active torsions:
REMARK  status: ('A' for Active; 'I' for Inactive)
REMARK    1  A    between atoms: C_1  and  C_2
REMARK    2  A    between atoms: C_4  and  C_28
REMARK    3  A    between atoms: C_6  and  O_8
REMARK    4  A    between atoms: O_8  and  C_9
REMARK    5  A    between atoms: C_9  and  C_10
REMARK    6  A    between atoms: N_12  and  N_13
REMARK    7  A    between atoms: N_16  and  C_17
REMARK    8  A    between atoms: C_17  and  C_18
REMARK    9  A    between atoms: C_18  and  C_20
REMARK   10  A    between atoms: C_18  and  N_25
REMARK   11  A    between atoms: N_25  and  C_26
REMARK   12  A    between atoms: N_25  and  C_27
REMARK                            x       y       z     vdW  Elec       q    Type
REMARK                         _______ _______ _______ _____ _____    ______ ____
ROOT
ATOM      1  N   UNL     1      -0.577  -2.507   6.448  0.00  0.00    -0.218 N 
ATOM      2  C   UNL     1      -0.337  -2.227   7.744  0.00  0.00    +0.316 C 
ATOM      3  O   UNL     1      -0.135  -3.130   8.533  0.00  0.00    -0.251 OA
ATOM      4  N   UNL     1      -0.322  -0.947   8.166  0.00  0.00    -0.299 N 
ATOM      5  H   UNL     1      -0.587  -3.428   6.144  0.00  0.00    +0.174 HD
ATOM      6  H   UNL     1      -0.484  -0.227   7.536  0.00  0.00    +0.150 HD
ENDROOT
BRANCH   1   9
ATOM      7  C   UNL     1      -1.050  -1.747   4.242  0.00  0.00    +0.267 C 
ATOM      8  O   UNL     1      -1.063  -2.898   3.862  0.00  0.00    -0.271 OA
ATOM      9  N   UNL     1      -0.810  -1.467   5.538  0.00  0.00    -0.230 N 
ATOM     10  H   UNL     1      -0.799  -0.546   5.842  0.00  0.00    +0.173 HD
BRANCH   7  11
ATOM     11  C   UNL     1      -1.300  -0.628   3.264  0.00  0.00    +0.326 C 
BRANCH  11  12
ATOM     12  O   UNL     1      -1.527  -1.175   1.963  0.00  0.00    -0.483 OA
BRANCH  12  18
ATOM     13  C   UNL     1      -2.063   3.443   0.475  0.00  0.00    +0.044 C 
ATOM     14  C   UNL     1      -2.040   1.963   0.193  0.00  0.00    -0.047 A 
ATOM     15  C   UNL     1      -2.267   1.500  -1.090  0.00  0.00    +0.007 A 
ATOM     16  C   UNL     1      -2.246   0.142  -1.351  0.00  0.00    -0.047 A 
ATOM     17  C   UNL     1      -1.999  -0.755  -0.331  0.00  0.00    +0.049 A 
ATOM     18  C   UNL     1      -1.770  -0.293   0.957  0.00  0.00    +0.122 A 
ATOM     19  C   UNL     1      -1.786   1.069   1.216  0.00  0.00    +0.049 A 
ATOM     20  C   UNL     1      -2.494  -0.358  -2.751  0.00  0.00    +0.044 C 
ENDBRANCH  12  18
ENDBRANCH  11  12
ENDBRANCH   7  11
ENDBRANCH   1   9
BRANCH   4  21
ATOM     21  C   UNL     1      -0.062  -0.643   9.575  0.00  0.00    +0.095 C 
BRANCH  21  22
ATOM     22  C   UNL     1       0.028   0.873   9.762  0.00  0.00    -0.020 C 
BRANCH  22  23
ATOM     23  C   UNL     1       1.227   1.400   9.017  0.00  0.00    -0.052 A 
ATOM     24  C   UNL     1       1.076   1.999   7.780  0.00  0.00    +0.009 A 
ATOM     25  C   UNL     1       2.175   2.463   7.136  0.00  0.00    +0.045 A 
ATOM     26  S   UNL     1       3.477   2.056   8.288  0.00  0.00    -0.105 S 
ATOM     27  C   UNL     1       2.468   1.300   9.552  0.00  0.00    +0.047 A 
ENDBRANCH  22  23
BRANCH  22  28
ATOM     28  N   UNL     1       0.164   1.183  11.191  0.00  0.00    +0.382 N 
ATOM     29  C   UNL     1       0.296   2.635  11.367  0.00  0.00    -0.096 C 
ATOM     30  C   UNL     1      -1.026   0.709  11.911  0.00  0.00    -0.096 C 
ATOM     31  H   UNL     1       0.984   0.724  11.558  0.00  0.00    -0.082 HD
ENDBRANCH  22  28
ENDBRANCH  21  22
ENDBRANCH   4  21
TORSDOF 8
