REMARK  Name = ZINC43762046
REMARK  2 active torsions:
REMARK  status: ('A' for Active; 'I' for Inactive)
REMARK    1  A    between atoms: N_3  and  O_4
REMARK    2  A    between atoms: N_15  and  O_16
REMARK                            x       y       z     vdW  Elec       q    Type
REMARK                         _______ _______ _______ _____ _____    ______ ____
ROOT
ATOM      1  C   UNL     1      -0.018   1.511   0.010  0.00  0.00    +0.058 C 
ATOM      2  C   UNL     1       1.538   1.816  -0.003  0.00  0.00    +0.062 C 
ATOM      3  N   UNL     1       2.213   2.493   0.841  0.00  0.00    -0.096 NA
ATOM      4  C   UNL     1       2.004   1.133  -1.215  0.00  0.00    +0.047 C 
ATOM      5  C   UNL     1       1.126  -0.076  -0.969  0.00  0.00    +0.006 C 
ATOM      6  C   UNL     1       0.002  -0.004   0.002  0.00  0.00    +0.002 C 
ATOM      7  C   UNL     1      -0.818  -1.106  -0.623  0.00  0.00    +0.002 C 
ATOM      8  C   UNL     1      -0.664  -2.367   0.275  0.00  0.00    +0.058 C 
ATOM      9  C   UNL     1       0.770  -2.826  -0.019  0.00  0.00    +0.062 C 
ATOM     10  N   UNL     1       1.615  -3.260   0.839  0.00  0.00    -0.096 NA
ATOM     11  C   UNL     1       0.934  -2.675  -1.519  0.00  0.00    +0.047 C 
ATOM     12  C   UNL     1      -0.120  -1.618  -1.928  0.00  0.00    +0.006 C 
ATOM     13  C   UNL     1       0.748  -0.469  -2.392  0.00  0.00    +0.001 C 
ATOM     14  C   UNL     1       2.219  -0.840  -2.679  0.00  0.00    +0.008 C 
ATOM     15  C   UNL     1       3.049   0.185  -1.768  0.00  0.00    +0.024 C 
ATOM     16  C   UNL     1       3.613  -0.698  -0.682  0.00  0.00    -0.026 C 
ATOM     17  C   UNL     1       3.268  -1.946  -0.779  0.00  0.00    -0.026 C 
ATOM     18  C   UNL     1       2.347  -2.208  -1.941  0.00  0.00    +0.024 C 
ENDROOT
BRANCH   3  19
ATOM     19  O   UNL     1       1.567   3.080   1.956  0.00  0.00    -0.409 OA
ATOM     20  H   UNL     1       2.160   3.574   2.539  0.00  0.00    +0.328 HD
ENDBRANCH   3  19
BRANCH  10  21
ATOM     21  O   UNL     1       1.253  -3.349   2.205  0.00  0.00    -0.409 OA
ATOM     22  H   UNL     1       1.956  -3.688   2.777  0.00  0.00    +0.328 HD
ENDBRANCH  10  21
TORSDOF 2
