REMARK  Name = ZINC41614787
REMARK  4 active torsions:
REMARK  status: ('A' for Active; 'I' for Inactive)
REMARK    1  A    between atoms: C_4  and  O_15
REMARK    2  A    between atoms: C_5  and  N_7
REMARK    3  A    between atoms: C_8  and  C_10
REMARK    4  A    between atoms: O_15  and  C_16
REMARK                            x       y       z     vdW  Elec       q    Type
REMARK                         _______ _______ _______ _____ _____    ______ ____
ROOT
ATOM      1  C   UNL     1      -0.010   1.422   0.043  0.00  0.00    +0.002 A 
ATOM      2  C   UNL     1       1.141   2.187   0.023  0.00  0.00    +0.004 A 
ATOM      3  C   UNL     1       2.381   1.576  -0.002  0.00  0.00    +0.048 A 
ATOM      4  C   UNL     1       2.473   0.194  -0.006  0.00  0.00    +0.150 A 
ATOM      5  C   UNL     1       1.313  -0.578   0.015  0.00  0.00    +0.076 A 
ATOM      6  C   UNL     1       0.073   0.042   0.039  0.00  0.00    +0.027 A 
ENDROOT
BRANCH   5   7
ATOM      7  N   UNL     1       1.400  -1.976   0.010  0.00  0.00    -0.277 N 
ATOM      8  C   UNL     1       0.462  -2.707  -0.625  0.00  0.00    +0.269 C 
ATOM      9  O   UNL     1      -0.400  -2.153  -1.280  0.00  0.00    -0.268 OA
ATOM     10  H   UNL     1       2.135  -2.418   0.463  0.00  0.00    +0.155 HD
BRANCH   8  11
ATOM     11  C   UNL     1       0.481  -4.178  -0.524  0.00  0.00    +0.156 A 
ATOM     12  C   UNL     1      -0.449  -4.986  -1.154  0.00  0.00    +0.101 A 
ATOM     13  S   UNL     1       0.057  -6.520  -0.695  0.00  0.00    +0.029 S 
ATOM     14  N   UNL     1       1.335  -6.125   0.214  0.00  0.00    -0.110 NA
ATOM     15  N   UNL     1       1.394  -4.841   0.175  0.00  0.00    -0.136 NA
ENDBRANCH   8  11
ENDBRANCH   5   7
BRANCH   4  16
ATOM     16  O   UNL     1       3.692  -0.408  -0.031  0.00  0.00    -0.453 OA
BRANCH  16  17
ATOM     17  C   UNL     1       4.154  -0.863  -1.226  0.00  0.00    +0.147 A 
ATOM     18  C   UNL     1       3.349  -0.798  -2.353  0.00  0.00    +0.048 A 
ATOM     19  C   UNL     1       3.821  -1.262  -3.566  0.00  0.00    +0.004 A 
ATOM     20  C   UNL     1       5.096  -1.790  -3.657  0.00  0.00    +0.002 A 
ATOM     21  C   UNL     1       5.901  -1.857  -2.535  0.00  0.00    +0.024 A 
ATOM     22  C   UNL     1       5.436  -1.389  -1.321  0.00  0.00    +0.083 A 
ATOM     23 CL   UNL     1       6.450  -1.465   0.086  0.00  0.00    -0.080 Cl
ENDBRANCH  16  17
ENDBRANCH   4  16
TORSDOF 4
