REMARK  Name = ZINC36743596
REMARK  6 active torsions:
REMARK  status: ('A' for Active; 'I' for Inactive)
REMARK    1  A    between atoms: C_1  and  C_2
REMARK    2  A    between atoms: C_3  and  S_8
REMARK    3  A    between atoms: C_4  and  C_7
REMARK    4  A    between atoms: S_8  and  N_11
REMARK    5  A    between atoms: C_15  and  N_22
REMARK    6  A    between atoms: C_19  and  C_21
REMARK                            x       y       z     vdW  Elec       q    Type
REMARK                         _______ _______ _______ _____ _____    ______ ____
ROOT
ATOM      1  N   UNL     1       1.570  -0.091  -3.285  0.00  0.00    -0.200 N 
ATOM      2  C   UNL     1       2.323   1.081  -3.146  0.00  0.00    +0.055 A 
ATOM      3  C   UNL     1       1.947   2.313  -2.607  0.00  0.00    +0.027 A 
ATOM      4  C   UNL     1       2.847   3.357  -2.561  0.00  0.00    +0.024 A 
ATOM      5  C   UNL     1       4.135   3.188  -3.050  0.00  0.00    +0.025 A 
ATOM      6  C   UNL     1       4.513   1.965  -3.586  0.00  0.00    +0.028 A 
ATOM      7  C   UNL     1       3.610   0.920  -3.632  0.00  0.00    -0.021 A 
ATOM      8  C   UNL     1       3.755  -0.492  -4.153  0.00  0.00    +0.061 C 
ATOM      9  C   UNL     1       2.384  -1.140  -3.903  0.00  0.00    +0.099 C 
ATOM     10  C   UNL     1       1.760  -1.584  -5.228  0.00  0.00    +0.030 C 
ENDROOT
BRANCH   1  11
ATOM     11  S   UNL     1      -0.008  -0.267  -2.813  0.00  0.00    +0.080 S 
ATOM     12  O   UNL     1      -0.547  -1.328  -3.589  0.00  0.00    -0.150 OA
ATOM     13  O   UNL     1      -0.577   1.035  -2.802  0.00  0.00    -0.150 OA
BRANCH  11  16
ATOM     14  C   UNL     1      -0.018   1.503   0.010  0.00  0.00    +0.071 C 
ATOM     15  C   UNL     1       0.002  -0.004   0.002  0.00  0.00    +0.107 A 
ATOM     16  C   UNL     1       0.008  -0.824  -1.141  0.00  0.00    +0.173 A 
ATOM     17  C   UNL     1       0.027  -2.108  -0.735  0.00  0.00    +0.161 A 
ATOM     18  O   UNL     1       0.034  -2.119   0.606  0.00  0.00    -0.358 OA
ATOM     19  N   UNL     1       0.023  -0.775   1.052  0.00  0.00    -0.081 NA
ATOM     20  C   UNL     1       0.039  -3.320  -1.631  0.00  0.00    +0.091 C 
ENDBRANCH  11  16
ENDBRANCH   1  11
BRANCH   5  21
ATOM     21  N   UNL     1       5.049   4.248  -3.004  0.00  0.00    -0.358 N 
ATOM     22  H   UNL     1       4.782   5.102  -2.629  0.00  0.00    +0.142 HD
ATOM     23  H   UNL     1       5.949   4.128  -3.346  0.00  0.00    +0.142 HD
ENDBRANCH   5  21
TORSDOF 3
