REMARK  Name = ZINC39970123
REMARK  6 active torsions:
REMARK  status: ('A' for Active; 'I' for Inactive)
REMARK    1  A    between atoms: C_1  and  O_2
REMARK    2  A    between atoms: O_2  and  C_3
REMARK    3  A    between atoms: C_5  and  C_12
REMARK    4  A    between atoms: C_7  and  O_10
REMARK    5  A    between atoms: C_8  and  O_9
REMARK    6  A    between atoms: O_10  and  C_11
REMARK                            x       y       z     vdW  Elec       q    Type
REMARK                         _______ _______ _______ _____ _____    ______ ____
ROOT
ATOM      1  C   UNL     1       2.462   0.340   4.203  0.00  0.00    +0.049 C 
ATOM      2  C   UNL     1       3.964   0.036   4.284  0.00  0.00    +0.130 C 
ATOM      3  C   UNL     1       4.549   0.764   5.473  0.00  0.00    +0.313 C 
ATOM      4  O   UNL     1       5.554   1.426   5.366  0.00  0.00    -0.250 OA
ATOM      5  O   UNL     1       3.909   0.651   6.666  0.00  0.00    -0.429 OA
ATOM      6  C   UNL     1       2.576   0.769   6.601  0.00  0.00    +0.130 C 
ATOM      7  C   UNL     1       1.847   1.584   7.453  0.00  0.00    +0.035 A 
ATOM      8  C   UNL     1       2.474   2.302   8.494  0.00  0.00    +0.013 A 
ATOM      9  C   UNL     1       1.722   3.077   9.321  0.00  0.00    +0.001 A 
ATOM     10  C   UNL     1       0.343   3.181   9.162  0.00  0.00    +0.002 A 
ATOM     11  C   UNL     1      -0.317   2.520   8.170  0.00  0.00    +0.024 A 
ATOM     12  C   UNL     1       0.394   1.704   7.275  0.00  0.00    +0.044 A 
ATOM     13  N   UNL     1      -0.252   1.071   6.289  0.00  0.00    -0.284 N 
ATOM     14  C   UNL     1       0.333   0.256   5.432  0.00  0.00    +0.228 C 
ATOM     15  O   UNL     1      -0.319  -0.277   4.553  0.00  0.00    -0.275 OA
ATOM     16  C   UNL     1       1.813  -0.009   5.545  0.00  0.00    +0.150 C 
ATOM     17  H   UNL     1      -1.207   1.220   6.199  0.00  0.00    +0.155 HD
ENDROOT
BRANCH   1  20
ATOM     18  C   UNL     1       0.626  -0.619   1.042  0.00  0.00    +0.165 A 
ATOM     19  C   UNL     1       1.202   0.138   2.051  0.00  0.00    +0.053 A 
ATOM     20  C   UNL     1       1.837  -0.486   3.109  0.00  0.00    -0.035 A 
ATOM     21  C   UNL     1       1.900  -1.866   3.166  0.00  0.00    +0.053 A 
ATOM     22  C   UNL     1       1.327  -2.630   2.160  0.00  0.00    +0.165 A 
ATOM     23  C   UNL     1       0.683  -2.006   1.098  0.00  0.00    +0.201 A 
BRANCH  18  25
ATOM     24  C   UNL     1      -0.017   1.425   0.010  0.00  0.00    +0.277 C 
ATOM     25  O   UNL     1       0.002  -0.004   0.002  0.00  0.00    -0.491 OA
ENDBRANCH  18  25
BRANCH  23  26
ATOM     26  O   UNL     1       0.114  -2.753   0.113  0.00  0.00    -0.501 OA
ATOM     27  H   UNL     1       0.710  -2.955  -0.621  0.00  0.00    +0.292 HD
ENDBRANCH  23  26
BRANCH  22  28
ATOM     28  O   UNL     1       1.390  -3.987   2.217  0.00  0.00    -0.491 OA
ATOM     29  C   UNL     1       2.062  -4.559   3.340  0.00  0.00    +0.277 C 
ENDBRANCH  22  28
ENDBRANCH   1  20
TORSDOF 4
