REMARK  Name = ZINC36608997
REMARK  12 active torsions:
REMARK  status: ('A' for Active; 'I' for Inactive)
REMARK    1  A    between atoms: C_1  and  C_2
REMARK    2  A    between atoms: C_2  and  C_3
REMARK    3  A    between atoms: C_2  and  C_4
REMARK    4  A    between atoms: C_2  and  C_5
REMARK    5  A    between atoms: C_5  and  C_6
REMARK    6  A    between atoms: C_6  and  C_7
REMARK    7  A    between atoms: C_6  and  C_8
REMARK    8  A    between atoms: C_6  and  N_9
REMARK    9  A    between atoms: C_10  and  C_12
REMARK   10  A    between atoms: C_12  and  C_14
REMARK   11  A    between atoms: C_12  and  N_20
REMARK   12  A    between atoms: N_20  and  C_23
REMARK                            x       y       z     vdW  Elec       q    Type
REMARK                         _______ _______ _______ _____ _____    ______ ____
ROOT
ATOM      1  C   UNL     1       5.413  -0.518  -4.250  0.00  0.00    +0.170 C 
ENDROOT
BRANCH   1   2
ATOM      2  C   UNL     1       5.243  -1.977  -4.679  0.00  0.00    +0.019 C 
ATOM      3  C   UNL     1       6.153  -2.266  -5.875  0.00  0.00    +0.006 C 
ATOM      4  C   UNL     1       5.984  -3.725  -6.304  0.00  0.00    +0.000 C 
ATOM      5  C   UNL     1       4.527  -3.974  -6.700  0.00  0.00    +0.000 C 
ATOM      6  C   UNL     1       3.617  -3.685  -5.504  0.00  0.00    +0.000 C 
ATOM      7  C   UNL     1       3.786  -2.227  -5.075  0.00  0.00    +0.006 C 
ENDBRANCH   1   2
BRANCH   1   9
ATOM      8  N   UNL     1       3.273  -0.101  -3.081  0.00  0.00    -0.309 N 
ATOM      9  C   UNL     1       4.608  -0.266  -3.001  0.00  0.00    +0.235 C 
ATOM     10  O   UNL     1       5.163  -0.210  -1.924  0.00  0.00    -0.274 OA
ATOM     11  H   UNL     1       2.814  -0.263  -3.920  0.00  0.00    +0.149 HD
BRANCH   8  12
ATOM     12  C   UNL     1       2.515   0.321  -1.901  0.00  0.00    +0.030 C 
ATOM     13  C   UNL     1       3.181   1.550  -1.279  0.00  0.00    +0.031 C 
ATOM     14  C   UNL     1       2.489  -0.817  -0.878  0.00  0.00    +0.031 C 
BRANCH  12  15
ATOM     15  C   UNL     1       1.083   0.670  -2.312  0.00  0.00    +0.031 C 
BRANCH  15  17
ATOM     16  C   UNL     1       1.266   0.565  -4.802  0.00  0.00    +0.010 C 
ATOM     17  C   UNL     1       1.110   1.498  -3.599  0.00  0.00    -0.036 C 
ATOM     18  C   UNL     1       2.288   2.473  -3.553  0.00  0.00    +0.010 C 
ATOM     19  C   UNL     1      -0.198   2.282  -3.728  0.00  0.00    +0.010 C 
ENDBRANCH  15  17
ENDBRANCH  12  15
ENDBRANCH   8  12
ENDBRANCH   1   9
BRANCH   1  20
ATOM     20  N   UNL     1       6.828  -0.249  -3.983  0.00  0.00    -0.262 N 
ATOM     21  C   UNL     1       7.507  -1.019  -3.110  0.00  0.00    +0.333 C 
ATOM     22  O   UNL     1       8.698  -0.855  -2.955  0.00  0.00    -0.279 OA
BRANCH  20  23
ATOM     23  C   UNL     1       7.474   0.807  -4.634  0.00  0.00    +0.037 A 
ATOM     24  C   UNL     1       7.094   2.118  -4.379  0.00  0.00    +0.023 A 
ATOM     25  C   UNL     1       7.734   3.159  -5.023  0.00  0.00    +0.002 A 
ATOM     26  C   UNL     1       8.752   2.896  -5.922  0.00  0.00    +0.000 A 
ATOM     27  C   UNL     1       9.132   1.592  -6.178  0.00  0.00    +0.002 A 
ATOM     28  C   UNL     1       8.501   0.547  -5.532  0.00  0.00    +0.023 A 
ENDBRANCH  20  23
ENDBRANCH   1  20
TORSDOF 7
