REMARK  Name = ZINC40014262
REMARK  6 active torsions:
REMARK  status: ('A' for Active; 'I' for Inactive)
REMARK    1  A    between atoms: C_7  and  C_11
REMARK    2  A    between atoms: C_11  and  O_13
REMARK    3  A    between atoms: O_13  and  C_14
REMARK    4  A    between atoms: C_14  and  C_15
REMARK    5  A    between atoms: N_17  and  C_18
REMARK    6  A    between atoms: C_20  and  C_29
REMARK                            x       y       z     vdW  Elec       q    Type
REMARK                         _______ _______ _______ _____ _____    ______ ____
ROOT
ATOM      1  C   UNL     1       1.279  -6.827  -0.049  0.00  0.00    +0.252 C 
ATOM      2  O   UNL     1       2.491  -6.783  -0.061  0.00  0.00    -0.272 OA
ATOM      3  N   UNL     1       0.647  -8.017  -0.049  0.00  0.00    -0.299 N 
ATOM      4  H   UNL     1      -0.322  -8.052  -0.039  0.00  0.00    +0.150 HD
ENDROOT
BRANCH   3   5
ATOM      5  C   UNL     1       1.425  -9.259  -0.064  0.00  0.00    +0.151 C 
ATOM      6  C   UNL     1       0.807 -10.328   0.870  0.00  0.00    +0.132 C 
ATOM      7  C   UNL     1       0.912 -11.710   0.277  0.00  0.00    -0.046 C 
ATOM      8  C   UNL     1       1.127 -11.805  -1.029  0.00  0.00    -0.013 C 
ATOM      9  S   UNL     1       1.247 -10.149  -1.667  0.00  0.00    -0.106 S 
ATOM     10  C   UNL     1       1.251 -13.068  -1.836  0.00  0.00    +0.042 C 
ATOM     11  C   UNL     1       1.480 -14.244  -0.880  0.00  0.00    +0.005 C 
ATOM     12  C   UNL     1       0.452 -14.157   0.253  0.00  0.00    +0.005 C 
ATOM     13  C   UNL     1       0.777 -12.960   1.145  0.00  0.00    +0.032 C 
BRANCH   6  14
ATOM     14  C   UNL     1      -0.646 -10.001   1.098  0.00  0.00    +0.220 C 
ATOM     15  O   UNL     1      -1.505 -10.783   0.749  0.00  0.00    -0.275 OA
ATOM     16  N   UNL     1      -0.991  -8.840   1.689  0.00  0.00    -0.329 N 
ATOM     17  H   UNL     1      -0.304  -8.215   1.968  0.00  0.00    +0.145 HD
ATOM     18  H   UNL     1      -1.927  -8.630   1.836  0.00  0.00    +0.145 HD
ENDBRANCH   6  14
ENDBRANCH   3   5
BRANCH   1  19
ATOM     19  C   UNL     1       0.479  -5.550  -0.033  0.00  0.00    +0.328 C 
BRANCH  19  20
ATOM     20  O   UNL     1       1.368  -4.431  -0.036  0.00  0.00    -0.451 OA
BRANCH  20  21
ATOM     21  C   UNL     1       0.807  -3.203  -0.023  0.00  0.00    +0.358 C 
ATOM     22  O   UNL     1      -0.404  -3.087  -0.010  0.00  0.00    -0.243 OA
BRANCH  21  29
ATOM     23  C   UNL     1      -0.016   1.357   0.009  0.00  0.00    +0.001 A 
ATOM     24  C   UNL     1       1.162   2.103   0.002  0.00  0.00    +0.002 A 
ATOM     25  C   UNL     1       2.385   1.511  -0.013  0.00  0.00    +0.030 A 
ATOM     26  C   UNL     1       2.476   0.105  -0.021  0.00  0.00    +0.093 A 
ATOM     27  C   UNL     1       1.230  -0.676  -0.013  0.00  0.00    +0.034 A 
ATOM     28  C   UNL     1       0.002  -0.004   0.002  0.00  0.00    +0.012 A 
ATOM     29  C   UNL     1       1.656  -2.012  -0.025  0.00  0.00    +0.150 A 
ATOM     30  N   UNL     1       3.018  -1.979  -0.039  0.00  0.00    -0.270 N 
ATOM     31  H   UNL     1       3.582  -2.768  -0.050  0.00  0.00    +0.189 HD
ATOM     32  N   UNL     1       3.463  -0.774  -0.036  0.00  0.00    -0.173 NA
ENDBRANCH  21  29
ENDBRANCH  20  21
ENDBRANCH  19  20
ENDBRANCH   1  19
TORSDOF 6
