REMARK  Name = ZINC00509264
REMARK  5 active torsions:
REMARK  status: ('A' for Active; 'I' for Inactive)
REMARK    1  A    between atoms: C_4  and  O_7
REMARK    2  A    between atoms: O_7  and  C_8
REMARK    3  A    between atoms: C_12  and  C_14
REMARK    4  A    between atoms: C_14  and  S_15
REMARK    5  A    between atoms: S_15  and  C_16
REMARK                            x       y       z     vdW  Elec       q    Type
REMARK                         _______ _______ _______ _____ _____    ______ ____
ROOT
ATOM      1  C   UNL     1       1.123   2.093  -0.052  0.00  0.00    +0.129 A 
ATOM      2  C   UNL     1       2.350   1.465  -0.211  0.00  0.00    +0.046 A 
ATOM      3  C   UNL     1       3.506   2.218  -0.278  0.00  0.00    +0.004 A 
ATOM      4  C   UNL     1       3.442   3.595  -0.175  0.00  0.00    +0.005 A 
ATOM      5  C   UNL     1       2.222   4.223  -0.012  0.00  0.00    -0.034 A 
ATOM      6  C   UNL     1       1.062   3.475   0.051  0.00  0.00    +0.050 A 
ENDROOT
BRANCH   1   7
ATOM      7  O   UNL     1      -0.016   1.355   0.009  0.00  0.00    -0.456 OA
BRANCH   7  11
ATOM      8  C   UNL     1       0.339  -2.755   0.080  0.00  0.00    +0.000 A 
ATOM      9  C   UNL     1       0.782  -2.005   1.154  0.00  0.00    +0.004 A 
ATOM     10  C   UNL     1       0.664  -0.629   1.133  0.00  0.00    +0.046 A 
ATOM     11  C   UNL     1       0.101   0.001   0.033  0.00  0.00    +0.128 A 
ATOM     12  C   UNL     1      -0.348  -0.754  -1.042  0.00  0.00    +0.046 A 
ATOM     13  C   UNL     1      -0.223  -2.129  -1.018  0.00  0.00    +0.004 A 
ENDBRANCH   7  11
ENDBRANCH   1   7
BRANCH   5  14
ATOM     14  C   UNL     1       2.156   5.724   0.099  0.00  0.00    +0.111 C 
BRANCH  14  15
ATOM     15  S   UNL     1       2.297   6.209   1.842  0.00  0.00    -0.092 S 
BRANCH  15  16
ATOM     16  C   UNL     1       2.204   7.968   1.804  0.00  0.00    +0.160 A 
ATOM     17  N   UNL     1       2.065   8.776   0.771  0.00  0.00    -0.133 NA
ATOM     18  N   UNL     1       2.014  10.136   0.968  0.00  0.00    -0.125 NA
ATOM     19  C   UNL     1       2.105  10.627   2.188  0.00  0.00    +0.180 A 
ATOM     20  S   UNL     1       2.267   9.134   3.156  0.00  0.00    -0.025 S 
ATOM     21  N   UNL     1       2.077  11.951   2.610  0.00  0.00    -0.336 N 
ATOM     22  H   UNL     1       1.979  12.665   1.960  0.00  0.00    +0.144 HD
ATOM     23  H   UNL     1       2.156  12.161   3.554  0.00  0.00    +0.144 HD
ENDBRANCH  15  16
ENDBRANCH  14  15
ENDBRANCH   5  14
TORSDOF 5
