REMARK  Name = ZINC51128850
REMARK  5 active torsions:
REMARK  status: ('A' for Active; 'I' for Inactive)
REMARK    1  A    between atoms: C_1  and  C_2
REMARK    2  A    between atoms: C_6  and  C_10
REMARK    3  A    between atoms: C_11  and  C_13
REMARK    4  A    between atoms: C_17  and  N_19
REMARK    5  A    between atoms: N_19  and  N_20
REMARK                            x       y       z     vdW  Elec       q    Type
REMARK                         _______ _______ _______ _____ _____    ______ ____
ROOT
ATOM      1  C   UNL     1      -2.966  -2.255  -1.662  0.00  0.00    +0.128 A 
ATOM      2  C   UNL     1      -3.748  -3.108  -2.434  0.00  0.00    +0.033 A 
ATOM      3  C   UNL     1      -4.585  -2.570  -3.402  0.00  0.00    +0.006 A 
ATOM      4  C   UNL     1      -4.612  -1.197  -3.565  0.00  0.00    +0.045 A 
ATOM      5  C   UNL     1      -3.802  -0.398  -2.757  0.00  0.00    +0.133 A 
ATOM      6  N   UNL     1      -3.020  -0.940  -1.841  0.00  0.00    -0.226 NA
ENDROOT
BRANCH   1  15
ATOM      7  C   UNL     1       0.787   1.089  -0.861  0.00  0.00    +0.039 C 
ATOM      8  C   UNL     1       0.527  -0.396  -0.604  0.00  0.00    +0.133 C 
ATOM      9  C   UNL     1      -0.978  -0.629  -0.425  0.00  0.00    +0.139 C 
ATOM     10  N   UNL     1      -1.184  -2.021   0.004  0.00  0.00    -0.289 N 
ATOM     11  C   UNL     1      -0.396  -2.518   1.144  0.00  0.00    +0.099 C 
ATOM     12  C   UNL     1       1.080  -2.193   0.889  0.00  0.00    +0.182 C 
ATOM     13  O   UNL     1       1.211  -0.802   0.584  0.00  0.00    -0.373 OA
ATOM     14  C   UNL     1      -0.861  -1.831   2.430  0.00  0.00    +0.030 C 
ATOM     15  C   UNL     1      -2.069  -2.818  -0.627  0.00  0.00    +0.265 C 
ATOM     16  O   UNL     1      -2.131  -3.999  -0.346  0.00  0.00    -0.268 OA
ENDBRANCH   1  15
BRANCH   5  17
ATOM     17  N   UNL     1      -3.823   0.982  -2.915  0.00  0.00    -0.268 N 
ATOM     18  H   UNL     1      -4.399   1.386  -3.583  0.00  0.00    +0.167 HD
BRANCH  17  19
ATOM     19  N   UNL     1      -3.033   1.772  -2.128  0.00  0.00    -0.255 NA
ATOM     20  H   UNL     1      -3.155   2.747  -2.356  0.00  0.00    +0.140 HD
ATOM     21  H   UNL     1      -3.215   1.604  -1.150  0.00  0.00    +0.140 HD
ENDBRANCH  17  19
ENDBRANCH   5  17
TORSDOF 3
