REMARK  Name = ZINC05039259
REMARK  8 active torsions:
REMARK  status: ('A' for Active; 'I' for Inactive)
REMARK    1  A    between atoms: C_1  and  C_2
REMARK    2  A    between atoms: C_5  and  N_9
REMARK    3  A    between atoms: C_6  and  C_8
REMARK    4  A    between atoms: C_13  and  C_15
REMARK    5  A    between atoms: C_15  and  O_16
REMARK    6  A    between atoms: O_16  and  C_17
REMARK    7  A    between atoms: C_17  and  C_19
REMARK    8  A    between atoms: C_28  and  O_29
REMARK                            x       y       z     vdW  Elec       q    Type
REMARK                         _______ _______ _______ _____ _____    ______ ____
ROOT
ATOM      1  N   UNL     1       5.151  13.329   0.019  0.00  0.00    -0.269 N 
ATOM      2  C   UNL     1       4.979  11.992   0.017  0.00  0.00    +0.310 C 
ATOM      3  O   UNL     1       5.945  11.255  -0.004  0.00  0.00    -0.252 OA
ATOM      4  N   UNL     1       3.735  11.473   0.040  0.00  0.00    -0.237 N 
ATOM      5  C   UNL     1       3.563  10.136   0.038  0.00  0.00    +0.258 C 
ATOM      6  O   UNL     1       4.527   9.401   0.017  0.00  0.00    -0.272 OA
ATOM      7  H   UNL     1       4.382  13.917  -0.047  0.00  0.00    +0.156 HD
ATOM      8  H   UNL     1       2.964  12.061   0.056  0.00  0.00    +0.159 HD
ENDROOT
BRANCH   1  13
ATOM      9  C   UNL     1      10.371  15.517   0.406  0.00  0.00    +0.044 C 
ATOM     10  C   UNL     1       8.984  14.936   0.304  0.00  0.00    -0.050 A 
ATOM     11  C   UNL     1       8.727  13.671   0.800  0.00  0.00    +0.005 A 
ATOM     12  C   UNL     1       7.458  13.135   0.707  0.00  0.00    +0.024 A 
ATOM     13  C   UNL     1       6.438  13.869   0.115  0.00  0.00    +0.038 A 
ATOM     14  C   UNL     1       6.700  15.136  -0.388  0.00  0.00    -0.029 A 
ATOM     15  C   UNL     1       7.971  15.668  -0.287  0.00  0.00    +0.008 A 
ATOM     16  C   UNL     1       5.598  15.933  -1.037  0.00  0.00    +0.045 C 
ENDBRANCH   1  13
BRANCH   5  17
ATOM     17  C   UNL     1       2.173   9.555   0.063  0.00  0.00    +0.328 C 
BRANCH  17  18
ATOM     18  O   UNL     1       2.254   8.105   0.057  0.00  0.00    -0.452 OA
BRANCH  18  19
ATOM     19  C   UNL     1       1.089   7.427   0.077  0.00  0.00    +0.343 C 
ATOM     20  O   UNL     1       0.035   8.031   0.099  0.00  0.00    -0.245 OA
BRANCH  19  21
ATOM     21  C   UNL     1       1.094   5.956   0.071  0.00  0.00    +0.101 A 
ATOM     22  C   UNL     1       2.318   5.260   0.046  0.00  0.00    +0.019 A 
ATOM     23  C   UNL     1       2.349   3.905   0.041  0.00  0.00    +0.009 A 
ATOM     24  C   UNL     1       1.148   3.168   0.062  0.00  0.00    -0.014 A 
ATOM     25  C   UNL     1       1.161   1.764   0.057  0.00  0.00    +0.008 A 
ATOM     26  C   UNL     1      -0.015   1.077   0.076  0.00  0.00    +0.001 A 
ATOM     27  C   UNL     1      -1.236   1.747   0.097  0.00  0.00    +0.001 A 
ATOM     28  C   UNL     1      -1.287   3.108   0.107  0.00  0.00    +0.012 A 
ATOM     29  C   UNL     1      -0.094   3.849   0.087  0.00  0.00    +0.024 A 
ATOM     30  C   UNL     1      -0.112   5.258   0.092  0.00  0.00    +0.138 A 
BRANCH  30  31
ATOM     31  O   UNL     1      -1.289   5.928   0.116  0.00  0.00    -0.505 OA
ATOM     32  H   UNL     1      -1.615   6.120   1.007  0.00  0.00    +0.292 HD
ENDBRANCH  30  31
ENDBRANCH  19  21
ENDBRANCH  18  19
ENDBRANCH  17  18
ENDBRANCH   5  17
TORSDOF 6
