REMARK  Name = ZINC36206777
REMARK  15 active torsions:
REMARK  status: ('A' for Active; 'I' for Inactive)
REMARK    1  A    between atoms: C_1  and  C_2
REMARK    2  A    between atoms: C_2  and  C_3
REMARK    3  A    between atoms: C_3  and  C_4
REMARK    4  A    between atoms: C_4  and  C_6
REMARK    5  A    between atoms: C_4  and  O_34
REMARK    6  A    between atoms: C_6  and  N_7
REMARK    7  A    between atoms: N_7  and  C_8
REMARK    8  A    between atoms: N_7  and  C_15
REMARK    9  A    between atoms: C_8  and  C_9
REMARK   10  A    between atoms: C_15  and  C_16
REMARK   11  A    between atoms: C_22  and  C_33
REMARK   12  A    between atoms: C_23  and  C_27
REMARK   13  A    between atoms: C_27  and  O_29
REMARK   14  A    between atoms: O_29  and  C_30
REMARK   15  A    between atoms: C_30  and  C_31
REMARK                            x       y       z     vdW  Elec       q    Type
REMARK                         _______ _______ _______ _____ _____    ______ ____
ROOT
ATOM      1  C   UNL     1      -4.215  -4.969  -1.506  0.00  0.00    +0.094 A 
ATOM      2  N   UNL     1      -5.374  -5.600  -1.814  0.00  0.00    -0.312 N 
ATOM      3  H   UNL     1      -5.917  -5.973  -1.102  0.00  0.00    +0.170 HD
ATOM      4  C   UNL     1      -5.789  -5.721  -3.091  0.00  0.00    +0.260 A 
ATOM      5  O   UNL     1      -6.833  -6.289  -3.357  0.00  0.00    -0.267 OA
ATOM      6  C   UNL     1      -4.943  -5.144  -4.160  0.00  0.00    +0.076 A 
ATOM      7  C   UNL     1      -5.150  -5.136  -5.541  0.00  0.00    -0.015 A 
ATOM      8  C   UNL     1      -4.235  -4.543  -6.362  0.00  0.00    +0.102 A 
ATOM      9  S   UNL     1      -3.004  -3.947  -5.215  0.00  0.00    -0.062 S 
ATOM     10  C   UNL     1      -3.760  -4.513  -3.711  0.00  0.00    +0.116 A 
ATOM     11  N   UNL     1      -3.448  -4.446  -2.424  0.00  0.00    -0.229 NA
ATOM     12  C   UNL     1      -6.380  -5.783  -6.124  0.00  0.00    +0.046 C 
ENDROOT
BRANCH   8  13
ATOM     13  C   UNL     1      -4.257  -4.423  -7.821  0.00  0.00    +0.347 C 
ATOM     14  O   UNL     1      -5.184  -4.892  -8.455  0.00  0.00    -0.244 OA
BRANCH  13  15
ATOM     15  O   UNL     1      -3.251  -3.794  -8.462  0.00  0.00    -0.457 OA
BRANCH  15  16
ATOM     16  C   UNL     1      -3.338  -3.714  -9.886  0.00  0.00    +0.259 C 
BRANCH  16  17
ATOM     17  C   UNL     1      -2.135  -2.982 -10.423  0.00  0.00    +0.006 C 
ATOM     18  C   UNL     1      -1.496  -3.450 -11.466  0.00  0.00    +0.007 C 
ENDBRANCH  16  17
ENDBRANCH  15  16
ENDBRANCH  13  15
ENDBRANCH   8  13
BRANCH   1  19
ATOM     19  C   UNL     1      -3.802  -4.864  -0.060  0.00  0.00    -0.003 C 
BRANCH  19  20
ATOM     20  N   UNL     1      -2.606  -4.018   0.047  0.00  0.00    +0.389 N 
ATOM     21  H   UNL     1      -1.892  -4.363  -0.577  0.00  0.00    -0.081 HD
BRANCH  20  22
ATOM     22  C   UNL     1      -2.949  -2.637  -0.319  0.00  0.00    -0.046 C 
BRANCH  22  23
ATOM     23  C   UNL     1      -1.680  -1.782  -0.328  0.00  0.00    +0.098 C 
BRANCH  23  24
ATOM     24  O   UNL     1      -0.804  -2.240  -1.361  0.00  0.00    -0.394 OA
ATOM     25  H   UNL     1      -1.186  -2.194  -2.248  0.00  0.00    +0.210 HD
ENDBRANCH  23  24
BRANCH  23  26
ATOM     26  C   UNL     1      -2.052  -0.320  -0.586  0.00  0.00    +0.029 C 
BRANCH  26  28
ATOM     27  C   UNL     1      -1.172   2.014  -0.729  0.00  0.00    +0.004 C 
ATOM     28  C   UNL     1      -0.800   0.552  -0.472  0.00  0.00    -0.001 C 
ENDBRANCH  26  28
ENDBRANCH  23  26
ENDBRANCH  22  23
ENDBRANCH  20  22
BRANCH  20  29
ATOM     29  C   UNL     1      -2.105  -4.049   1.428  0.00  0.00    -0.042 C 
BRANCH  29  30
ATOM     30  C   UNL     1      -1.639  -5.443   1.761  0.00  0.00    -0.064 A 
ATOM     31  C   UNL     1      -2.489  -6.320   2.409  0.00  0.00    +0.002 A 
ATOM     32  C   UNL     1      -2.061  -7.598   2.715  0.00  0.00    +0.000 A 
ATOM     33  C   UNL     1      -0.784  -8.000   2.373  0.00  0.00    +0.000 A 
ATOM     34  C   UNL     1       0.066  -7.123   1.725  0.00  0.00    +0.000 A 
ATOM     35  C   UNL     1      -0.363  -5.846   1.415  0.00  0.00    +0.002 A 
ENDBRANCH  29  30
ENDBRANCH  20  29
ENDBRANCH  19  20
ENDBRANCH   1  19
TORSDOF 13
