REMARK  Name = ZINC04670905
REMARK  8 active torsions:
REMARK  status: ('A' for Active; 'I' for Inactive)
REMARK    1  A    between atoms: C_1  and  C_2
REMARK    2  A    between atoms: C_2  and  C_4
REMARK    3  A    between atoms: C_2  and  N_14
REMARK    4  A    between atoms: N_14  and  C_15
REMARK    5  A    between atoms: C_15  and  C_16
REMARK    6  A    between atoms: C_21  and  O_22
REMARK    7  A    between atoms: O_22  and  C_23
REMARK    8  A    between atoms: C_23  and  C_24
REMARK                            x       y       z     vdW  Elec       q    Type
REMARK                         _______ _______ _______ _____ _____    ______ ____
ROOT
ATOM      1  N   UNL     1       0.713  -0.491   1.192  0.00  0.00    +0.384 N 
ATOM      2  H   UNL     1       0.290  -0.099   2.020  0.00  0.00    -0.085 HD
ATOM      3  H   UNL     1       0.655  -1.497   1.230  0.00  0.00    -0.085 HD
ENDROOT
BRANCH   1   5
ATOM      4  C   UNL     1      -0.019   1.526   0.010  0.00  0.00    -0.013 C 
ATOM      5  C   UNL     1       0.002  -0.004   0.002  0.00  0.00    -0.068 C 
BRANCH   5   6
ATOM      6  C   UNL     1      -1.433  -0.534   0.013  0.00  0.00    -0.041 C 
ATOM      7  C   UNL     1      -1.413  -2.063   0.004  0.00  0.00    +0.009 C 
ATOM      8  C   UNL     1      -2.848  -2.593   0.015  0.00  0.00    -0.010 C 
ATOM      9  C   UNL     1      -3.588  -2.086  -1.224  0.00  0.00    +0.007 C 
ATOM     10  C   UNL     1      -3.609  -0.556  -1.216  0.00  0.00    -0.010 C 
ATOM     11  C   UNL     1      -2.173  -0.027  -1.227  0.00  0.00    +0.009 C 
ATOM     12  C   UNL     1      -4.325  -0.063   0.043  0.00  0.00    +0.007 C 
ATOM     13  C   UNL     1      -3.585  -0.570   1.282  0.00  0.00    -0.010 C 
ATOM     14  C   UNL     1      -3.564  -2.100   1.274  0.00  0.00    +0.007 C 
ATOM     15  C   UNL     1      -2.149  -0.040   1.272  0.00  0.00    +0.009 C 
ENDBRANCH   5   6
ENDBRANCH   1   5
BRANCH   1  16
ATOM     16  C   UNL     1       2.122  -0.083   1.122  0.00  0.00    -0.043 C 
BRANCH  16  17
ATOM     17  C   UNL     1       2.851  -0.582   2.343  0.00  0.00    -0.022 A 
ATOM     18  C   UNL     1       3.095   0.273   3.400  0.00  0.00    +0.020 A 
ATOM     19  C   UNL     1       3.763  -0.184   4.521  0.00  0.00    +0.018 A 
ATOM     20  C   UNL     1       4.190  -1.499   4.586  0.00  0.00    +0.019 A 
ATOM     21  C   UNL     1       3.948  -2.357   3.531  0.00  0.00    +0.047 A 
ATOM     22  C   UNL     1       3.272  -1.901   2.408  0.00  0.00    +0.123 A 
ATOM     23 BR   UNL     1       4.096   0.989   5.967  0.00  0.00    -0.050 Br
BRANCH  22  24
ATOM     24  O   UNL     1       3.029  -2.746   1.371  0.00  0.00    -0.483 OA
BRANCH  24  25
ATOM     25  C   UNL     1       3.492  -4.091   1.507  0.00  0.00    +0.324 C 
BRANCH  25  26
ATOM     26  C   UNL     1       3.135  -4.873   0.269  0.00  0.00    +0.248 C 
ATOM     27  O   UNL     1       2.542  -4.331  -0.640  0.00  0.00    -0.272 OA
ATOM     28  N   UNL     1       3.474  -6.173   0.173  0.00  0.00    -0.327 N 
ATOM     29  H   UNL     1       3.948  -6.606   0.900  0.00  0.00    +0.145 HD
ATOM     30  H   UNL     1       3.244  -6.677  -0.624  0.00  0.00    +0.145 HD
ENDBRANCH  25  26
ENDBRANCH  24  25
ENDBRANCH  22  24
ENDBRANCH  16  17
ENDBRANCH   1  16
TORSDOF 7
