REMARK  Name = ZINC15412204
REMARK  13 active torsions:
REMARK  status: ('A' for Active; 'I' for Inactive)
REMARK    1  A    between atoms: C_1  and  C_2
REMARK    2  A    between atoms: C_2  and  C_3
REMARK    3  A    between atoms: C_3  and  C_4
REMARK    4  A    between atoms: C_4  and  N_5
REMARK    5  A    between atoms: C_6  and  N_29
REMARK    6  A    between atoms: C_7  and  N_14
REMARK    7  A    between atoms: N_14  and  C_15
REMARK    8  A    between atoms: C_15  and  C_16
REMARK    9  A    between atoms: C_17  and  C_19
REMARK   10  A    between atoms: C_19  and  N_57
REMARK   11  A    between atoms: C_20  and  N_57
REMARK   12  A    between atoms: C_21  and  C_22
REMARK   13  A    between atoms: C_21  and  N_57
REMARK                            x       y       z     vdW  Elec       q    Type
REMARK                         _______ _______ _______ _____ _____    ______ ____
ROOT
ATOM      1  N   UNL     1       1.262   1.483  -0.447  0.00  0.00    -0.266 N 
ATOM      2  C   UNL     1       0.070   0.899  -0.691  0.00  0.00    +0.203 C 
ATOM      3  O   UNL     1       0.023  -0.261  -1.043  0.00  0.00    -0.277 OA
ENDROOT
BRANCH   1   6
ATOM      4  N   UNL     1       3.820  -1.050   0.292  0.00  0.00    -0.280 N 
ATOM      5  C   UNL     1       2.655  -0.323   0.374  0.00  0.00    +0.127 A 
ATOM      6  C   UNL     1       2.447   0.719  -0.506  0.00  0.00    +0.140 A 
ATOM      7  C   UNL     1       3.434   1.002  -1.468  0.00  0.00    +0.277 A 
ATOM      8  O   UNL     1       3.274   1.914  -2.262  0.00  0.00    -0.266 OA
ATOM      9  N   UNL     1       4.560   0.263  -1.503  0.00  0.00    -0.273 N 
ATOM     10  H   UNL     1       5.266   0.469  -2.181  0.00  0.00    +0.173 HD
ATOM     11  C   UNL     1       4.745  -0.749  -0.637  0.00  0.00    +0.331 A 
ATOM     12  O   UNL     1       5.769  -1.403  -0.694  0.00  0.00    -0.246 OA
BRANCH   5  13
ATOM     13  N   UNL     1       1.709  -0.630   1.323  0.00  0.00    -0.343 N 
ATOM     14  H   UNL     1       0.936  -0.057   1.441  0.00  0.00    +0.144 HD
ATOM     15  H   UNL     1       1.815  -1.421   1.875  0.00  0.00    +0.144 HD
ENDBRANCH   5  13
BRANCH   4  16
ATOM     16  C   UNL     1       4.053  -2.159   1.220  0.00  0.00    +0.128 C 
BRANCH  16  17
ATOM     17  C   UNL     1       3.502  -3.453   0.618  0.00  0.00    +0.021 C 
BRANCH  17  19
ATOM     18  C   UNL     1       3.196  -5.905   0.985  0.00  0.00    +0.004 C 
ATOM     19  C   UNL     1       3.746  -4.611   1.587  0.00  0.00    -0.002 C 
ENDBRANCH  17  19
ENDBRANCH  16  17
ENDBRANCH   4  16
ENDBRANCH   1   6
BRANCH   1  20
ATOM     20  C   UNL     1       1.326   2.909  -0.121  0.00  0.00    +0.110 C 
ATOM     21  C   UNL     1       1.327   3.086   1.399  0.00  0.00    +0.025 C 
ENDBRANCH   1  20
BRANCH   2  22
ATOM     22  C   UNL     1      -1.203   1.690  -0.532  0.00  0.00    +0.019 C 
BRANCH  22  24
ATOM     23  C   UNL     1      -2.495  -0.253   0.114  0.00  0.00    -0.095 C 
ATOM     24  N   UNL     1      -2.348   0.826  -0.886  0.00  0.00    +0.386 N 
ATOM     25  H   UNL     1      -2.177   0.406  -1.807  0.00  0.00    -0.081 HD
BRANCH  24  26
ATOM     26  C   UNL     1      -3.587   1.630  -0.948  0.00  0.00    -0.042 C 
BRANCH  26  27
ATOM     27  C   UNL     1      -3.596   2.405  -2.241  0.00  0.00    -0.050 A 
ATOM     28  C   UNL     1      -3.284   3.751  -2.242  0.00  0.00    +0.003 A 
ATOM     29  C   UNL     1      -3.288   4.461  -3.428  0.00  0.00    +0.000 A 
ATOM     30  C   UNL     1      -3.613   3.827  -4.612  0.00  0.00    +0.001 A 
ATOM     31  C   UNL     1      -3.930   2.482  -4.612  0.00  0.00    +0.015 A 
ATOM     32  C   UNL     1      -3.922   1.770  -3.426  0.00  0.00    +0.019 A 
ATOM     33 BR   UNL     1      -4.356  -0.071  -3.424  0.00  0.00    -0.050 Br
ENDBRANCH  26  27
ENDBRANCH  24  26
ENDBRANCH  22  24
ENDBRANCH   2  22
TORSDOF 10
