REMARK  Name = ZINC07962538
REMARK  5 active torsions:
REMARK  status: ('A' for Active; 'I' for Inactive)
REMARK    1  A    between atoms: C_1  and  C_2
REMARK    2  A    between atoms: C_2  and  C_4
REMARK    3  A    between atoms: C_6  and  C_10
REMARK    4  A    between atoms: N_12  and  N_13
REMARK    5  A    between atoms: C_14  and  C_16
REMARK                            x       y       z     vdW  Elec       q    Type
REMARK                         _______ _______ _______ _____ _____    ______ ____
ROOT
ATOM      1  N   UNL     1       3.598  -3.331  -0.049  0.00  0.00    -0.230 N 
ATOM      2  C   UNL     1       4.924  -3.574  -0.063  0.00  0.00    +0.267 C 
ATOM      3  O   UNL     1       5.713  -2.647  -0.066  0.00  0.00    -0.268 OA
ATOM      4  H   UNL     1       2.970  -4.069  -0.046  0.00  0.00    +0.173 HD
ENDROOT
BRANCH   2   5
ATOM      5  C   UNL     1       5.415  -4.955  -0.074  0.00  0.00    +0.076 A 
ATOM      6  C   UNL     1       6.713  -5.418  -0.095  0.00  0.00    +0.024 A 
ATOM      7  C   UNL     1       6.924  -6.798  -0.084  0.00  0.00    -0.036 A 
ATOM      8  C   UNL     1       5.831  -7.586  -0.124  0.00  0.00    -0.006 A 
ATOM      9  S   UNL     1       4.493  -6.479  -0.073  0.00  0.00    -0.088 S 
ATOM     10  C   UNL     1       5.647  -9.075  -0.263  0.00  0.00    +0.043 C 
ATOM     11  C   UNL     1       6.978  -9.814  -0.399  0.00  0.00    +0.005 C 
ATOM     12  C   UNL     1       7.637  -9.992   0.960  0.00  0.00    +0.000 C 
ATOM     13  C   UNL     1       7.450  -8.790   1.864  0.00  0.00    +0.000 C 
ATOM     14  C   UNL     1       8.549  -7.785   1.508  0.00  0.00    +0.005 C 
ATOM     15  C   UNL     1       8.346  -7.320   0.066  0.00  0.00    +0.036 C 
ENDBRANCH   2   5
BRANCH   1  18
ATOM     16  C   UNL     1       1.803  -1.768  -0.024  0.00  0.00    +0.276 C 
ATOM     17  O   UNL     1       1.014  -2.694  -0.021  0.00  0.00    -0.267 OA
ATOM     18  N   UNL     1       3.128  -2.011  -0.038  0.00  0.00    -0.229 N 
ATOM     19  H   UNL     1       3.757  -1.272  -0.041  0.00  0.00    +0.173 HD
BRANCH  16  22
ATOM     20  C   UNL     1      -0.017   1.411   0.010  0.00  0.00    +0.035 A 
ATOM     21  C   UNL     1       0.002  -0.004   0.002  0.00  0.00    +0.043 A 
ATOM     22  C   UNL     1       1.310  -0.384  -0.013  0.00  0.00    +0.104 A 
ATOM     23  N   UNL     1       2.093   0.750  -0.014  0.00  0.00    -0.356 N 
ATOM     24  H   UNL     1       3.063   0.763  -0.023  0.00  0.00    +0.165 HD
ATOM     25  C   UNL     1       1.303   1.834  -0.001  0.00  0.00    +0.094 A 
BRANCH  20  27
ATOM     26  C   UNL     1      -1.056   3.767   0.028  0.00  0.00    +0.091 C 
ATOM     27  C   UNL     1      -1.207   2.268   0.020  0.00  0.00    +0.162 C 
ATOM     28  O   UNL     1      -2.313   1.769   0.023  0.00  0.00    -0.292 OA
ENDBRANCH  20  27
ENDBRANCH  16  22
ENDBRANCH   1  18
TORSDOF 4
