REMARK  Name = ZINC36603503
REMARK  15 active torsions:
REMARK  status: ('A' for Active; 'I' for Inactive)
REMARK    1  A    between atoms: C_1  and  C_2
REMARK    2  A    between atoms: C_2  and  C_3
REMARK    3  A    between atoms: N_5  and  C_6
REMARK    4  A    between atoms: N_5  and  C_13
REMARK    5  A    between atoms: C_6  and  C_7
REMARK    6  A    between atoms: C_10  and  C_12
REMARK    7  A    between atoms: C_13  and  C_15
REMARK    8  A    between atoms: C_13  and  C_24
REMARK    9  A    between atoms: C_16  and  O_23
REMARK   10  A    between atoms: C_18  and  O_22
REMARK   11  A    between atoms: C_20  and  O_21
REMARK   12  A    between atoms: N_26  and  C_27
REMARK   13  A    between atoms: C_27  and  S_28
REMARK   14  A    between atoms: S_28  and  C_31
REMARK   15  A    between atoms: C_34  and  C_37
REMARK                            x       y       z     vdW  Elec       q    Type
REMARK                         _______ _______ _______ _____ _____    ______ ____
ROOT
ATOM      1  C   UNL     1       1.217  -2.615   2.287  0.00  0.00    +0.200 C 
ENDROOT
BRANCH   1   2
ATOM      2  C   UNL     1      -0.220  -3.010   2.510  0.00  0.00    +0.065 A 
ATOM      3  C   UNL     1      -1.239  -2.292   1.903  0.00  0.00    +0.129 A 
ATOM      4  C   UNL     1      -2.561  -2.656   2.109  0.00  0.00    +0.091 A 
ATOM      5  C   UNL     1      -2.864  -3.739   2.920  0.00  0.00    +0.124 A 
ATOM      6  C   UNL     1      -1.845  -4.458   3.526  0.00  0.00    +0.091 A 
ATOM      7  C   UNL     1      -0.522  -4.096   3.317  0.00  0.00    +0.129 A 
BRANCH   7   8
ATOM      8  O   UNL     1       0.477  -4.804   3.907  0.00  0.00    -0.506 OA
ATOM      9  H   UNL     1       0.728  -4.476   4.782  0.00  0.00    +0.292 HD
ENDBRANCH   7   8
BRANCH   5  10
ATOM     10  O   UNL     1      -4.160  -4.095   3.122  0.00  0.00    -0.507 OA
ATOM     11  H   UNL     1      -4.497  -4.734   2.479  0.00  0.00    +0.292 HD
ENDBRANCH   5  10
BRANCH   3  12
ATOM     12  O   UNL     1      -0.942  -1.231   1.108  0.00  0.00    -0.506 OA
ATOM     13  H   UNL     1      -0.903  -1.444   0.166  0.00  0.00    +0.292 HD
ENDBRANCH   3  12
ENDBRANCH   1   2
BRANCH   1  14
ATOM     14  C   UNL     1       1.652  -3.054   0.913  0.00  0.00    +0.240 C 
ATOM     15  O   UNL     1       2.146  -2.253   0.147  0.00  0.00    -0.273 OA
ATOM     16  N   UNL     1       1.492  -4.338   0.534  0.00  0.00    -0.294 N 
ATOM     17  H   UNL     1       1.097  -4.979   1.146  0.00  0.00    +0.150 HD
BRANCH  16  18
ATOM     18  C   UNL     1       1.915  -4.766  -0.802  0.00  0.00    +0.278 C 
BRANCH  18  19
ATOM     19  S   UNL     1       3.591  -5.453  -0.715  0.00  0.00    +0.013 S 
ATOM     20  O   UNL     1       3.991  -5.930  -1.992  0.00  0.00    -0.168 OA
ATOM     21  O   UNL     1       4.436  -4.589   0.033  0.00  0.00    -0.168 OA
BRANCH  19  22
ATOM     22  C   UNL     1       3.436  -6.901   0.278  0.00  0.00    +0.090 A 
ATOM     23  C   UNL     1       3.585  -6.817   1.649  0.00  0.00    +0.027 A 
ATOM     24  C   UNL     1       3.463  -7.953   2.428  0.00  0.00    +0.005 A 
ATOM     25  C   UNL     1       3.192  -9.172   1.835  0.00  0.00    -0.050 A 
ATOM     26  C   UNL     1       3.042  -9.255   0.464  0.00  0.00    +0.005 A 
ATOM     27  C   UNL     1       3.159  -8.118  -0.315  0.00  0.00    +0.027 A 
ATOM     28  C   UNL     1       3.060 -10.410   2.684  0.00  0.00    +0.044 C 
ENDBRANCH  19  22
ENDBRANCH  18  19
ENDBRANCH  16  18
ENDBRANCH   1  14
BRANCH   1  31
ATOM     29  C   UNL     1       1.430  -0.581   3.612  0.00  0.00    +0.217 C 
ATOM     30  O   UNL     1       1.437   0.628   3.708  0.00  0.00    -0.276 OA
ATOM     31  N   UNL     1       1.346  -1.160   2.398  0.00  0.00    -0.278 N 
BRANCH  29  33
ATOM     32  C   UNL     1       1.763  -0.545   6.069  0.00  0.00    +0.013 C 
ATOM     33  C   UNL     1       1.514  -1.436   4.850  0.00  0.00    +0.092 C 
ENDBRANCH  29  33
BRANCH  31  34
ATOM     34  C   UNL     1       1.384  -0.334   1.188  0.00  0.00    +0.183 C 
BRANCH  34  35
ATOM     35  C   UNL     1       2.814   0.003   0.854  0.00  0.00    +0.122 A 
ATOM     36  C   UNL     1       3.314   0.173  -0.383  0.00  0.00    +0.046 A 
ATOM     37  C   UNL     1       4.687   0.474  -0.232  0.00  0.00    +0.045 A 
ATOM     38  C   UNL     1       4.944   0.471   1.089  0.00  0.00    +0.102 A 
ATOM     39  O   UNL     1       3.805   0.191   1.742  0.00  0.00    -0.463 OA
ATOM     40  C   UNL     1       6.282   0.741   1.727  0.00  0.00    +0.086 C 
ENDBRANCH  34  35
ENDBRANCH  31  34
ENDBRANCH   1  31
TORSDOF 12
