REMARK  Name = ZINC57315651
REMARK  7 active torsions:
REMARK  status: ('A' for Active; 'I' for Inactive)
REMARK    1  A    between atoms: C_1  and  C_2
REMARK    2  A    between atoms: C_9  and  N_14
REMARK    3  A    between atoms: C_10  and  C_11
REMARK    4  A    between atoms: C_15  and  C_17
REMARK    5  A    between atoms: C_20  and  N_26
REMARK    6  A    between atoms: C_21  and  N_23
REMARK    7  A    between atoms: C_29  and  C_32
REMARK                            x       y       z     vdW  Elec       q    Type
REMARK                         _______ _______ _______ _____ _____    ______ ____
ROOT
ATOM      1  N   UNL     1       1.981  -6.098   1.346  0.00  0.00    -0.275 N 
ATOM      2  C   UNL     1       2.266  -6.201   2.659  0.00  0.00    +0.249 C 
ATOM      3  O   UNL     1       2.232  -5.213   3.367  0.00  0.00    -0.270 OA
ATOM      4  H   UNL     1       2.008  -6.886   0.781  0.00  0.00    +0.156 HD
ENDROOT
BRANCH   1  12
ATOM      5  C   UNL     1       0.063   0.993  -1.254  0.00  0.00    +0.008 C 
ATOM      6  C   UNL     1       0.082  -0.526  -1.077  0.00  0.00    -0.009 C 
ATOM      7  C   UNL     1       0.826  -1.170  -2.251  0.00  0.00    +0.008 C 
ATOM      8  C   UNL     1       0.640  -2.688  -2.216  0.00  0.00    +0.037 C 
ATOM      9  C   UNL     1       1.014  -3.193  -0.830  0.00  0.00    -0.023 A 
ATOM     10  C   UNL     1       1.077  -2.357   0.228  0.00  0.00    -0.004 A 
ATOM     11  S   UNL     1       1.541  -3.388   1.589  0.00  0.00    -0.077 S 
ATOM     12  C   UNL     1       1.648  -4.868   0.803  0.00  0.00    +0.085 A 
ATOM     13  C   UNL     1       1.327  -4.576  -0.514  0.00  0.00    +0.068 A 
ATOM     14  C   UNL     1       0.806  -0.883   0.229  0.00  0.00    +0.046 C 
BRANCH  13  15
ATOM     15  C   UNL     1       1.306  -5.619  -1.544  0.00  0.00    +0.244 C 
ATOM     16  O   UNL     1       2.315  -5.868  -2.179  0.00  0.00    -0.270 OA
ATOM     17  N   UNL     1       0.170  -6.301  -1.789  0.00  0.00    -0.325 N 
ATOM     18  H   UNL     1      -0.633  -6.103  -1.283  0.00  0.00    +0.145 HD
ATOM     19  H   UNL     1       0.156  -6.991  -2.471  0.00  0.00    +0.145 HD
ENDBRANCH  13  15
ENDBRANCH   1  12
BRANCH   2  20
ATOM     20  C   UNL     1       2.620  -7.511   3.237  0.00  0.00    +0.039 A 
ATOM     21  C   UNL     1       2.666  -8.646   2.422  0.00  0.00    +0.015 A 
ATOM     22  C   UNL     1       2.997  -9.867   2.965  0.00  0.00    +0.026 A 
ATOM     23  C   UNL     1       3.285  -9.972   4.323  0.00  0.00    +0.060 A 
ATOM     24  C   UNL     1       3.240  -8.843   5.136  0.00  0.00    +0.148 A 
ATOM     25  C   UNL     1       2.917  -7.618   4.599  0.00  0.00    +0.047 A 
BRANCH  23  26
ATOM     26  N   UNL     1       3.619 -11.207   4.868  0.00  0.00    -0.328 N 
ATOM     27  C   UNL     1       5.007 -11.687   4.838  0.00  0.00    +0.105 C 
ATOM     28  C   UNL     1       5.034 -13.079   4.199  0.00  0.00    +0.022 C 
ATOM     29  C   UNL     1       4.066 -13.999   4.948  0.00  0.00    -0.011 C 
ATOM     30  C   UNL     1       2.644 -13.444   4.837  0.00  0.00    +0.022 C 
ATOM     31  C   UNL     1       2.592 -12.053   5.489  0.00  0.00    +0.105 C 
ATOM     32  C   UNL     1       4.116 -15.399   4.333  0.00  0.00    +0.007 C 
ENDBRANCH  23  26
BRANCH  24  33
ATOM     33  N   UNL     1       3.547  -8.959   6.580  0.00  0.00    +0.058 N 
ATOM     34  O   UNL     1       3.412  -8.002   7.305  0.00  0.00    -0.126 OA
ATOM     35  O   UNL     1       3.933 -10.012   7.033  0.00  0.00    -0.126 OA
ENDBRANCH  24  33
ENDBRANCH   2  20
TORSDOF 5
