REMARK  Name = ZINC08345912
REMARK  7 active torsions:
REMARK  status: ('A' for Active; 'I' for Inactive)
REMARK    1  A    between atoms: C_1  and  C_2
REMARK    2  A    between atoms: C_10  and  S_12
REMARK    3  A    between atoms: S_12  and  C_13
REMARK    4  A    between atoms: C_13  and  C_14
REMARK    5  A    between atoms: C_14  and  C_16
REMARK    6  A    between atoms: C_17  and  N_28
REMARK    7  A    between atoms: N_18  and  C_25
REMARK                            x       y       z     vdW  Elec       q    Type
REMARK                         _______ _______ _______ _____ _____    ______ ____
ROOT
ATOM      1  C   UNL     1       3.296  -5.776  -0.729  0.00  0.00    +0.182 C 
ATOM      2  O   UNL     1       4.431  -5.357  -0.611  0.00  0.00    -0.291 OA
ENDROOT
BRANCH   1   3
ATOM      3  C   UNL     1       2.999  -7.114  -0.397  0.00  0.00    +0.120 A 
ATOM      4  C   UNL     1       4.019  -8.022  -0.061  0.00  0.00    +0.116 A 
ATOM      5  N   UNL     1       3.682  -9.306   0.259  0.00  0.00    -0.278 N 
ATOM      6  C   UNL     1       2.404  -9.715   0.248  0.00  0.00    +0.331 A 
ATOM      7  O   UNL     1       2.156 -10.869   0.536  0.00  0.00    -0.246 OA
ATOM      8  N   UNL     1       1.388  -8.895  -0.070  0.00  0.00    -0.274 N 
ATOM      9  H   UNL     1       0.452  -9.245  -0.064  0.00  0.00    +0.173 HD
ATOM     10  C   UNL     1       1.616  -7.606  -0.396  0.00  0.00    +0.266 A 
ATOM     11  O   UNL     1       0.693  -6.866  -0.682  0.00  0.00    -0.267 OA
BRANCH   5  12
ATOM     12  C   UNL     1       4.737 -10.258   0.616  0.00  0.00    +0.094 C 
ATOM     13  C   UNL     1       4.524 -11.113   1.867  0.00  0.00    +0.027 C 
ATOM     14  C   UNL     1       5.546  -9.973   1.883  0.00  0.00    +0.027 C 
ENDBRANCH   5  12
BRANCH   4  15
ATOM     15  N   UNL     1       5.321  -7.626  -0.051  0.00  0.00    -0.344 N 
ATOM     16  H   UNL     1       5.544  -6.696   0.114  0.00  0.00    +0.144 HD
ATOM     17  H   UNL     1       6.026  -8.273  -0.207  0.00  0.00    +0.144 HD
ENDBRANCH   4  15
ENDBRANCH   1   3
BRANCH   1  18
ATOM     18  C   UNL     1       2.206  -4.864  -1.232  0.00  0.00    +0.155 C 
BRANCH  18  19
ATOM     19  S   UNL     1       2.897  -3.226  -1.569  0.00  0.00    -0.097 S 
BRANCH  19  29
ATOM     20  C   UNL     1      -2.104  -3.183  -2.650  0.00  0.00    +0.088 C 
ATOM     21  C   UNL     1      -0.814  -2.405  -2.605  0.00  0.00    +0.128 A 
ATOM     22  N   UNL     1      -0.828  -1.148  -2.980  0.00  0.00    -0.232 NA
ATOM     23  C   UNL     1       0.298  -0.418  -2.956  0.00  0.00    +0.076 A 
ATOM     24  C   UNL     1       0.319   0.926  -3.350  0.00  0.00    +0.028 A 
ATOM     25  C   UNL     1       1.491   1.622  -3.306  0.00  0.00    +0.002 A 
ATOM     26  C   UNL     1       2.668   1.018  -2.876  0.00  0.00    +0.001 A 
ATOM     27  C   UNL     1       2.682  -0.289  -2.485  0.00  0.00    +0.012 A 
ATOM     28  C   UNL     1       1.497  -1.031  -2.518  0.00  0.00    +0.032 A 
ATOM     29  C   UNL     1       1.448  -2.392  -2.125  0.00  0.00    +0.109 A 
ATOM     30  N   UNL     1       0.281  -3.021  -2.189  0.00  0.00    -0.225 NA
ENDBRANCH  19  29
ENDBRANCH  18  19
ENDBRANCH   1  18
TORSDOF 6
