REMARK  Name = ZINC48934251
REMARK  7 active torsions:
REMARK  status: ('A' for Active; 'I' for Inactive)
REMARK    1  A    between atoms: C_1  and  C_2
REMARK    2  A    between atoms: C_5  and  C_8
REMARK    3  A    between atoms: C_8  and  C_10
REMARK    4  A    between atoms: C_8  and  N_11
REMARK    5  A    between atoms: C_12  and  C_14
REMARK    6  A    between atoms: C_14  and  C_16
REMARK    7  A    between atoms: C_14  and  N_17
REMARK                            x       y       z     vdW  Elec       q    Type
REMARK                         _______ _______ _______ _____ _____    ______ ____
ROOT
ATOM      1  N   UNL     1       0.959  -4.758   1.029  0.00  0.00    -0.307 N 
ATOM      2  C   UNL     1       1.534  -5.972   0.919  0.00  0.00    +0.234 C 
ATOM      3  O   UNL     1       1.306  -6.665  -0.050  0.00  0.00    -0.274 OA
ATOM      4  H   UNL     1       1.142  -4.204   1.804  0.00  0.00    +0.149 HD
ENDROOT
BRANCH   1   5
ATOM      5  C   UNL     1       0.059  -4.275  -0.021  0.00  0.00    +0.100 C 
ATOM      6  C   UNL     1      -1.353  -4.805   0.234  0.00  0.00    +0.033 C 
BRANCH   5  11
ATOM      7  C   UNL     1      -0.018   1.503   0.010  0.00  0.00    +0.044 C 
ATOM      8  C   UNL     1       0.002  -0.004   0.002  0.00  0.00    -0.050 A 
ATOM      9  C   UNL     1       0.006  -0.689  -1.199  0.00  0.00    +0.004 A 
ATOM     10  C   UNL     1       0.025  -2.071  -1.206  0.00  0.00    +0.006 A 
ATOM     11  C   UNL     1       0.040  -2.768  -0.013  0.00  0.00    -0.027 A 
ATOM     12  C   UNL     1       0.037  -2.084   1.188  0.00  0.00    +0.006 A 
ATOM     13  C   UNL     1       0.023  -0.702   1.195  0.00  0.00    +0.004 A 
ENDBRANCH   5  11
ENDBRANCH   1   5
BRANCH   2  14
ATOM     14  C   UNL     1       2.460  -6.468   1.999  0.00  0.00    +0.157 C 
ATOM     15  C   UNL     1       1.703  -6.537   3.327  0.00  0.00    +0.038 C 
BRANCH  14  16
ATOM     16  N   UNL     1       2.950  -7.803   1.647  0.00  0.00    -0.289 N 
ATOM     17  C   UNL     1       4.123  -8.243   2.144  0.00  0.00    +0.298 C 
ATOM     18  O   UNL     1       4.774  -7.532   2.885  0.00  0.00    -0.253 OA
ATOM     19  N   UNL     1       4.574  -9.471   1.821  0.00  0.00    -0.313 N 
ATOM     20  H   UNL     1       2.431  -8.370   1.056  0.00  0.00    +0.151 HD
ATOM     21  H   UNL     1       4.054 -10.038   1.229  0.00  0.00    +0.146 HD
ATOM     22  H   UNL     1       5.418  -9.788   2.178  0.00  0.00    +0.146 HD
ENDBRANCH  14  16
ENDBRANCH   2  14
TORSDOF 4
