REMARK  Name = ZINC45214431
REMARK  11 active torsions:
REMARK  status: ('A' for Active; 'I' for Inactive)
REMARK    1  A    between atoms: C_1  and  C_2
REMARK    2  A    between atoms: C_4  and  O_11
REMARK    3  A    between atoms: C_7  and  N_8
REMARK    4  A    between atoms: O_11  and  C_12
REMARK    5  A    between atoms: C_12  and  C_13
REMARK    6  A    between atoms: C_13  and  C_14
REMARK    7  A    between atoms: C_13  and  C_15
REMARK    8  A    between atoms: C_13  and  N_17
REMARK    9  A    between atoms: N_17  and  C_18
REMARK   10  A    between atoms: C_18  and  C_19
REMARK   11  A    between atoms: C_18  and  C_20
REMARK                            x       y       z     vdW  Elec       q    Type
REMARK                         _______ _______ _______ _____ _____    ______ ____
ROOT
ATOM      1  O   UNL     1      -1.359  -4.762  -0.636  0.00  0.00    -0.489 OA
ENDROOT
BRANCH   1   5
ATOM      2  C   UNL     1      -3.298  -3.456   3.649  0.00  0.00    +0.046 C 
ATOM      3  C   UNL     1      -2.723  -4.500   2.727  0.00  0.00    -0.017 A 
ATOM      4  C   UNL     1      -2.302  -4.146   1.460  0.00  0.00    +0.051 A 
ATOM      5  C   UNL     1      -1.773  -5.108   0.612  0.00  0.00    +0.121 A 
ATOM      6  C   UNL     1      -1.667  -6.423   1.039  0.00  0.00    +0.048 A 
ATOM      7  C   UNL     1      -2.090  -6.773   2.307  0.00  0.00    +0.036 A 
ATOM      8  C   UNL     1      -2.612  -5.811   3.152  0.00  0.00    +0.129 A 
BRANCH   8   9
ATOM      9  N   UNL     1      -3.057  -6.186   4.513  0.00  0.00    +0.057 N 
ATOM     10  O   UNL     1      -2.877  -5.429   5.438  0.00  0.00    -0.126 OA
ATOM     11  O   UNL     1      -3.601  -7.250   4.699  0.00  0.00    -0.126 OA
ENDBRANCH   8   9
ENDBRANCH   1   5
BRANCH   1  12
ATOM     12  C   UNL     1      -0.824  -5.804  -1.454  0.00  0.00    +0.266 C 
BRANCH  12  13
ATOM     13  C   UNL     1      -0.415  -5.228  -2.811  0.00  0.00    +0.138 C 
ATOM     14  C   UNL     1      -1.647  -4.657  -3.515  0.00  0.00    +0.047 C 
BRANCH  13  15
ATOM     15  C   UNL     1       0.576  -4.158  -2.611  0.00  0.00    +0.088 C 
ATOM     16  N   UNL     1       1.341  -3.332  -2.457  0.00  0.00    -0.195 NA
ENDBRANCH  13  15
BRANCH  13  17
ATOM     17  N   UNL     1       0.172  -6.291  -3.637  0.00  0.00    -0.294 NA
ATOM     18  H   UNL     1      -0.496  -7.027  -3.808  0.00  0.00    +0.124 HD
BRANCH  17  19
ATOM     19  C   UNL     1       1.395  -6.822  -3.021  0.00  0.00    +0.049 C 
ATOM     20  C   UNL     1       1.192  -8.299  -2.676  0.00  0.00    +0.023 C 
ATOM     21  C   UNL     1       2.562  -6.683  -4.000  0.00  0.00    +0.023 C 
ENDBRANCH  17  19
ENDBRANCH  13  17
ENDBRANCH  12  13
ENDBRANCH   1  12
TORSDOF 7
