REMARK  Name = ZINC03443435
REMARK  7 active torsions:
REMARK  status: ('A' for Active; 'I' for Inactive)
REMARK    1  A    between atoms: C_1  and  C_2
REMARK    2  A    between atoms: C_5  and  C_9
REMARK    3  A    between atoms: C_7  and  C_8
REMARK    4  A    between atoms: C_9  and  O_11
REMARK    5  A    between atoms: O_11  and  C_12
REMARK    6  A    between atoms: C_12  and  C_14
REMARK    7  A    between atoms: C_12  and  C_15
REMARK                            x       y       z     vdW  Elec       q    Type
REMARK                         _______ _______ _______ _____ _____    ______ ____
ROOT
ATOM      1  C   UNL     1       1.185  -2.163  -0.236  0.00  0.00    +0.259 C 
ATOM      2  C   UNL     1       0.509  -2.574  -1.546  0.00  0.00    +0.062 C 
ENDROOT
BRANCH   1   3
ATOM      3  C   UNL     1       1.173  -0.661  -0.114  0.00  0.00    +0.259 C 
ATOM      4  O   UNL     1       2.217  -0.044  -0.121  0.00  0.00    -0.271 OA
ATOM      5  N   UNL     1       0.002  -0.004   0.002  0.00  0.00    -0.267 N 
ATOM      6  C   UNL     1      -0.017   1.390   0.008  0.00  0.00    +0.125 A 
ATOM      7  C   UNL     1      -1.234   2.062   0.021  0.00  0.00    +0.045 A 
ATOM      8  C   UNL     1      -1.239   3.446   0.027  0.00  0.00    +0.025 A 
ATOM      9  C   UNL     1      -0.021   4.113   0.019  0.00  0.00    +0.059 A 
ATOM     10  C   UNL     1       1.151   3.380   0.006  0.00  0.00    +0.132 A 
ATOM     11  N   UNL     1       1.124   2.061   0.006  0.00  0.00    -0.239 NA
ATOM     12 CL   UNL     1       0.029   5.848   0.026  0.00  0.00    -0.082 Cl
ATOM     13  H   UNL     1      -0.827  -0.501   0.082  0.00  0.00    +0.156 HD
ENDBRANCH   1   3
BRANCH   1  14
ATOM     14  O   UNL     1       2.557  -2.639  -0.229  0.00  0.00    -0.449 OA
BRANCH  14  15
ATOM     15  C   UNL     1       2.776  -3.866   0.281  0.00  0.00    +0.340 C 
ATOM     16  O   UNL     1       1.847  -4.521   0.708  0.00  0.00    -0.245 OA
BRANCH  15  21
ATOM     17  C   UNL     1       8.115  -6.005   0.436  0.00  0.00    +0.044 C 
ATOM     18  C   UNL     1       6.717  -5.445   0.396  0.00  0.00    -0.047 A 
ATOM     19  C   UNL     1       6.495  -4.184  -0.130  0.00  0.00    +0.004 A 
ATOM     20  C   UNL     1       5.217  -3.667  -0.174  0.00  0.00    +0.015 A 
ATOM     21  C   UNL     1       4.147  -4.415   0.321  0.00  0.00    +0.059 A 
ATOM     22  C   UNL     1       4.378  -5.687   0.849  0.00  0.00    +0.018 A 
ATOM     23  C   UNL     1       5.660  -6.194   0.883  0.00  0.00    -0.047 A 
ATOM     24  C   UNL     1       5.912  -7.566   1.452  0.00  0.00    +0.044 C 
ENDBRANCH  15  21
ENDBRANCH  14  15
ENDBRANCH   1  14
TORSDOF 4
