REMARK  Name = ZINC09272784
REMARK  13 active torsions:
REMARK  status: ('A' for Active; 'I' for Inactive)
REMARK    1  A    between atoms: C_1  and  C_2
REMARK    2  A    between atoms: C_2  and  O_3
REMARK    3  A    between atoms: O_3  and  C_4
REMARK    4  A    between atoms: C_6  and  C_20
REMARK    5  A    between atoms: C_9  and  O_10
REMARK    6  A    between atoms: O_10  and  C_11
REMARK    7  A    between atoms: C_11  and  C_13
REMARK    8  A    between atoms: C_20  and  C_21
REMARK    9  A    between atoms: C_20  and  C_29
REMARK   10  A    between atoms: C_22  and  C_28
REMARK   11  A    between atoms: C_26  and  O_27
REMARK   12  A    between atoms: C_30  and  C_36
REMARK   13  A    between atoms: C_34  and  O_35
REMARK                            x       y       z     vdW  Elec       q    Type
REMARK                         _______ _______ _______ _____ _____    ______ ____
ROOT
ATOM      1  C   UNL     1      -0.661  -1.502  -0.708  0.00  0.00    +0.163 A 
ATOM      2  C   UNL     1       0.214  -2.543  -0.444  0.00  0.00    +0.054 A 
ATOM      3  C   UNL     1      -0.269  -3.829  -0.287  0.00  0.00    -0.031 A 
ATOM      4  C   UNL     1      -1.624  -4.080  -0.394  0.00  0.00    +0.008 A 
ATOM      5  C   UNL     1      -2.503  -3.046  -0.657  0.00  0.00    +0.050 A 
ATOM      6  C   UNL     1      -2.026  -1.753  -0.810  0.00  0.00    +0.173 A 
ENDROOT
BRANCH   1   7
ATOM      7  O   UNL     1      -0.189  -0.236  -0.862  0.00  0.00    -0.489 OA
BRANCH   7   9
ATOM      8  C   UNL     1       1.565   1.425  -0.945  0.00  0.00    +0.048 C 
ATOM      9  C   UNL     1       1.224  -0.053  -0.744  0.00  0.00    +0.226 C 
ENDBRANCH   7   9
ENDBRANCH   1   7
BRANCH   6  10
ATOM     10  O   UNL     1      -2.890  -0.734  -1.065  0.00  0.00    -0.419 OA
BRANCH  10  11
ATOM     11  C   UNL     1      -3.043  -0.339  -2.344  0.00  0.00    +0.345 C 
ATOM     12  O   UNL     1      -2.490  -0.947  -3.238  0.00  0.00    -0.245 OA
BRANCH  11  13
ATOM     13  C   UNL     1      -3.882   0.834  -2.658  0.00  0.00    +0.060 A 
ATOM     14  C   UNL     1      -4.514   1.540  -1.631  0.00  0.00    +0.018 A 
ATOM     15  C   UNL     1      -5.296   2.634  -1.931  0.00  0.00    +0.039 A 
ATOM     16  C   UNL     1      -5.456   3.036  -3.248  0.00  0.00    +0.123 A 
ATOM     17  C   UNL     1      -4.830   2.340  -4.272  0.00  0.00    +0.039 A 
ATOM     18  C   UNL     1      -4.042   1.247  -3.983  0.00  0.00    +0.018 A 
ATOM     19  F   UNL     1      -6.224   4.109  -3.536  0.00  0.00    -0.205 F 
ENDBRANCH  11  13
ENDBRANCH  10  11
ENDBRANCH   6  10
BRANCH   3  20
ATOM     20  C   UNL     1       0.685  -4.960  -0.001  0.00  0.00    +0.093 C 
BRANCH  20  21
ATOM     21  C   UNL     1       0.590  -5.340   1.454  0.00  0.00    +0.048 A 
ATOM     22  C   UNL     1       1.592  -5.172   2.416  0.00  0.00    +0.068 A 
ATOM     23  N   UNL     1       1.141  -5.619   3.560  0.00  0.00    -0.176 NA
ATOM     24  N   UNL     1      -0.165  -6.087   3.367  0.00  0.00    -0.247 N 
ATOM     25  H   UNL     1      -0.740  -6.472   4.047  0.00  0.00    +0.192 HD
ATOM     26  C   UNL     1      -0.485  -5.901   2.067  0.00  0.00    +0.213 A 
ATOM     27  C   UNL     1       2.956  -4.580   2.175  0.00  0.00    +0.068 C 
BRANCH  26  28
ATOM     28  O   UNL     1      -1.667  -6.221   1.479  0.00  0.00    -0.492 OA
ATOM     29  H   UNL     1      -1.726  -7.141   1.190  0.00  0.00    +0.294 HD
ENDBRANCH  26  28
ENDBRANCH  20  21
BRANCH  20  30
ATOM     30  C   UNL     1       0.325  -6.149  -0.855  0.00  0.00    +0.048 A 
ATOM     31  C   UNL     1       0.581  -7.445  -0.564  0.00  0.00    +0.041 A 
ATOM     32  N   UNL     1       0.103  -8.197  -1.576  0.00  0.00    -0.278 N 
ATOM     33  N   UNL     1      -0.467  -7.338  -2.524  0.00  0.00    -0.136 NA
ATOM     34  H   UNL     1       0.146  -9.165  -1.637  0.00  0.00    +0.189 HD
ATOM     35  C   UNL     1      -0.340  -6.107  -2.089  0.00  0.00    +0.236 A 
ATOM     36  C   UNL     1       1.277  -7.956   0.671  0.00  0.00    +0.065 C 
BRANCH  35  37
ATOM     37  O   UNL     1      -0.773  -4.987  -2.726  0.00  0.00    -0.491 OA
ATOM     38  H   UNL     1      -0.152  -4.642  -3.383  0.00  0.00    +0.294 HD
ENDBRANCH  35  37
ENDBRANCH  20  30
ENDBRANCH   3  20
TORSDOF 10
