REMARK  Name = ZINC38569968
REMARK  17 active torsions:
REMARK  status: ('A' for Active; 'I' for Inactive)
REMARK    1  A    between atoms: CG2_1  and  CB_2
REMARK    2  A    between atoms: CB_2  and  CA_4
REMARK    3  A    between atoms: CB_2  and  OG1_39
REMARK    4  A    between atoms: CA_4  and  C_6
REMARK    5  A    between atoms: CA_4  and  N_9
REMARK    6  A    between atoms: C_10  and  CA_12
REMARK    7  A    between atoms: CA_12  and  CB_14
REMARK    8  A    between atoms: CA_12  and  N_17
REMARK    9  A    between atoms: CB_14  and  CG1_15
REMARK   10  A    between atoms: CB_14  and  CG2_16
REMARK   11  A    between atoms: C_18  and  C_20
REMARK   12  A    between atoms: C_20  and  C_33
REMARK   13  A    between atoms: C_26  and  O_28
REMARK   14  A    between atoms: O_28  and  C_29
REMARK   15  A    between atoms: C_29  and  C_30
REMARK   16  A    between atoms: C_29  and  C_31
REMARK   17  A    between atoms: C_29  and  C_32
REMARK                            x       y       z     vdW  Elec       q    Type
REMARK                         _______ _______ _______ _____ _____    ______ ____
ROOT
ATOM      1  N   VAL A   1       6.719  -0.073   3.388  0.00  0.00    -0.303 N 
ATOM      2  C   UNK A   0       6.036   0.807   4.146  0.00  0.00    +0.224 C 
ATOM      3  O   UNK A   0       5.236   1.559   3.631  0.00  0.00    -0.275 OA
ATOM      4  H   VAL A   1       7.413  -0.622   3.786  0.00  0.00    +0.149 HD
ENDROOT
BRANCH   2   5
ATOM      5  C   UNK A   0       6.266   0.856   5.635  0.00  0.00    +0.075 C 
ATOM      6  C   UNK A   0       5.510   2.046   6.229  0.00  0.00    +0.040 C 
ATOM      7  C   UNK A   0       5.997   3.338   5.564  0.00  0.00    +0.112 C 
ATOM      8  N   UNK A   0       7.457   3.420   5.703  0.00  0.00    -0.267 N 
ATOM      9  C   UNK A   0       8.275   2.288   5.247  0.00  0.00    +0.112 C 
ATOM     10  C   UNK A   0       7.763   1.008   5.915  0.00  0.00    +0.040 C 
ATOM     11  C   UNK A   0       8.036   4.513   6.239  0.00  0.00    +0.403 C 
ATOM     12  O   UNK A   0       7.348   5.443   6.613  0.00  0.00    -0.226 OA
BRANCH   5  13
ATOM     13  C   UNK A   0       5.765  -0.420   6.263  0.00  0.00    -0.032 A 
ATOM     14  C   UNK A   0       6.645  -1.256   6.924  0.00  0.00    +0.004 A 
ATOM     15  C   UNK A   0       6.186  -2.426   7.499  0.00  0.00    +0.000 A 
ATOM     16  C   UNK A   0       4.847  -2.760   7.414  0.00  0.00    +0.000 A 
ATOM     17  C   UNK A   0       3.967  -1.922   6.754  0.00  0.00    +0.000 A 
ATOM     18  C   UNK A   0       4.425  -0.750   6.182  0.00  0.00    +0.004 A 
ENDBRANCH   5  13
BRANCH  11  19
ATOM     19  O   UNK A   0       9.375   4.575   6.361  0.00  0.00    -0.445 OA
BRANCH  19  20
ATOM     20  C   UNK A   0       9.920   5.763   6.938  0.00  0.00    +0.107 C 
ATOM     21  C   UNK A   0       9.370   5.941   8.354  0.00  0.00    +0.055 C 
ATOM     22  C   UNK A   0      11.445   5.650   6.993  0.00  0.00    +0.055 C 
ATOM     23  C   UNK A   0       9.529   6.971   6.083  0.00  0.00    +0.055 C 
ENDBRANCH  19  20
ENDBRANCH  11  19
ENDBRANCH   2   5
BRANCH   1  24
ATOM     24  CA  VAL A   1       6.414  -0.201   1.960  0.00  0.00    +0.161 C 
BRANCH  24  26
ATOM     25  N   VAL A   1       7.578  -0.926  -0.099  0.00  0.00    -0.299 N 
ATOM     26  C   VAL A   1       7.625  -0.727   1.233  0.00  0.00    +0.234 C 
ATOM     27  O   VAL A   1       8.642  -0.971   1.847  0.00  0.00    -0.274 OA
ATOM     28  H   VAL A   1       6.764  -0.731  -0.590  0.00  0.00    +0.150 HD
BRANCH  25  29
ATOM     29  CA  VAL A   1       8.755  -1.437  -0.806  0.00  0.00    +0.215 C 
BRANCH  29  30
ATOM     30  C   VAL A   1       9.668  -0.290  -1.155  0.00  0.00    +0.378 C 
ATOM     31  O   VAL A   1       9.287   0.859  -1.010  0.00  0.00    -0.244 OA
ATOM     32  OXT VAL A   1      10.788  -0.512  -1.583  0.00  0.00    -0.244 OA
ENDBRANCH  29  30
BRANCH  29  34
ATOM     33  CG2 VAL A   1       7.288  -3.229  -1.744  0.00  0.00    +0.040 C 
ATOM     34  CB  VAL A   1       8.312  -2.146  -2.087  0.00  0.00    +0.143 C 
BRANCH  34  35
ATOM     35  OG1 VAL A   1       7.720  -1.196  -2.976  0.00  0.00    -0.390 OA
ATOM     36  HG1 VAL A   1       6.942  -0.750  -2.614  0.00  0.00    +0.210 HD
ENDBRANCH  34  35
ENDBRANCH  29  34
ENDBRANCH  25  29
ENDBRANCH  24  26
BRANCH  24  37
ATOM     37  CB  VAL A   1       5.246  -1.171   1.773  0.00  0.00    +0.012 C 
ATOM     38  CG1 VAL A   1       5.576  -2.503   2.448  0.00  0.00    +0.009 C 
ATOM     39  CG2 VAL A   1       3.985  -0.578   2.405  0.00  0.00    +0.009 C 
ENDBRANCH  24  37
ENDBRANCH   1  24
TORSDOF 11
