REMARK  Name = ZINC39514845
REMARK  10 active torsions:
REMARK  status: ('A' for Active; 'I' for Inactive)
REMARK    1  A    between atoms: C_1  and  C_2
REMARK    2  A    between atoms: C_2  and  O_3
REMARK    3  A    between atoms: O_3  and  C_4
REMARK    4  A    between atoms: N_6  and  N_7
REMARK    5  A    between atoms: C_8  and  C_10
REMARK    6  A    between atoms: C_12  and  C_22
REMARK    7  A    between atoms: C_13  and  C_21
REMARK    8  A    between atoms: C_14  and  S_16
REMARK    9  A    between atoms: S_16  and  N_19
REMARK   10  A    between atoms: N_19  and  C_20
REMARK                            x       y       z     vdW  Elec       q    Type
REMARK                         _______ _______ _______ _____ _____    ______ ____
ROOT
ATOM      1  C   UNL     1       3.007  -1.327  -5.576  0.00  0.00    +0.040 A 
ATOM      2  C   UNL     1       3.026   0.019  -5.208  0.00  0.00    +0.016 A 
ATOM      3  C   UNL     1       3.679   0.939  -6.002  0.00  0.00    -0.045 A 
ATOM      4  C   UNL     1       4.313   0.529  -7.162  0.00  0.00    -0.021 A 
ATOM      5  C   UNL     1       4.297  -0.803  -7.533  0.00  0.00    +0.109 A 
ATOM      6  C   UNL     1       3.653  -1.734  -6.745  0.00  0.00    +0.042 A 
ATOM      7  C   UNL     1       5.024   1.540  -8.026  0.00  0.00    +0.046 C 
ATOM      8  C   UNL     1       3.701   2.393  -5.606  0.00  0.00    +0.044 C 
ENDROOT
BRANCH   1  10
ATOM      9  N   UNL     1       1.686  -1.922  -3.602  0.00  0.00    -0.228 N 
ATOM     10  C   UNL     1       2.309  -2.319  -4.729  0.00  0.00    +0.260 C 
ATOM     11  O   UNL     1       2.298  -3.491  -5.050  0.00  0.00    -0.269 OA
ATOM     12  H   UNL     1       1.695  -0.987  -3.346  0.00  0.00    +0.173 HD
BRANCH   9  15
ATOM     13  C   UNL     1       0.403  -2.465  -1.672  0.00  0.00    +0.417 C 
ATOM     14  O   UNL     1      -0.170  -3.280  -0.976  0.00  0.00    -0.225 OA
ATOM     15  N   UNL     1       1.026  -2.862  -2.800  0.00  0.00    -0.199 N 
ATOM     16  H   UNL     1       1.017  -3.797  -3.055  0.00  0.00    +0.176 HD
BRANCH  13  17
ATOM     17  O   UNL     1       0.415  -1.167  -1.317  0.00  0.00    -0.450 OA
BRANCH  17  19
ATOM     18  C   UNL     1      -0.143   0.689   0.127  0.00  0.00    +0.048 C 
ATOM     19  C   UNL     1      -0.265  -0.818  -0.110  0.00  0.00    +0.230 C 
ENDBRANCH  17  19
ENDBRANCH  13  17
ENDBRANCH   9  15
ENDBRANCH   1  10
BRANCH   5  20
ATOM     20  S   UNL     1       5.106  -1.314  -9.013  0.00  0.00    +0.058 S 
ATOM     21  O   UNL     1       4.984  -2.728  -9.075  0.00  0.00    -0.153 OA
ATOM     22  O   UNL     1       4.635  -0.462 -10.048  0.00  0.00    -0.153 OA
BRANCH  20  23
ATOM     23  N   UNL     1       6.718  -0.986  -8.827  0.00  0.00    -0.193 NA
ATOM     24  C   UNL     1       7.498  -1.698  -7.812  0.00  0.00    +0.127 C 
ATOM     25  H   UNL     1       7.147  -0.323  -9.390  0.00  0.00    +0.148 HD
ENDBRANCH  20  23
ENDBRANCH   5  20
TORSDOF 6
