REMARK  Name = ZINC25443973
REMARK  7 active torsions:
REMARK  status: ('A' for Active; 'I' for Inactive)
REMARK    1  A    between atoms: C_1  and  N_2
REMARK    2  A    between atoms: N_2  and  C_3
REMARK    3  A    between atoms: N_2  and  C_4
REMARK    4  A    between atoms: C_4  and  C_11
REMARK    5  A    between atoms: C_11  and  N_12
REMARK    6  A    between atoms: C_13  and  C_15
REMARK    7  A    between atoms: C_15  and  C_16
REMARK                            x       y       z     vdW  Elec       q    Type
REMARK                         _______ _______ _______ _____ _____    ______ ____
ROOT
ATOM      1  N   UNL     1       3.571   6.177  -2.619  0.00  0.00    -0.317 N 
ATOM      2  C   UNL     1       2.937   6.624  -1.517  0.00  0.00    +0.215 C 
ATOM      3  O   UNL     1       3.214   6.164  -0.430  0.00  0.00    -0.276 OA
ATOM      4  H   UNL     1       3.320   6.593  -3.606  0.00  0.00    +0.149 HD
ENDROOT
BRANCH   1   5
ATOM      5  C   UNL     1       4.596   5.136  -2.503  0.00  0.00    +0.092 C 
BRANCH   5   6
ATOM      6  C   UNL     1       5.061   4.721  -3.900  0.00  0.00    -0.050 C 
ATOM      7  C   UNL     1       5.312   3.237  -3.930  0.00  0.00    -0.010 C 
ATOM      8  C   UNL     1       5.655   2.670  -2.539  0.00  0.00    -0.001 C 
ATOM      9  C   UNL     1       6.612   3.577  -1.743  0.00  0.00    -0.000 C 
ATOM     10  C   UNL     1       7.715   4.140  -2.597  0.00  0.00    -0.000 C 
ATOM     11  C   UNL     1       7.280   5.530  -3.105  0.00  0.00    -0.001 C 
ATOM     12  C   UNL     1       6.378   5.447  -4.245  0.00  0.00    -0.010 C 
BRANCH   6  14
ATOM     13  C   UNL     1       4.492   4.783  -6.253  0.00  0.00    -0.096 C 
ATOM     14  N   UNL     1       4.032   5.071  -4.888  0.00  0.00    +0.381 N 
ATOM     15  C   UNL     1       2.769   4.377  -4.601  0.00  0.00    -0.096 C 
ATOM     16  H   UNL     1       3.847   6.153  -4.815  0.00  0.00    -0.082 HD
ENDBRANCH   6  14
ENDBRANCH   5   6
ENDBRANCH   1   5
BRANCH   2  17
ATOM     17  C   UNL     1       1.884   7.695  -1.637  0.00  0.00    +0.119 C 
BRANCH  17  18
ATOM     18  C   UNL     1       1.325   8.018  -0.249  0.00  0.00    +0.146 C 
ATOM     19  C   UNL     1       0.361   9.171  -0.346  0.00  0.00    +0.231 C 
ATOM     20  O   UNL     1       0.763  10.284  -0.075  0.00  0.00    -0.274 OA
ATOM     21  N   UNL     1      -0.906   9.030  -0.720  0.00  0.00    -0.284 N 
ATOM     22  C   UNL     1      -1.573   7.834  -0.967  0.00  0.00    +0.048 A 
ATOM     23  C   UNL     1      -2.782   7.857  -1.655  0.00  0.00    +0.044 A 
ATOM     24  C   UNL     1      -3.458   6.681  -1.915  0.00  0.00    +0.043 A 
ATOM     25  C   UNL     1      -2.946   5.468  -1.488  0.00  0.00    +0.021 A 
ATOM     26  C   UNL     1      -1.754   5.433  -0.788  0.00  0.00    +0.018 A 
ATOM     27  C   UNL     1      -1.075   6.610  -0.520  0.00  0.00    +0.030 A 
ATOM     28  S   UNL     1       0.430   6.574   0.402  0.00  0.00    -0.110 S 
ATOM     29 CL   UNL     1      -4.961   6.725  -2.784  0.00  0.00    -0.083 Cl
ATOM     30  H   UNL     1      -1.539   9.918  -0.863  0.00  0.00    +0.155 HD
ENDBRANCH  17  18
ENDBRANCH   2  17
TORSDOF 5
