REMARK  Name = ZINC38994320
REMARK  8 active torsions:
REMARK  status: ('A' for Active; 'I' for Inactive)
REMARK    1  A    between atoms: C_1  and  O_2
REMARK    2  A    between atoms: O_2  and  C_3
REMARK    3  A    between atoms: C_7  and  C_9
REMARK    4  A    between atoms: C_13  and  N_33
REMARK    5  A    between atoms: C_15  and  C_21
REMARK    6  A    between atoms: C_27  and  S_29
REMARK    7  A    between atoms: S_29  and  C_30
REMARK    8  A    between atoms: C_30  and  C_31
REMARK                            x       y       z     vdW  Elec       q    Type
REMARK                         _______ _______ _______ _____ _____    ______ ____
ROOT
ATOM      1  C   UNL     1       1.332  -4.077  -2.303  0.00  0.00    +0.035 C 
ATOM      2  C   UNL     1       0.778  -4.846  -1.331  0.00  0.00    +0.023 C 
ATOM      3  C   UNL     1       0.848  -6.307  -1.427  0.00  0.00    +0.002 C 
ATOM      4  C   UNL     1       1.177  -6.851  -2.613  0.00  0.00    -0.053 C 
ATOM      5  C   UNL     1       1.461  -8.303  -2.854  0.00  0.00    -0.024 C 
ATOM      6  C   UNL     1       2.050  -8.614  -4.250  0.00  0.00    +0.124 C 
ATOM      7  S   UNL     1       2.651  -6.942  -4.760  0.00  0.00    -0.123 S 
ATOM      8  C   UNL     1       1.381  -5.970  -3.848  0.00  0.00    +0.154 C 
ATOM      9  N   UNL     1       1.952  -4.703  -3.392  0.00  0.00    -0.328 N 
ATOM     10  H   UNL     1       2.729  -4.314  -3.824  0.00  0.00    +0.147 HD
ENDROOT
BRANCH   6  11
ATOM     11  C   UNL     1       3.190  -9.594  -4.151  0.00  0.00    +0.230 C 
ATOM     12  O   UNL     1       3.881  -9.623  -3.155  0.00  0.00    -0.274 OA
ATOM     13  N   UNL     1       3.442 -10.440  -5.170  0.00  0.00    -0.262 N 
ATOM     14  C   UNL     1       4.496 -11.346  -5.079  0.00  0.00    +0.189 A 
ATOM     15  N   UNL     1       5.359 -11.550  -4.098  0.00  0.00    -0.125 NA
ATOM     16  N   UNL     1       6.266 -12.423  -4.176  0.00  0.00    -0.133 NA
ATOM     17  C   UNL     1       6.409 -13.190  -5.247  0.00  0.00    +0.160 A 
ATOM     18  S   UNL     1       5.064 -12.572  -6.253  0.00  0.00    -0.024 S 
ATOM     19  H   UNL     1       2.890 -10.417  -5.967  0.00  0.00    +0.157 HD
BRANCH  17  20
ATOM     20  S   UNL     1       7.584 -14.460  -5.582  0.00  0.00    -0.093 S 
BRANCH  20  21
ATOM     21  C   UNL     1       8.614 -14.510  -4.089  0.00  0.00    +0.103 C 
BRANCH  21  22
ATOM     22  C   UNL     1       9.674 -15.569  -4.245  0.00  0.00    -0.023 C 
ATOM     23  C   UNL     1      10.938 -15.229  -4.291  0.00  0.00    +0.005 C 
ENDBRANCH  21  22
ENDBRANCH  20  21
ENDBRANCH  17  20
ENDBRANCH   6  11
BRANCH   1  28
ATOM     24  C   UNL     1       0.606  -0.607  -1.056  0.00  0.00    +0.121 A 
ATOM     25  C   UNL     1       1.173   0.163  -2.063  0.00  0.00    +0.045 A 
ATOM     26  C   UNL     1       1.788  -0.445  -3.142  0.00  0.00    +0.004 A 
ATOM     27  C   UNL     1       1.843  -1.821  -3.225  0.00  0.00    +0.010 A 
ATOM     28  C   UNL     1       1.276  -2.604  -2.217  0.00  0.00    -0.001 A 
ATOM     29  C   UNL     1       0.660  -1.988  -1.126  0.00  0.00    +0.055 A 
BRANCH  24  31
ATOM     30  C   UNL     1      -0.017   1.425   0.010  0.00  0.00    +0.277 C 
ATOM     31  O   UNL     1       0.002  -0.004   0.002  0.00  0.00    -0.495 OA
ENDBRANCH  24  31
ENDBRANCH   1  28
BRANCH   5  32
ATOM     32  N   UNL     1       0.208  -9.054  -2.703  0.00  0.00    +0.384 N 
ATOM     33  H   UNL     1      -0.476  -8.704  -3.356  0.00  0.00    -0.089 HD
ATOM     34  H   UNL     1       0.378 -10.032  -2.886  0.00  0.00    -0.089 HD
ATOM     35  H   UNL     1      -0.139  -8.944  -1.762  0.00  0.00    -0.089 HD
ENDBRANCH   5  32
TORSDOF 7
