REMARK  Name = ZINC22933419
REMARK  9 active torsions:
REMARK  status: ('A' for Active; 'I' for Inactive)
REMARK    1  A    between atoms: C_1  and  C_2
REMARK    2  A    between atoms: C_6  and  O_31
REMARK    3  A    between atoms: C_12  and  C_13
REMARK    4  A    between atoms: C_13  and  C_14
REMARK    5  A    between atoms: N_16  and  C_17
REMARK    6  A    between atoms: C_17  and  C_18
REMARK    7  A    between atoms: C_18  and  N_24
REMARK    8  A    between atoms: N_27  and  C_30
REMARK    9  A    between atoms: O_31  and  C_32
REMARK                            x       y       z     vdW  Elec       q    Type
REMARK                         _______ _______ _______ _____ _____    ______ ____
ROOT
ATOM      1  C   UNL     1      -4.487   1.231   2.647  0.00  0.00    +0.218 C 
ATOM      2  O   UNL     1      -4.163   0.118   2.290  0.00  0.00    -0.275 OA
ATOM      3  N   UNL     1      -4.036   1.720   3.819  0.00  0.00    -0.313 N 
ATOM      4  H   UNL     1      -4.295   2.610   4.105  0.00  0.00    +0.149 HD
ENDROOT
BRANCH   1   5
ATOM      5  C   UNL     1      -5.394   2.066   1.781  0.00  0.00    +0.138 C 
BRANCH   5  17
ATOM      6  C   UNL     1      -7.842   0.538   1.668  0.00  0.00    +0.045 C 
ATOM      7  C   UNL     1      -6.905   0.576   0.489  0.00  0.00    -0.029 A 
ATOM      8  C   UNL     1      -7.214  -0.154  -0.742  0.00  0.00    +0.022 A 
ATOM      9  C   UNL     1      -8.388  -0.907  -0.857  0.00  0.00    +0.035 A 
ATOM     10  C   UNL     1      -8.653  -1.579  -2.016  0.00  0.00    +0.083 A 
ATOM     11  C   UNL     1      -7.760  -1.519  -3.086  0.00  0.00    +0.142 A 
ATOM     12  C   UNL     1      -6.594  -0.778  -2.988  0.00  0.00    +0.094 A 
ATOM     13  C   UNL     1      -6.310  -0.090  -1.818  0.00  0.00    +0.143 A 
ATOM     14  O   UNL     1      -5.179   0.638  -1.703  0.00  0.00    -0.422 OA
ATOM     15  C   UNL     1      -4.890   1.311  -0.578  0.00  0.00    +0.341 A 
ATOM     16  O   UNL     1      -3.857   1.955  -0.520  0.00  0.00    -0.245 OA
ATOM     17  C   UNL     1      -5.752   1.294   0.537  0.00  0.00    +0.049 A 
ATOM     18 CL   UNL     1     -10.109  -2.513  -2.159  0.00  0.00    -0.080 Cl
BRANCH  11  19
ATOM     19  O   UNL     1      -8.036  -2.192  -4.232  0.00  0.00    -0.494 OA
ATOM     20  C   UNL     1      -7.081  -2.090  -5.290  0.00  0.00    +0.277 C 
ENDBRANCH  11  19
ENDBRANCH   5  17
ENDBRANCH   1   5
BRANCH   3  21
ATOM     21  C   UNL     1      -3.154   0.908   4.662  0.00  0.00    +0.126 C 
BRANCH  21  22
ATOM     22  C   UNL     1      -2.893   1.640   5.980  0.00  0.00    +0.037 C 
ATOM     23  C   UNL     1      -1.868   0.857   6.803  0.00  0.00    +0.024 C 
ATOM     24  C   UNL     1      -2.412  -0.543   7.096  0.00  0.00    +0.002 C 
ATOM     25  C   UNL     1      -3.719  -0.429   7.883  0.00  0.00    +0.000 C 
ATOM     26  C   UNL     1      -4.743   0.355   7.060  0.00  0.00    +0.002 C 
ATOM     27  C   UNL     1      -4.199   1.754   6.767  0.00  0.00    +0.024 C 
BRANCH  22  28
ATOM     28  N   UNL     1      -2.371   2.984   5.699  0.00  0.00    -0.299 NA
ATOM     29  C   UNL     1      -1.142   2.914   4.895  0.00  0.00    +0.066 C 
ATOM     30  C   UNL     1      -0.665   4.333   4.575  0.00  0.00    -0.064 C 
ATOM     31  N   UNL     1      -0.411   5.059   5.826  0.00  0.00    +0.379 N 
ATOM     32  C   UNL     1      -1.653   5.141   6.606  0.00  0.00    -0.064 C 
ATOM     33  C   UNL     1      -2.139   3.730   6.944  0.00  0.00    +0.066 C 
ATOM     34  C   UNL     1       0.064   6.414   5.518  0.00  0.00    -0.096 C 
ATOM     35  H   UNL     1       0.290   4.570   6.362  0.00  0.00    -0.082 HD
ENDBRANCH  22  28
ENDBRANCH  21  22
ENDBRANCH   3  21
TORSDOF 6
