REMARK  Name = ZINC05071382
REMARK  5 active torsions:
REMARK  status: ('A' for Active; 'I' for Inactive)
REMARK    1  A    between atoms: C_1  and  C_2
REMARK    2  A    between atoms: C_2  and  C_12
REMARK    3  A    between atoms: N_3  and  N_4
REMARK    4  A    between atoms: N_4  and  C_5
REMARK    5  A    between atoms: C_15  and  N_18
REMARK                            x       y       z     vdW  Elec       q    Type
REMARK                         _______ _______ _______ _____ _____    ______ ____
ROOT
ATOM      1  C   UNL     1      -0.018   1.503   0.010  0.00  0.00    +0.068 C 
ATOM      2  C   UNL     1       0.002  -0.004   0.002  0.00  0.00    +0.063 C 
ATOM      3  N   UNL     1       0.022  -0.659   1.123  0.00  0.00    -0.187 NA
ENDROOT
BRANCH   2   4
ATOM      4  C   UNL     1      -0.000  -0.734  -1.278  0.00  0.00    -0.002 A 
ATOM      5  C   UNL     1      -0.015  -0.031  -2.486  0.00  0.00    +0.012 A 
ATOM      6  C   UNL     1      -0.017  -0.717  -3.681  0.00  0.00    +0.027 A 
ATOM      7  C   UNL     1      -0.003  -2.107  -3.686  0.00  0.00    +0.047 A 
ATOM      8  C   UNL     1       0.011  -2.810  -2.488  0.00  0.00    +0.027 A 
ATOM      9  C   UNL     1       0.019  -2.132  -1.288  0.00  0.00    +0.012 A 
BRANCH   7  10
ATOM     10  N   UNL     1      -0.005  -2.801  -4.904  0.00  0.00    -0.306 N 
ATOM     11  C   UNL     1       0.002  -4.162  -5.066  0.00  0.00    +0.112 A 
ATOM     12  C   UNL     1      -0.003  -4.397  -6.392  0.00  0.00    +0.130 A 
ATOM     13  N   UNL     1      -0.012  -3.216  -7.026  0.00  0.00    -0.244 NA
ATOM     14  C   UNL     1      -0.019  -2.252  -6.146  0.00  0.00    +0.204 A 
ENDBRANCH   7  10
ENDBRANCH   2   4
BRANCH   3  15
ATOM     15  N   UNL     1       0.024   0.035   2.340  0.00  0.00    -0.236 N 
ATOM     16  H   UNL     1       0.011   1.004   2.345  0.00  0.00    +0.174 HD
BRANCH  15  17
ATOM     17  C   UNL     1       0.045  -0.670   3.545  0.00  0.00    +0.067 A 
ATOM     18  C   UNL     1       0.069  -2.059   3.539  0.00  0.00    +0.026 A 
ATOM     19  C   UNL     1       0.091  -2.753   4.733  0.00  0.00    +0.002 A 
ATOM     20  C   UNL     1       0.087  -2.067   5.934  0.00  0.00    +0.002 A 
ATOM     21  C   UNL     1       0.063  -0.684   5.945  0.00  0.00    +0.022 A 
ATOM     22  C   UNL     1       0.047   0.017   4.754  0.00  0.00    +0.063 A 
ATOM     23 CL   UNL     1       0.023   1.753   4.768  0.00  0.00    -0.082 Cl
ENDBRANCH  15  17
ENDBRANCH   3  15
TORSDOF 4
