REMARK  Name = ZINC34785164
REMARK  6 active torsions:
REMARK  status: ('A' for Active; 'I' for Inactive)
REMARK    1  A    between atoms: C_1  and  C_2
REMARK    2  A    between atoms: C_2  and  C_31
REMARK    3  A    between atoms: C_7  and  N_12
REMARK    4  A    between atoms: C_8  and  C_9
REMARK    5  A    between atoms: N_18  and  C_21
REMARK    6  A    between atoms: C_21  and  C_22
REMARK                            x       y       z     vdW  Elec       q    Type
REMARK                         _______ _______ _______ _____ _____    ______ ____
ROOT
ATOM      1  N   UNL     1       1.678  -6.767  -0.919  0.00  0.00    -0.263 N 
ATOM      2  C   UNL     1       1.830  -6.547  -2.240  0.00  0.00    +0.307 C 
ATOM      3  O   UNL     1       1.622  -5.441  -2.700  0.00  0.00    -0.252 OA
ATOM      4  N   UNL     1       2.214  -7.553  -3.051  0.00  0.00    -0.283 N 
ATOM      5  C   UNL     1       2.497  -7.309  -4.473  0.00  0.00    +0.124 C 
ATOM      6  C   UNL     1       3.872  -7.900  -4.804  0.00  0.00    +0.104 C 
ATOM      7  N   UNL     1       3.905  -9.311  -4.397  0.00  0.00    -0.291 NA
ATOM      8  C   UNL     1       3.740  -9.451  -2.945  0.00  0.00    +0.104 C 
ATOM      9  C   UNL     1       2.366  -8.922  -2.536  0.00  0.00    +0.124 C 
ATOM     10  H   UNL     1       1.771  -7.665  -0.563  0.00  0.00    +0.157 HD
ENDROOT
BRANCH   1  17
ATOM     11  C   UNL     1       0.346  -2.564   5.215  0.00  0.00    +0.041 C 
ATOM     12  C   UNL     1       0.820  -2.823   3.784  0.00  0.00    +0.068 C 
ATOM     13  C   UNL     1       0.664  -4.313   3.459  0.00  0.00    +0.071 C 
ATOM     14  C   UNL     1       0.904  -4.494   1.967  0.00  0.00    -0.018 A 
ATOM     15  C   UNL     1       0.850  -3.428   1.136  0.00  0.00    +0.021 A 
ATOM     16  S   UNL     1       1.184  -4.092  -0.466  0.00  0.00    -0.075 S 
ATOM     17  C   UNL     1       1.388  -5.711  -0.069  0.00  0.00    +0.086 A 
ATOM     18  C   UNL     1       1.199  -5.750   1.305  0.00  0.00    +0.069 A 
ATOM     19  C   UNL     1       0.563  -2.015   1.538  0.00  0.00    +0.203 C 
ATOM     20  O   UNL     1       0.043  -2.036   2.877  0.00  0.00    -0.368 OA
ATOM     21  C   UNL     1       2.294  -2.431   3.660  0.00  0.00    +0.041 C 
BRANCH  18  22
ATOM     22  C   UNL     1       1.295  -7.005   2.055  0.00  0.00    +0.244 C 
ATOM     23  O   UNL     1       0.304  -7.692   2.221  0.00  0.00    -0.270 OA
ATOM     24  N   UNL     1       2.480  -7.399   2.562  0.00  0.00    -0.325 N 
ATOM     25  H   UNL     1       3.270  -6.852   2.430  0.00  0.00    +0.145 HD
ATOM     26  H   UNL     1       2.544  -8.230   3.058  0.00  0.00    +0.145 HD
ENDBRANCH  18  22
ENDBRANCH   1  17
BRANCH   7  27
ATOM     27  C   UNL     1       5.141  -9.961  -4.852  0.00  0.00    +0.180 C 
BRANCH  27  28
ATOM     28  C   UNL     1       5.035 -11.449  -4.637  0.00  0.00    +0.230 C 
ATOM     29  O   UNL     1       4.028 -11.921  -4.153  0.00  0.00    -0.274 OA
ATOM     30  N   UNL     1       6.058 -12.255  -4.982  0.00  0.00    -0.300 N 
ATOM     31  C   UNL     1       7.333 -11.817  -5.570  0.00  0.00    +0.108 C 
ATOM     32  C   UNL     1       8.181 -13.082  -5.819  0.00  0.00    +0.020 C 
ATOM     33  C   UNL     1       7.115 -14.208  -5.884  0.00  0.00    +0.020 C 
ATOM     34  C   UNL     1       6.088 -13.721  -4.828  0.00  0.00    +0.108 C 
ENDBRANCH  27  28
ENDBRANCH   7  27
TORSDOF 4
