REMARK  Name = ZINC36012703
REMARK  11 active torsions:
REMARK  status: ('A' for Active; 'I' for Inactive)
REMARK    1  A    between atoms: C_1  and  C_2
REMARK    2  A    between atoms: C_2  and  C_3
REMARK    3  A    between atoms: C_3  and  N_4
REMARK    4  A    between atoms: N_7  and  C_8
REMARK    5  A    between atoms: N_7  and  C_22
REMARK    6  A    between atoms: C_8  and  C_9
REMARK    7  A    between atoms: C_11  and  C_14
REMARK    8  A    between atoms: C_17  and  C_21
REMARK    9  A    between atoms: C_19  and  C_20
REMARK   10  A    between atoms: C_22  and  C_23
REMARK   11  A    between atoms: C_22  and  C_24
REMARK                            x       y       z     vdW  Elec       q    Type
REMARK                         _______ _______ _______ _____ _____    ______ ____
ROOT
ATOM      1  C   UNL     1      -4.193  -5.153  -1.284  0.00  0.00    +0.101 A 
ATOM      2  C   UNL     1      -3.909  -6.368  -1.924  0.00  0.00    +0.077 A 
ATOM      3  C   UNL     1      -4.423  -6.311  -3.183  0.00  0.00    +0.168 A 
ATOM      4  O   UNL     1      -5.009  -5.108  -3.331  0.00  0.00    -0.354 OA
ATOM      5  N   UNL     1      -4.854  -4.397  -2.116  0.00  0.00    -0.081 NA
ENDROOT
BRANCH   3   6
ATOM      6  C   UNL     1      -4.352  -7.378  -4.204  0.00  0.00    +0.023 A 
ATOM      7  C   UNL     1      -3.130  -7.987  -4.496  0.00  0.00    +0.012 A 
ATOM      8  C   UNL     1      -3.071  -8.982  -5.450  0.00  0.00    +0.004 A 
ATOM      9  C   UNL     1      -4.218  -9.376  -6.116  0.00  0.00    -0.050 A 
ATOM     10  C   UNL     1      -5.431  -8.777  -5.830  0.00  0.00    +0.007 A 
ATOM     11  C   UNL     1      -5.506  -7.784  -4.874  0.00  0.00    -0.039 A 
ATOM     12  C   UNL     1      -6.830  -7.136  -4.560  0.00  0.00    +0.044 C 
ATOM     13  C   UNL     1      -4.145 -10.463  -7.157  0.00  0.00    +0.044 C 
ENDBRANCH   3   6
BRANCH   1  14
ATOM     14  C   UNL     1      -3.806  -4.785   0.125  0.00  0.00    +0.168 C 
BRANCH  14  18
ATOM     15  N   UNL     1      -3.747  -2.030   0.014  0.00  0.00    -0.299 N 
ATOM     16  C   UNL     1      -2.571  -2.689   0.003  0.00  0.00    +0.303 C 
ATOM     17  O   UNL     1      -1.529  -2.071  -0.102  0.00  0.00    -0.253 OA
ATOM     18  N   UNL     1      -2.550  -4.032   0.106  0.00  0.00    -0.277 N 
ATOM     19  H   UNL     1      -4.580  -2.526   0.021  0.00  0.00    +0.150 HD
BRANCH  18  20
ATOM     20  C   UNL     1      -1.270  -4.740   0.201  0.00  0.00    +0.072 C 
ATOM     21  C   UNL     1      -1.269  -5.626   1.448  0.00  0.00    +0.028 C 
ATOM     22  C   UNL     1      -1.075  -5.609  -1.043  0.00  0.00    +0.028 C 
ENDBRANCH  18  20
BRANCH  15  23
ATOM     23  C   UNL     1      -3.766  -0.566   0.016  0.00  0.00    +0.105 C 
BRANCH  23  25
ATOM     24  C   UNL     1      -5.236   1.455   0.032  0.00  0.00    +0.005 C 
ATOM     25  C   UNL     1      -5.215  -0.075   0.030  0.00  0.00    +0.015 C 
ENDBRANCH  23  25
ENDBRANCH  15  23
ENDBRANCH  14  18
ENDBRANCH   1  14
TORSDOF 6
