REMARK  Name = ZINC40723144
REMARK  3 active torsions:
REMARK  status: ('A' for Active; 'I' for Inactive)
REMARK    1  A    between atoms: C_11  and  N_24
REMARK    2  A    between atoms: C_12  and  S_16
REMARK    3  A    between atoms: S_16  and  C_17
REMARK                            x       y       z     vdW  Elec       q    Type
REMARK                         _______ _______ _______ _____ _____    ______ ____
ROOT
ATOM      1  C   UNL     1       0.108   0.285  -2.128  0.00  0.00    +0.002 A 
ATOM      2  C   UNL     1       1.313   0.833  -2.548  0.00  0.00    +0.002 A 
ATOM      3  C   UNL     1       2.487   0.511  -1.905  0.00  0.00    +0.030 A 
ATOM      4  C   UNL     1       2.464  -0.367  -0.827  0.00  0.00    +0.096 A 
ATOM      5  C   UNL     1       1.245  -0.921  -0.401  0.00  0.00    +0.113 A 
ATOM      6  C   UNL     1       0.064  -0.579  -1.073  0.00  0.00    +0.032 A 
ATOM      7  N   UNL     1       1.509  -1.731   0.651  0.00  0.00    -0.129 NA
ATOM      8  N   UNL     1       2.769  -1.727   0.911  0.00  0.00    -0.058 NA
ATOM      9  N   UNL     1       3.431  -0.881   0.009  0.00  0.00    -0.192 N 
ATOM     10  C   UNL     1       4.800  -0.613  -0.033  0.00  0.00    +0.181 A 
ATOM     11  C   UNL     1       5.728  -1.653   0.028  0.00  0.00    +0.102 A 
ATOM     12  C   UNL     1       7.088  -1.328  -0.018  0.00  0.00    +0.128 A 
ATOM     13  N   UNL     1       7.441  -0.049  -0.118  0.00  0.00    -0.227 NA
ATOM     14  C   UNL     1       6.531   0.902  -0.174  0.00  0.00    +0.224 A 
ATOM     15  N   UNL     1       5.241   0.638  -0.139  0.00  0.00    -0.215 NA
ENDROOT
BRANCH  11  16
ATOM     16  N   UNL     1       5.309  -2.986   0.134  0.00  0.00    -0.353 N 
ATOM     17  H   UNL     1       4.365  -3.204   0.073  0.00  0.00    +0.142 HD
ATOM     18  H   UNL     1       5.962  -3.690   0.269  0.00  0.00    +0.142 HD
ENDBRANCH  11  16
BRANCH  12  19
ATOM     19  S   UNL     1       8.313  -2.592   0.056  0.00  0.00    -0.068 S 
BRANCH  19  20
ATOM     20  C   UNL     1       9.835  -1.707   0.119  0.00  0.00    +0.014 A 
ATOM     21  C   UNL     1      10.332  -1.262   1.337  0.00  0.00    +0.016 A 
ATOM     22  C   UNL     1      11.525  -0.569   1.384  0.00  0.00    +0.021 A 
ATOM     23  C   UNL     1      12.226  -0.318   0.217  0.00  0.00    +0.041 A 
ATOM     24  C   UNL     1      11.734  -0.760  -0.998  0.00  0.00    +0.021 A 
ATOM     25  C   UNL     1      10.544  -1.458  -1.050  0.00  0.00    +0.016 A 
ATOM     26 CL   UNL     1      13.726   0.554   0.279  0.00  0.00    -0.084 Cl
ENDBRANCH  19  20
ENDBRANCH  12  19
TORSDOF 3
