REMARK  Name = ZINC63869533
REMARK  5 active torsions:
REMARK  status: ('A' for Active; 'I' for Inactive)
REMARK    1  A    between atoms: C_1  and  C_2
REMARK    2  A    between atoms: C_2  and  C_3
REMARK    3  A    between atoms: C_3  and  C_4
REMARK    4  A    between atoms: C_7  and  C_10
REMARK    5  A    between atoms: C_15  and  N_18
REMARK                            x       y       z     vdW  Elec       q    Type
REMARK                         _______ _______ _______ _____ _____    ______ ____
ROOT
ATOM      1  C   UNL     1       0.294  -5.083   2.797  0.00  0.00    +0.238 C 
ATOM      2  O   UNL     1      -0.909  -5.143   2.652  0.00  0.00    -0.273 OA
ATOM      3  N   UNL     1       0.878  -5.696   3.845  0.00  0.00    -0.300 N 
ATOM      4  C   UNL     1       2.333  -5.627   4.038  0.00  0.00    +0.110 C 
ATOM      5  C   UNL     1       2.619  -5.114   5.453  0.00  0.00    +0.044 C 
ATOM      6  C   UNL     1       1.892  -5.998   6.468  0.00  0.00    +0.095 C 
ATOM      7  C   UNL     1       0.383  -5.924   6.224  0.00  0.00    +0.044 C 
ATOM      8  C   UNL     1       0.071  -6.441   4.821  0.00  0.00    +0.110 C 
ENDROOT
BRANCH   6   9
ATOM      9  N   UNL     1       2.191  -5.531   7.824  0.00  0.00    -0.289 N 
ATOM     10  C   UNL     1       2.811  -6.275   8.825  0.00  0.00    +0.070 A 
ATOM     11  C   UNL     1       3.306  -7.569   8.880  0.00  0.00    +0.028 A 
ATOM     12  C   UNL     1       3.881  -8.036  10.046  0.00  0.00    +0.002 A 
ATOM     13  C   UNL     1       3.966  -7.217  11.159  0.00  0.00    +0.002 A 
ATOM     14  C   UNL     1       3.476  -5.927  11.114  0.00  0.00    +0.028 A 
ATOM     15  C   UNL     1       2.897  -5.449   9.947  0.00  0.00    +0.067 A 
ATOM     16  N   UNL     1       2.326  -4.229   9.594  0.00  0.00    -0.306 N 
ATOM     17  H   UNL     1       2.241  -3.454  10.171  0.00  0.00    +0.170 HD
ATOM     18  C   UNL     1       1.917  -4.307   8.314  0.00  0.00    +0.328 A 
ATOM     19  O   UNL     1       1.379  -3.408   7.694  0.00  0.00    -0.247 OA
ENDBRANCH   6   9
BRANCH   1  23
ATOM     20  C   UNL     1       0.762  -2.018   1.233  0.00  0.00    +0.039 C 
ATOM     21  N   UNL     1       0.249  -2.750   0.332  0.00  0.00    -0.195 NA
ATOM     22  N   UNL     1       0.398  -4.119   0.546  0.00  0.00    -0.257 N 
ATOM     23  C   UNL     1       1.135  -4.323   1.804  0.00  0.00    +0.180 C 
ATOM     24  C   UNL     1       1.403  -2.885   2.294  0.00  0.00    +0.085 C 
ATOM     25  H   UNL     1       0.069  -4.822  -0.037  0.00  0.00    +0.169 HD
BRANCH  20  26
ATOM     26  C   UNL     1       0.742  -0.511   1.242  0.00  0.00    +0.052 C 
BRANCH  26  28
ATOM     27  C   UNL     1      -0.019   1.526   0.010  0.00  0.00    +0.004 C 
ATOM     28  C   UNL     1       0.002  -0.004   0.002  0.00  0.00    +0.002 C 
ENDBRANCH  26  28
ENDBRANCH  20  26
ENDBRANCH   1  23
TORSDOF 4
