REMARK  Name = ZINC39671386
REMARK  8 active torsions:
REMARK  status: ('A' for Active; 'I' for Inactive)
REMARK    1  A    between atoms: C_1  and  C_2
REMARK    2  A    between atoms: C_2  and  C_3
REMARK    3  A    between atoms: C_3  and  C_4
REMARK    4  A    between atoms: C_4  and  C_6
REMARK    5  A    between atoms: C_4  and  C_7
REMARK    6  A    between atoms: C_11  and  C_20
REMARK    7  A    between atoms: N_22  and  C_23
REMARK    8  A    between atoms: C_23  and  C_24
REMARK                            x       y       z     vdW  Elec       q    Type
REMARK                         _______ _______ _______ _____ _____    ______ ____
ROOT
ATOM      1  C   UNL     1       1.068  -2.475   2.596  0.00  0.00    +0.218 C 
ATOM      2  O   UNL     1       1.313  -1.758   3.543  0.00  0.00    -0.275 OA
ATOM      3  N   UNL     1       1.344  -3.793   2.660  0.00  0.00    -0.300 N 
ATOM      4  C   UNL     1       1.225  -4.799   1.578  0.00  0.00    +0.121 C 
ATOM      5  C   UNL     1       2.459  -5.712   1.758  0.00  0.00    +0.100 C 
ATOM      6  C   UNL     1       2.852  -5.555   3.236  0.00  0.00    -0.004 C 
ATOM      7  C   UNL     1       1.839  -4.562   3.826  0.00  0.00    +0.115 C 
ATOM      8  C   UNL     1       4.264  -4.989   3.350  0.00  0.00    -0.010 C 
ATOM      9  C   UNL     1       4.653  -4.894   4.828  0.00  0.00    -0.082 C 
ATOM     10  N   UNL     1       4.588  -6.228   5.439  0.00  0.00    +0.379 N 
ATOM     11  C   UNL     1       3.208  -6.726   5.408  0.00  0.00    -0.082 C 
ATOM     12  C   UNL     1       2.757  -6.897   3.955  0.00  0.00    -0.010 C 
ATOM     13  H   UNL     1       5.184  -6.860   4.927  0.00  0.00    -0.086 HD
ATOM     14  H   UNL     1       4.904  -6.173   6.396  0.00  0.00    -0.086 HD
ENDROOT
BRANCH   5  15
ATOM     15  C   UNL     1       3.583  -5.258   0.863  0.00  0.00    +0.219 C 
ATOM     16  O   UNL     1       3.644  -4.100   0.506  0.00  0.00    -0.275 OA
ATOM     17  N   UNL     1       4.519  -6.138   0.458  0.00  0.00    -0.309 N 
ATOM     18  H   UNL     1       4.470  -7.064   0.742  0.00  0.00    +0.149 HD
BRANCH  17  19
ATOM     19  C   UNL     1       5.612  -5.697  -0.413  0.00  0.00    +0.157 C 
BRANCH  19  20
ATOM     20  C   UNL     1       6.515  -6.864  -0.717  0.00  0.00    +0.034 A 
ATOM     21  H   UNL     1       7.811  -6.874   0.913  0.00  0.00    +0.166 HD
ATOM     22  C   UNL     1       6.427  -7.643  -1.807  0.00  0.00    +0.032 A 
ATOM     23  C   UNL     1       7.489  -8.647  -1.702  0.00  0.00    -0.000 A 
ATOM     24  C   UNL     1       7.901  -9.711  -2.507  0.00  0.00    +0.010 A 
ATOM     25  C   UNL     1       8.959 -10.485  -2.120  0.00  0.00    +0.001 A 
ATOM     26  C   UNL     1       9.627 -10.222  -0.932  0.00  0.00    +0.002 A 
ATOM     27  C   UNL     1       9.236  -9.177  -0.122  0.00  0.00    +0.026 A 
ATOM     28  C   UNL     1       8.162  -8.377  -0.497  0.00  0.00    +0.047 A 
ATOM     29  N   UNL     1       7.550  -7.284   0.074  0.00  0.00    -0.357 N 
ENDBRANCH  19  20
ENDBRANCH  17  19
ENDBRANCH   5  15
BRANCH   1  30
ATOM     30  C   UNL     1       0.457  -1.893   1.348  0.00  0.00    +0.072 C 
ATOM     31  C   UNL     1       0.995  -0.477   1.129  0.00  0.00    +0.017 C 
BRANCH  30  32
ATOM     32  C   UNL     1      -1.065  -1.842   1.501  0.00  0.00    +0.012 C 
BRANCH  32  34
ATOM     33  C   UNL     1      -3.215  -1.318   0.343  0.00  0.00    +0.004 C 
ATOM     34  C   UNL     1      -1.694  -1.369   0.189  0.00  0.00    -0.003 C 
ENDBRANCH  32  34
ENDBRANCH  30  32
ENDBRANCH   1  30
TORSDOF 6
