REMARK  Name = ZINC00077895
REMARK  3 active torsions:
REMARK  status: ('A' for Active; 'I' for Inactive)
REMARK    1  A    between atoms: C_3  and  N_15
REMARK    2  A    between atoms: C_6  and  C_7
REMARK    3  A    between atoms: C_9  and  C_13
REMARK                            x       y       z     vdW  Elec       q    Type
REMARK                         _______ _______ _______ _____ _____    ______ ____
ROOT
ATOM      1  C   UNK     1      -2.514   0.980   0.019  0.00  0.00    +0.020 C 
ATOM      2  C   UNK     1      -4.912   1.675  -0.058  0.00  0.00    +0.055 C 
ATOM      3  C   UNK     1      -4.983   0.826   1.235  0.00  0.00    +0.063 C 
ATOM      4  S   UNK     1      -3.202   0.841   1.728  0.00  0.00    -0.173 S 
ATOM      5  N   UNK     1      -3.580   1.766  -0.704  0.00  0.00    +0.399 N 
ATOM      6  H   UNK     1      -3.658   1.406  -1.663  0.00  0.00    -0.083 HD
ATOM      7  H   UNK     1      -3.297   2.753  -0.731  0.00  0.00    -0.083 HD
ENDROOT
BRANCH   1  13
ATOM      8  C   UNK     1      -0.013   1.076   0.008  0.00  0.00    +0.005 A 
ATOM      9  C   UNK     1       1.175   1.783   0.000  0.00  0.00    +0.033 A 
ATOM     10  C   UNK     1       1.156   3.165   0.008  0.00  0.00    +0.126 A 
ATOM     11  C   UNK     1      -0.050   3.840   0.023  0.00  0.00    +0.033 A 
ATOM     12  C   UNK     1      -1.238   3.133   0.029  0.00  0.00    +0.005 A 
ATOM     13  C   UNK     1      -1.219   1.751   0.017  0.00  0.00    -0.052 A 
BRANCH  10  14
ATOM     14  N   UNK     1       2.428   3.923   0.001  0.00  0.00    +0.056 N 
ATOM     15  O   UNK     1       3.491   3.328  -0.012  0.00  0.00    -0.126 OA
ATOM     16  O   UNK     1       2.412   5.141   0.008  0.00  0.00    -0.126 OA
ENDBRANCH  10  14
ENDBRANCH   1  13
BRANCH   2  17
ATOM     17  C   UNK     1      -5.870   1.090  -1.063  0.00  0.00    +0.343 C 
ATOM     18  O   UNK     1      -5.448   0.468  -2.009  0.00  0.00    -0.248 OA
ATOM     19  O   UNK     1      -7.193   1.261  -0.908  0.00  0.00    -0.248 OA
ENDBRANCH   2  17
TORSDOF 3
