REMARK  Name = ZINC39521727
REMARK  6 active torsions:
REMARK  status: ('A' for Active; 'I' for Inactive)
REMARK    1  A    between atoms: C_1  and  O_2
REMARK    2  A    between atoms: O_2  and  C_3
REMARK    3  A    between atoms: N_9  and  O_10
REMARK    4  A    between atoms: O_10  and  C_11
REMARK    5  A    between atoms: C_15  and  C_18
REMARK    6  A    between atoms: C_23  and  O_24
REMARK                            x       y       z     vdW  Elec       q    Type
REMARK                         _______ _______ _______ _____ _____    ______ ____
ROOT
ATOM      1  C   UNL     1      -0.984  -0.710  -0.115  0.00  0.00    +0.213 C 
ATOM      2  C   UNL     1      -0.884  -2.171   0.327  0.00  0.00    +0.050 C 
ATOM      3  C   UNL     1      -2.254  -2.643   0.822  0.00  0.00    +0.006 C 
ATOM      4  C   UNL     1      -3.283  -2.461  -0.297  0.00  0.00    +0.025 C 
ATOM      5  C   UNL     1      -3.313  -0.991  -0.722  0.00  0.00    +0.050 C 
ATOM      6  N   UNL     1      -1.980  -0.588  -1.187  0.00  0.00    -0.154 NA
ATOM      7  C   UNL     1      -3.723  -0.125   0.471  0.00  0.00    +0.025 C 
ATOM      8  C   UNL     1      -3.759   1.345   0.047  0.00  0.00    +0.002 C 
ATOM      9  C   UNL     1      -4.772   1.524  -1.086  0.00  0.00    +0.008 C 
ATOM     10  C   UNL     1      -4.361   0.659  -2.279  0.00  0.00    +0.024 C 
ATOM     11  C   UNL     1      -4.326  -0.811  -1.855  0.00  0.00    +0.033 C 
ENDROOT
BRANCH  10  12
ATOM     12  C   UNL     1      -5.358   0.836  -3.395  0.00  0.00    -0.003 A 
ATOM     13  C   UNL     1      -6.687   0.521  -3.191  0.00  0.00    +0.007 A 
ATOM     14  C   UNL     1      -7.602   0.682  -4.214  0.00  0.00    +0.001 A 
ATOM     15  C   UNL     1      -7.190   1.160  -5.444  0.00  0.00    +0.004 A 
ATOM     16  C   UNL     1      -5.862   1.477  -5.654  0.00  0.00    +0.046 A 
ATOM     17  C   UNL     1      -4.942   1.321  -4.626  0.00  0.00    +0.120 A 
BRANCH  17  18
ATOM     18  O   UNL     1      -3.636   1.637  -4.828  0.00  0.00    -0.506 OA
ATOM     19  H   UNL     1      -3.100   0.903  -5.158  0.00  0.00    +0.292 HD
ENDBRANCH  17  18
ENDBRANCH  10  12
BRANCH   1  21
ATOM     20  C   UNL     1       0.438   1.151  -0.626  0.00  0.00    +0.196 C 
ATOM     21  O   UNL     1       0.288  -0.270  -0.596  0.00  0.00    -0.363 OA
ENDBRANCH   1  21
BRANCH   6  22
ATOM     22  O   UNL     1      -2.004   0.771  -1.729  0.00  0.00    -0.297 OA
ATOM     23  C   UNL     1      -1.443   0.884  -3.039  0.00  0.00    +0.221 C 
ENDBRANCH   6  22
TORSDOF 4
