REMARK  Name = ZINC50442434
REMARK  5 active torsions:
REMARK  status: ('A' for Active; 'I' for Inactive)
REMARK    1  A    between atoms: C_5  and  O_7
REMARK    2  A    between atoms: O_7  and  C_8
REMARK    3  A    between atoms: C_9  and  C_17
REMARK    4  A    between atoms: C_11  and  N_14
REMARK    5  A    between atoms: N_18  and  O_19
REMARK                            x       y       z     vdW  Elec       q    Type
REMARK                         _______ _______ _______ _____ _____    ______ ____
ROOT
ATOM      1  C   UNL     1      -0.227  -2.883   0.312  0.00  0.00    +0.231 A 
ATOM      2  C   UNL     1      -0.044  -4.272   0.353  0.00  0.00    +0.082 A 
ATOM      3  C   UNL     1      -1.157  -5.093   0.553  0.00  0.00    +0.051 A 
ATOM      4  C   UNL     1      -2.398  -4.495   0.701  0.00  0.00    +0.145 A 
ATOM      5  C   UNL     1      -2.498  -3.117   0.649  0.00  0.00    +0.147 A 
ATOM      6  N   UNL     1      -1.432  -2.362   0.465  0.00  0.00    -0.218 NA
ENDROOT
BRANCH   2   7
ATOM      7  C   UNL     1       1.303  -4.859   0.188  0.00  0.00    +0.168 C 
ATOM      8  N   UNL     1       1.516  -5.751  -0.736  0.00  0.00    -0.071 NA
ATOM      9  N   UNL     1       2.338  -4.459   1.016  0.00  0.00    -0.340 N 
ATOM     10  H   UNL     1       2.180  -3.794   1.704  0.00  0.00    +0.144 HD
ATOM     11  H   UNL     1       3.222  -4.844   0.907  0.00  0.00    +0.144 HD
BRANCH   8  12
ATOM     12  O   UNL     1       0.496  -6.061  -1.668  0.00  0.00    -0.408 OA
ATOM     13  H   UNL     1       0.719  -6.787  -2.267  0.00  0.00    +0.328 HD
ENDBRANCH   8  12
ENDBRANCH   2   7
BRANCH   4  14
ATOM     14  N   UNL     1      -3.606  -5.324   0.914  0.00  0.00    +0.058 N 
ATOM     15  O   UNL     1      -3.512  -6.528   0.959  0.00  0.00    -0.126 OA
ATOM     16  O   UNL     1      -4.686  -4.796   1.044  0.00  0.00    -0.126 OA
ENDBRANCH   4  14
BRANCH   1  17
ATOM     17  O   UNL     1       0.839  -2.069   0.120  0.00  0.00    -0.436 OA
BRANCH  17  22
ATOM     18  C   UNL     1      -0.785   1.154  -0.338  0.00  0.00    +0.004 A 
ATOM     19  C   UNL     1       0.194   2.006   0.140  0.00  0.00    +0.002 A 
ATOM     20  C   UNL     1       1.389   1.496   0.611  0.00  0.00    +0.024 A 
ATOM     21  C   UNL     1       1.608   0.130   0.606  0.00  0.00    +0.083 A 
ATOM     22  C   UNL     1       0.626  -0.727   0.127  0.00  0.00    +0.149 A 
ATOM     23  C   UNL     1      -0.571  -0.210  -0.345  0.00  0.00    +0.048 A 
ATOM     24 CL   UNL     1       3.109  -0.511   1.197  0.00  0.00    -0.080 Cl
ENDBRANCH  17  22
ENDBRANCH   1  17
TORSDOF 5
