REMARK  Name = ZINC36578545
REMARK  12 active torsions:
REMARK  status: ('A' for Active; 'I' for Inactive)
REMARK    1  A    between atoms: C_1  and  C_2
REMARK    2  A    between atoms: C_2  and  C_3
REMARK    3  A    between atoms: C_3  and  N_4
REMARK    4  A    between atoms: N_4  and  C_5
REMARK    5  A    between atoms: C_5  and  C_7
REMARK    6  A    between atoms: C_5  and  C_16
REMARK    7  A    between atoms: C_8  and  O_15
REMARK    8  A    between atoms: C_10  and  O_14
REMARK    9  A    between atoms: C_12  and  O_13
REMARK   10  A    between atoms: N_18  and  C_19
REMARK   11  A    between atoms: C_25  and  C_27
REMARK   12  A    between atoms: C_27  and  C_28
REMARK                            x       y       z     vdW  Elec       q    Type
REMARK                         _______ _______ _______ _____ _____    ______ ____
ROOT
ATOM      1  C   UNL     1      -1.436  -2.800   1.032  0.00  0.00    +0.199 C 
ENDROOT
BRANCH   1   2
ATOM      2  C   UNL     1      -0.336  -2.431   1.993  0.00  0.00    +0.065 A 
ATOM      3  C   UNL     1      -0.627  -2.220   3.332  0.00  0.00    +0.129 A 
ATOM      4  C   UNL     1       0.386  -1.879   4.216  0.00  0.00    +0.091 A 
ATOM      5  C   UNL     1       1.690  -1.752   3.761  0.00  0.00    +0.124 A 
ATOM      6  C   UNL     1       1.981  -1.964   2.422  0.00  0.00    +0.091 A 
ATOM      7  C   UNL     1       0.969  -2.308   1.539  0.00  0.00    +0.129 A 
BRANCH   7   8
ATOM      8  O   UNL     1       1.255  -2.521   0.227  0.00  0.00    -0.506 OA
ATOM      9  H   UNL     1       1.280  -1.714  -0.306  0.00  0.00    +0.292 HD
ENDBRANCH   7   8
BRANCH   5  10
ATOM     10  O   UNL     1       2.682  -1.417   4.628  0.00  0.00    -0.507 OA
ATOM     11  H   UNL     1       3.111  -2.176   5.046  0.00  0.00    +0.292 HD
ENDBRANCH   5  10
BRANCH   3  12
ATOM     12  O   UNL     1      -1.905  -2.345   3.778  0.00  0.00    -0.506 OA
ATOM     13  H   UNL     1      -2.104  -3.209   4.162  0.00  0.00    +0.292 HD
ENDBRANCH   3  12
ENDBRANCH   1   2
BRANCH   1  14
ATOM     14  C   UNL     1      -2.766  -2.717   1.735  0.00  0.00    +0.239 C 
ATOM     15  O   UNL     1      -3.473  -1.744   1.583  0.00  0.00    -0.273 OA
ATOM     16  N   UNL     1      -3.171  -3.726   2.533  0.00  0.00    -0.311 N 
ATOM     17  H   UNL     1      -2.605  -4.505   2.654  0.00  0.00    +0.149 HD
BRANCH  16  18
ATOM     18  C   UNL     1      -4.464  -3.645   3.217  0.00  0.00    +0.073 C 
ATOM     19  C   UNL     1      -4.301  -2.870   4.526  0.00  0.00    +0.022 C 
ATOM     20  C   UNL     1      -5.651  -2.786   5.240  0.00  0.00    +0.002 C 
ATOM     21  C   UNL     1      -6.157  -4.198   5.543  0.00  0.00    +0.000 C 
ATOM     22  C   UNL     1      -6.320  -4.973   4.234  0.00  0.00    +0.002 C 
ATOM     23  C   UNL     1      -4.969  -5.057   3.520  0.00  0.00    +0.022 C 
ENDBRANCH  16  18
ENDBRANCH   1  14
BRANCH   1  24
ATOM     24  N   UNL     1      -1.425  -1.874  -0.103  0.00  0.00    -0.286 N 
ATOM     25  C   UNL     1      -1.279  -2.345  -1.357  0.00  0.00    +0.216 C 
ATOM     26  O   UNL     1      -1.270  -1.578  -2.296  0.00  0.00    -0.276 OA
BRANCH  25  27
ATOM     27  C   UNL     1      -1.127  -3.826  -1.592  0.00  0.00    +0.092 C 
ATOM     28  C   UNL     1      -0.979  -4.092  -3.092  0.00  0.00    +0.013 C 
ENDBRANCH  25  27
BRANCH  24  29
ATOM     29  C   UNL     1      -1.573  -0.434   0.126  0.00  0.00    +0.108 C 
BRANCH  29  31
ATOM     30  C   UNL     1      -0.347   1.738   0.278  0.00  0.00    +0.005 C 
ATOM     31  C   UNL     1      -0.190   0.219   0.174  0.00  0.00    +0.016 C 
ENDBRANCH  29  31
ENDBRANCH  24  29
ENDBRANCH   1  24
TORSDOF 10
