REMARK  Name = ZINC36611880
REMARK  9 active torsions:
REMARK  status: ('A' for Active; 'I' for Inactive)
REMARK    1  A    between atoms: C_1  and  O_2
REMARK    2  A    between atoms: O_2  and  C_3
REMARK    3  A    between atoms: C_6  and  C_11
REMARK    4  A    between atoms: C_8  and  O_9
REMARK    5  A    between atoms: O_9  and  C_10
REMARK    6  A    between atoms: C_20  and  C_28
REMARK    7  A    between atoms: C_21  and  N_27
REMARK    8  A    between atoms: C_22  and  C_23
REMARK    9  A    between atoms: C_22  and  C_25
REMARK                            x       y       z     vdW  Elec       q    Type
REMARK                         _______ _______ _______ _____ _____    ______ ____
ROOT
ATOM      1  C   UNL     1       2.507  -2.501  -4.386  0.00  0.00    +0.085 C 
ATOM      2  C   UNL     1       3.927  -1.987  -4.511  0.00  0.00    -0.055 C 
ATOM      3  C   UNL     1       4.158  -0.835  -5.106  0.00  0.00    -0.029 C 
ATOM      4  C   UNL     1       5.528  -0.213  -5.230  0.00  0.00    +0.036 C 
ATOM      5  C   UNL     1       6.626  -1.273  -5.294  0.00  0.00    +0.005 C 
ATOM      6  C   UNL     1       7.116  -1.546  -3.869  0.00  0.00    +0.001 C 
ATOM      7  C   UNL     1       5.944  -2.050  -3.029  0.00  0.00    +0.004 C 
ATOM      8  C   UNL     1       5.024  -2.854  -3.951  0.00  0.00    +0.032 C 
ATOM      9  C   UNL     1       3.029  -0.093  -5.724  0.00  0.00    +0.074 C 
ATOM     10  C   UNL     1       1.856  -0.727  -5.983  0.00  0.00    +0.054 C 
ATOM     11  C   UNL     1       1.723  -2.191  -5.659  0.00  0.00    +0.191 C 
ENDROOT
BRANCH   1  15
ATOM     12  C   UNL     1       0.607  -0.608  -1.056  0.00  0.00    +0.162 A 
ATOM     13  C   UNL     1       1.407   0.131  -1.913  0.00  0.00    +0.050 A 
ATOM     14  C   UNL     1       2.020  -0.484  -2.989  0.00  0.00    +0.008 A 
ATOM     15  C   UNL     1       1.837  -1.836  -3.212  0.00  0.00    -0.034 A 
ATOM     16  C   UNL     1       1.040  -2.579  -2.361  0.00  0.00    +0.053 A 
ATOM     17  C   UNL     1       0.428  -1.970  -1.277  0.00  0.00    +0.162 A 
BRANCH  12  19
ATOM     18  C   UNL     1       0.233   1.397   0.169  0.00  0.00    +0.277 C 
ATOM     19  O   UNL     1       0.004  -0.004   0.003  0.00  0.00    -0.491 OA
ENDBRANCH  12  19
BRANCH  17  20
ATOM     20  O   UNL     1      -0.351  -2.700  -0.436  0.00  0.00    -0.491 OA
ATOM     21  C   UNL     1      -0.490  -4.093  -0.725  0.00  0.00    +0.277 C 
ENDBRANCH  17  20
ENDBRANCH   1  15
BRANCH  10  22
ATOM     22  N   UNL     1       0.808  -0.043  -6.533  0.00  0.00    -0.358 N 
ATOM     23  H   UNL     1       0.900   0.900  -6.740  0.00  0.00    +0.142 HD
ATOM     24  H   UNL     1      -0.027  -0.500  -6.716  0.00  0.00    +0.142 HD
ENDBRANCH  10  22
BRANCH  11  25
ATOM     25  C   UNL     1       2.256  -2.992  -6.773  0.00  0.00    +0.091 C 
ATOM     26  N   UNL     1       2.668  -3.610  -7.632  0.00  0.00    -0.194 NA
ENDBRANCH  11  25
BRANCH  11  27
ATOM     27  C   UNL     1       0.303  -2.517  -5.452  0.00  0.00    +0.091 C 
ATOM     28  N   UNL     1      -0.793  -2.769  -5.293  0.00  0.00    -0.194 NA
ENDBRANCH  11  27
BRANCH   9  29
ATOM     29  C   UNL     1       3.178   1.294  -6.048  0.00  0.00    +0.101 C 
ATOM     30  N   UNL     1       3.296   2.394  -6.304  0.00  0.00    -0.191 NA
ENDBRANCH   9  29
TORSDOF 7
