REMARK  Name = ZINC40126832
REMARK  10 active torsions:
REMARK  status: ('A' for Active; 'I' for Inactive)
REMARK    1  A    between atoms: C_1  and  C_2
REMARK    2  A    between atoms: C_2  and  O_3
REMARK    3  A    between atoms: O_3  and  C_4
REMARK    4  A    between atoms: C_6  and  C_11
REMARK    5  A    between atoms: C_9  and  O_10
REMARK    6  A    between atoms: C_13  and  C_19
REMARK    7  A    between atoms: C_19  and  C_21
REMARK    8  A    between atoms: C_25  and  O_27
REMARK    9  A    between atoms: O_27  and  C_28
REMARK   10  A    between atoms: C_28  and  C_29
REMARK                            x       y       z     vdW  Elec       q    Type
REMARK                         _______ _______ _______ _____ _____    ______ ____
ROOT
ATOM      1  C   UNL     1       0.107  -5.005   0.460  0.00  0.00    +0.142 C 
ATOM      2  C   UNL     1       0.992  -5.315   1.645  0.00  0.00    +0.076 C 
ATOM      3  C   UNL     1       1.051  -6.663   1.747  0.00  0.00    +0.249 C 
ATOM      4  C   UNL     1       0.236  -7.268   0.672  0.00  0.00    +0.285 C 
ATOM      5  O   UNL     1       0.087  -8.460   0.496  0.00  0.00    -0.267 OA
ATOM      6  N   UNL     1      -0.320  -6.300  -0.083  0.00  0.00    -0.298 N 
ATOM      7  O   UNL     1       1.745  -7.349   2.684  0.00  0.00    -0.282 OA
ATOM      8  H   UNL     1      -0.898  -6.435  -0.850  0.00  0.00    +0.150 HD
ENDROOT
BRANCH   1  11
ATOM      9  C   UNL     1       1.394  -2.168  -1.676  0.00  0.00    +0.162 A 
ATOM     10  C   UNL     1       0.683  -2.876  -0.721  0.00  0.00    +0.055 A 
ATOM     11  C   UNL     1       0.881  -4.237  -0.579  0.00  0.00    -0.019 A 
ATOM     12  C   UNL     1       1.790  -4.894  -1.388  0.00  0.00    +0.009 A 
ATOM     13  C   UNL     1       2.503  -4.194  -2.342  0.00  0.00    +0.049 A 
ATOM     14  C   UNL     1       2.304  -2.831  -2.494  0.00  0.00    +0.158 A 
BRANCH  14  15
ATOM     15  O   UNL     1       3.001  -2.141  -3.437  0.00  0.00    -0.503 OA
ATOM     16  H   UNL     1       3.844  -1.786  -3.122  0.00  0.00    +0.292 HD
ENDBRANCH  14  15
BRANCH   9  17
ATOM     17  O   UNL     1       1.200  -0.830  -1.817  0.00  0.00    -0.489 OA
BRANCH  17  19
ATOM     18  C   UNL     1       0.327   1.313  -1.119  0.00  0.00    +0.048 C 
ATOM     19  C   UNL     1       0.334  -0.197  -0.873  0.00  0.00    +0.226 C 
ENDBRANCH  17  19
ENDBRANCH   9  17
ENDBRANCH   1  11
BRANCH   2  20
ATOM     20  C   UNL     1       1.659  -4.342   2.515  0.00  0.00    +0.195 C 
ATOM     21  O   UNL     1       2.874  -4.274   2.533  0.00  0.00    -0.287 OA
BRANCH  20  22
ATOM     22  C   UNL     1       0.856  -3.444   3.373  0.00  0.00    +0.026 A 
ATOM     23  C   UNL     1      -0.534  -3.574   3.415  0.00  0.00    +0.012 A 
ATOM     24  C   UNL     1      -1.280  -2.735   4.216  0.00  0.00    +0.004 A 
ATOM     25  C   UNL     1      -0.656  -1.764   4.979  0.00  0.00    +0.046 A 
ATOM     26  C   UNL     1       0.725  -1.627   4.943  0.00  0.00    +0.122 A 
ATOM     27  C   UNL     1       1.484  -2.468   4.147  0.00  0.00    +0.057 A 
BRANCH  26  28
ATOM     28  O   UNL     1       1.332  -0.671   5.694  0.00  0.00    -0.487 OA
BRANCH  28  29
ATOM     29  C   UNL     1       0.488   0.157   6.497  0.00  0.00    +0.264 C 
BRANCH  29  30
ATOM     30  C   UNL     1       1.332   1.150   7.253  0.00  0.00    -0.010 A 
ATOM     31  C   UNL     1       1.824   0.827   8.504  0.00  0.00    +0.010 A 
ATOM     32  C   UNL     1       2.598   1.737   9.199  0.00  0.00    +0.039 A 
ATOM     33  C   UNL     1       2.881   2.972   8.642  0.00  0.00    +0.123 A 
ATOM     34  C   UNL     1       2.388   3.295   7.389  0.00  0.00    +0.039 A 
ATOM     35  C   UNL     1       1.618   2.381   6.694  0.00  0.00    +0.010 A 
ATOM     36  F   UNL     1       3.637   3.863   9.321  0.00  0.00    -0.205 F 
ENDBRANCH  29  30
ENDBRANCH  28  29
ENDBRANCH  26  28
ENDBRANCH  20  22
ENDBRANCH   2  20
TORSDOF 9
