REMARK  Name = ZINC39969871
REMARK  1 active torsions:
REMARK  status: ('A' for Active; 'I' for Inactive)
REMARK    1  A    between atoms: C_5  and  C_7
REMARK                            x       y       z     vdW  Elec       q    Type
REMARK                         _______ _______ _______ _____ _____    ______ ____
ROOT
ATOM      1  C   UNL     1       1.228  -2.186  -0.022  0.00  0.00    +0.050 C 
ATOM      2  C   UNL     1       0.490  -2.705  -1.260  0.00  0.00    +0.105 C 
ATOM      3  C   UNL     1       0.225  -4.177  -1.149  0.00  0.00    +0.219 C 
ATOM      4  O   UNL     1      -0.011  -4.795  -2.165  0.00  0.00    -0.275 OA
ATOM      5  N   UNL     1       0.235  -4.848   0.012  0.00  0.00    -0.273 N 
ATOM      6  C   UNL     1       0.571  -4.225   1.180  0.00  0.00    +0.117 C 
ATOM      7  N   UNL     1       0.938  -4.915   2.221  0.00  0.00    -0.205 NA
ATOM      8  C   UNL     1       1.383  -4.335   3.342  0.00  0.00    +0.206 C 
ATOM      9  N   UNL     1       1.519  -3.022   3.450  0.00  0.00    -0.147 NA
ATOM     10  C   UNL     1       1.149  -2.201   2.476  0.00  0.00    +0.250 C 
ATOM     11  O   UNL     1       1.330  -1.005   2.603  0.00  0.00    -0.273 OA
ATOM     12  C   UNL     1       0.514  -2.719   1.224  0.00  0.00    +0.149 C 
ATOM     13  N   UNL     1       1.707  -5.123   4.411  0.00  0.00    -0.329 N 
ATOM     14  H   UNL     1      -0.001  -5.789   0.022  0.00  0.00    +0.156 HD
ATOM     15  H   UNL     1       1.613  -6.087   4.349  0.00  0.00    +0.145 HD
ATOM     16  H   UNL     1       2.031  -4.719   5.231  0.00  0.00    +0.145 HD
ENDROOT
BRANCH   1  21
ATOM     17  C   UNL     1      -0.017   1.378   0.010  0.00  0.00    +0.000 A 
ATOM     18  C   UNL     1       1.171   2.087   0.002  0.00  0.00    +0.003 A 
ATOM     19  C   UNL     1       2.377   1.414  -0.013  0.00  0.00    +0.038 A 
ATOM     20  C   UNL     1       2.397   0.029  -0.021  0.00  0.00    +0.127 A 
ATOM     21  C   UNL     1       1.208  -0.679  -0.013  0.00  0.00    -0.008 A 
ATOM     22  C   UNL     1       0.002  -0.004   0.002  0.00  0.00    +0.007 A 
ATOM     23  F   UNL     1       3.577  -0.630  -0.036  0.00  0.00    -0.205 F 
ENDBRANCH   1  21
TORSDOF 1
