REMARK  Name = ZINC59038227
REMARK  16 active torsions:
REMARK  status: ('A' for Active; 'I' for Inactive)
REMARK    1  A    between atoms: C_1  and  C_2
REMARK    2  A    between atoms: C_2  and  C_3
REMARK    3  A    between atoms: C_3  and  C_4
REMARK    4  A    between atoms: C_4  and  N_5
REMARK    5  A    between atoms: N_5  and  C_6
REMARK    6  A    between atoms: C_7  and  N_18
REMARK    7  A    between atoms: N_8  and  C_15
REMARK    8  A    between atoms: C_15  and  C_16
REMARK    9  A    between atoms: C_16  and  C_17
REMARK   10  A    between atoms: C_19  and  C_21
REMARK   11  A    between atoms: C_21  and  N_22
REMARK   12  A    between atoms: N_22  and  C_23
REMARK   13  A    between atoms: N_22  and  C_24
REMARK   14  A    between atoms: C_24  and  C_26
REMARK   15  A    between atoms: C_24  and  C_27
REMARK   16  A    between atoms: C_30  and  C_33
REMARK                            x       y       z     vdW  Elec       q    Type
REMARK                         _______ _______ _______ _____ _____    ______ ____
ROOT
ATOM      1  N   UNL     1       1.420  -2.502  -2.465  0.00  0.00    -0.266 N 
ATOM      2  C   UNL     1       0.627  -2.825  -3.508  0.00  0.00    +0.203 C 
ATOM      3  O   UNL     1       1.109  -3.319  -4.506  0.00  0.00    -0.277 OA
ENDROOT
BRANCH   1   4
ATOM      4  C   UNL     1       2.820  -2.633  -2.576  0.00  0.00    +0.140 A 
ATOM      5  C   UNL     1       3.501  -3.555  -1.808  0.00  0.00    +0.127 A 
ATOM      6  N   UNL     1       4.867  -3.660  -1.938  0.00  0.00    -0.280 N 
ATOM      7  C   UNL     1       5.530  -2.873  -2.804  0.00  0.00    +0.331 A 
ATOM      8  O   UNL     1       6.737  -2.980  -2.904  0.00  0.00    -0.246 OA
ATOM      9  N   UNL     1       4.883  -1.969  -3.561  0.00  0.00    -0.273 N 
ATOM     10  H   UNL     1       5.385  -1.413  -4.178  0.00  0.00    +0.173 HD
ATOM     11  C   UNL     1       3.546  -1.830  -3.476  0.00  0.00    +0.277 A 
ATOM     12  O   UNL     1       2.968  -1.011  -4.170  0.00  0.00    -0.266 OA
BRANCH   5  13
ATOM     13  N   UNL     1       2.824  -4.359  -0.922  0.00  0.00    -0.343 N 
ATOM     14  H   UNL     1       1.872  -4.231  -0.782  0.00  0.00    +0.144 HD
ATOM     15  H   UNL     1       3.297  -5.053  -0.438  0.00  0.00    +0.144 HD
ENDBRANCH   5  13
BRANCH   6  16
ATOM     16  C   UNL     1       5.603  -4.634  -1.129  0.00  0.00    +0.128 C 
BRANCH  16  17
ATOM     17  C   UNL     1       5.684  -5.964  -1.881  0.00  0.00    +0.018 C 
ATOM     18  C   UNL     1       6.453  -6.982  -1.035  0.00  0.00    +0.005 C 
ENDBRANCH  16  17
ENDBRANCH   6  16
ENDBRANCH   1   4
BRANCH   1  19
ATOM     19  C   UNL     1       0.826  -2.014  -1.217  0.00  0.00    +0.114 C 
BRANCH  19  20
ATOM     20  C   UNL     1       0.816  -0.484  -1.221  0.00  0.00    +0.019 C 
BRANCH  20  22
ATOM     21  C   UNL     1       0.186   1.555   0.078  0.00  0.00    +0.004 C 
ATOM     22  C   UNL     1       0.196   0.025   0.082  0.00  0.00    -0.002 C 
ENDBRANCH  20  22
ENDBRANCH  19  20
ENDBRANCH   1  19
BRANCH   2  23
ATOM     23  C   UNL     1      -0.857  -2.572  -3.434  0.00  0.00    +0.020 C 
BRANCH  23  24
ATOM     24  N   UNL     1      -1.491  -3.007  -4.685  0.00  0.00    +0.388 N 
ATOM     25  C   UNL     1      -1.351  -4.463  -4.825  0.00  0.00    -0.095 C 
ATOM     26  H   UNL     1      -1.044  -2.550  -5.466  0.00  0.00    -0.081 HD
BRANCH  24  27
ATOM     27  C   UNL     1      -2.916  -2.652  -4.661  0.00  0.00    -0.041 C 
ATOM     28  C   UNL     1      -3.062  -1.136  -4.516  0.00  0.00    -0.008 C 
BRANCH  27  29
ATOM     29  C   UNL     1      -3.567  -3.098  -5.945  0.00  0.00    -0.061 A 
ATOM     30  C   UNL     1      -2.895  -2.959  -7.146  0.00  0.00    +0.002 A 
ATOM     31  C   UNL     1      -3.492  -3.368  -8.323  0.00  0.00    +0.003 A 
ATOM     32  C   UNL     1      -4.760  -3.917  -8.301  0.00  0.00    -0.050 A 
ATOM     33  C   UNL     1      -5.431  -4.058  -7.101  0.00  0.00    +0.003 A 
ATOM     34  C   UNL     1      -4.833  -3.652  -5.923  0.00  0.00    +0.002 A 
ATOM     35  C   UNL     1      -5.411  -4.363  -9.585  0.00  0.00    +0.044 C 
ENDBRANCH  27  29
ENDBRANCH  24  27
ENDBRANCH  23  24
ENDBRANCH   2  23
TORSDOF 11
