REMARK  Name = ZINC16088937
REMARK  7 active torsions:
REMARK  status: ('A' for Active; 'I' for Inactive)
REMARK    1  A    between atoms: C_1  and  C_2
REMARK    2  A    between atoms: C_5  and  N_21
REMARK    3  A    between atoms: C_7  and  S_8
REMARK    4  A    between atoms: S_8  and  N_11
REMARK    5  A    between atoms: N_11  and  C_12
REMARK    6  A    between atoms: C_12  and  C_14
REMARK    7  A    between atoms: C_12  and  C_15
REMARK                            x       y       z     vdW  Elec       q    Type
REMARK                         _______ _______ _______ _____ _____    ______ ____
ROOT
ATOM      1  S   UNL     1      -5.069   0.831  -0.143  0.00  0.00    +0.059 S 
ATOM      2  O   UNL     1      -5.808   1.402  -1.214  0.00  0.00    -0.153 OA
ATOM      3  O   UNL     1      -4.540  -0.487  -0.198  0.00  0.00    -0.153 OA
ENDROOT
BRANCH   1  10
ATOM      4  C   UNL     1      -2.978   0.369   1.993  0.00  0.00    +0.046 C 
ATOM      5  C   UNL     1      -2.800   1.612   1.159  0.00  0.00    -0.024 A 
ATOM      6  C   UNL     1      -1.732   2.456   1.396  0.00  0.00    +0.007 A 
ATOM      7  C   UNL     1      -1.566   3.594   0.628  0.00  0.00    +0.033 A 
ATOM      8  C   UNL     1      -2.476   3.892  -0.369  0.00  0.00    +0.128 A 
ATOM      9  C   UNL     1      -3.544   3.048  -0.606  0.00  0.00    +0.061 A 
ATOM     10  C   UNL     1      -3.707   1.908   0.159  0.00  0.00    +0.110 A 
BRANCH   8  11
ATOM     11  N   UNL     1      -2.302   5.113  -1.188  0.00  0.00    +0.056 N 
ATOM     12  O   UNL     1      -3.101   5.374  -2.070  0.00  0.00    -0.126 OA
ATOM     13  O   UNL     1      -1.363   5.860  -0.976  0.00  0.00    -0.126 OA
ENDBRANCH   8  11
ENDBRANCH   1  10
BRANCH   1  14
ATOM     14  N   UNL     1      -6.047   0.894   1.192  0.00  0.00    -0.183 NA
ATOM     15  H   UNL     1      -6.155   0.108   1.751  0.00  0.00    +0.149 HD
BRANCH  14  16
ATOM     16  C   UNL     1      -6.749   2.135   1.528  0.00  0.00    +0.103 C 
ATOM     17  C   UNL     1      -5.931   2.921   2.554  0.00  0.00    +0.031 C 
BRANCH  16  18
ATOM     18  C   UNL     1      -8.100   1.806   2.109  0.00  0.00    -0.029 A 
ATOM     19  C   UNL     1      -8.239   0.739   2.977  0.00  0.00    +0.005 A 
ATOM     20  C   UNL     1      -9.477   0.440   3.513  0.00  0.00    +0.000 A 
ATOM     21  C   UNL     1     -10.579   1.202   3.173  0.00  0.00    +0.000 A 
ATOM     22  C   UNL     1     -10.442   2.265   2.300  0.00  0.00    +0.000 A 
ATOM     23  C   UNL     1      -9.203   2.567   1.768  0.00  0.00    +0.005 A 
ENDBRANCH  16  18
ENDBRANCH  14  16
ENDBRANCH   1  14
TORSDOF 5
