REMARK  Name = ZINC17109959
REMARK  3 active torsions:
REMARK  status: ('A' for Active; 'I' for Inactive)
REMARK    1  A    between atoms: C_1  and  C_2
REMARK    2  A    between atoms: C_2  and  C_11
REMARK    3  A    between atoms: C_8  and  C_9
REMARK                            x       y       z     vdW  Elec       q    Type
REMARK                         _______ _______ _______ _____ _____    ______ ____
ROOT
ATOM      1  C   UNL     1      -0.013   1.086   0.008  0.00  0.00    +0.019 C 
ATOM      2  C   UNL     1      -0.729   1.579   1.267  0.00  0.00    +0.032 C 
ATOM      3  C   UNL     1      -0.679   3.114   1.348  0.00  0.00    +0.243 C 
ATOM      4  O   UNL     1       0.040   3.440   2.565  0.00  0.00    -0.460 OA
ATOM      5  C   UNL     1       0.425   2.336   3.218  0.00  0.00    +0.336 C 
ATOM      6  O   UNL     1       1.044   2.340   4.264  0.00  0.00    -0.245 OA
ATOM      7  C   UNL     1       0.006   1.120   2.510  0.00  0.00    +0.055 C 
ATOM      8  C   UNL     1       0.229  -0.153   2.890  0.00  0.00    +0.100 C 
ATOM      9  C   UNL     1      -2.177   1.085   1.286  0.00  0.00    +0.019 C 
ENDROOT
BRANCH   8  10
ATOM     10  C   UNL     1      -0.249  -1.236   2.084  0.00  0.00    +0.092 C 
ATOM     11  N   UNL     1      -0.628  -2.095   1.445  0.00  0.00    -0.191 NA
ENDBRANCH   8  10
TORSDOF 1
