REMARK  Name = ZINC00848839
REMARK  12 active torsions:
REMARK  status: ('A' for Active; 'I' for Inactive)
REMARK    1  A    between atoms: C_1  and  C_2
REMARK    2  A    between atoms: C_2  and  N_3
REMARK    3  A    between atoms: C_7  and  C_9
REMARK    4  A    between atoms: C_9  and  N_10
REMARK    5  A    between atoms: C_11  and  C_13
REMARK    6  A    between atoms: C_15  and  N_24
REMARK    7  A    between atoms: C_16  and  N_21
REMARK    8  A    between atoms: C_18  and  O_19
REMARK    9  A    between atoms: O_19  and  C_20
REMARK   10  A    between atoms: N_21  and  C_22
REMARK   11  A    between atoms: N_21  and  C_23
REMARK   12  A    between atoms: C_25  and  C_27
REMARK                            x       y       z     vdW  Elec       q    Type
REMARK                         _______ _______ _______ _____ _____    ______ ____
ROOT
ATOM      1  C   UNL     1      -1.584  -1.274   4.931  0.00  0.00    +0.080 A 
ATOM      2  C   UNL     1      -0.507  -0.389   4.802  0.00  0.00    +0.042 A 
ATOM      3  C   UNL     1       0.004   0.240   5.918  0.00  0.00    +0.056 A 
ATOM      4  C   UNL     1      -0.553  -0.005   7.178  0.00  0.00    +0.054 A 
ATOM      5  C   UNL     1      -1.620  -0.882   7.311  0.00  0.00    +0.071 A 
ATOM      6  C   UNL     1      -2.143  -1.512   6.195  0.00  0.00    +0.134 A 
ENDROOT
BRANCH   3   7
ATOM      7  N   UNL     1       1.083   1.128   5.790  0.00  0.00    -0.284 N 
ATOM      8  C   UNL     1       2.042   0.895   4.872  0.00  0.00    +0.214 C 
ATOM      9  O   UNL     1       1.930  -0.036   4.102  0.00  0.00    -0.276 OA
ATOM     10  C   UNL     1       3.252   1.790   4.802  0.00  0.00    +0.109 C 
ATOM     11  H   UNL     1       1.140   1.909   6.363  0.00  0.00    +0.155 HD
ENDBRANCH   3   7
BRANCH   1  13
ATOM     12  N   UNL     1      -1.593  -1.717   2.529  0.00  0.00    -0.313 N 
ATOM     13  C   UNL     1      -2.132  -1.948   3.742  0.00  0.00    +0.248 C 
ATOM     14  O   UNL     1      -3.071  -2.712   3.856  0.00  0.00    -0.270 OA
ATOM     15  H   UNL     1      -0.844  -1.107   2.438  0.00  0.00    +0.149 HD
BRANCH  12  16
ATOM     16  C   UNL     1      -2.139  -2.388   1.346  0.00  0.00    +0.089 C 
BRANCH  16  21
ATOM     17  N   UNL     1      -1.358  -0.484  -0.003  0.00  0.00    +0.382 N 
ATOM     18  C   UNL     1      -2.026  -0.109  -1.267  0.00  0.00    -0.078 C 
ATOM     19  C   UNL     1      -1.869  -1.349  -2.182  0.00  0.00    -0.020 C 
ATOM     20  C   UNL     1      -2.029  -2.510  -1.165  0.00  0.00    -0.016 C 
ATOM     21  C   UNL     1      -1.353  -1.955   0.106  0.00  0.00    -0.051 C 
ATOM     22  H   UNL     1      -1.862  -0.088   0.776  0.00  0.00    -0.081 HD
BRANCH  17  24
ATOM     23  C   UNL     1       0.011   1.546   0.006  0.00  0.00    -0.017 C 
ATOM     24  C   UNL     1       0.023   0.017  -0.006  0.00  0.00    -0.082 C 
ENDBRANCH  17  24
ENDBRANCH  16  21
ENDBRANCH  12  16
ENDBRANCH   1  13
BRANCH   4  25
ATOM     25  N   UNL     1      -0.034   0.631   8.303  0.00  0.00    -0.334 N 
ATOM     26  C   UNL     1       1.049   0.005   9.065  0.00  0.00    +0.129 C 
ATOM     27  C   UNL     1      -0.571   1.928   8.724  0.00  0.00    +0.129 C 
ENDBRANCH   4  25
BRANCH   6  28
ATOM     28  O   UNL     1      -3.191  -2.365   6.325  0.00  0.00    -0.494 OA
ATOM     29  C   UNL     1      -3.709  -2.560   7.642  0.00  0.00    +0.277 C 
ENDBRANCH   6  28
TORSDOF 7
