REMARK  Name = ZINC38651294
REMARK  6 active torsions:
REMARK  status: ('A' for Active; 'I' for Inactive)
REMARK    1  A    between atoms: C_6  and  C_7
REMARK    2  A    between atoms: C_12  and  O_21
REMARK    3  A    between atoms: C_16  and  N_20
REMARK    4  A    between atoms: C_17  and  C_18
REMARK    5  A    between atoms: O_21  and  C_22
REMARK    6  A    between atoms: C_22  and  C_24
REMARK                            x       y       z     vdW  Elec       q    Type
REMARK                         _______ _______ _______ _____ _____    ______ ____
ROOT
ATOM      1  C   UNL     1      -1.335  -0.732  -0.016  0.00  0.00    +0.098 C 
ATOM      2  C   UNL     1      -1.403  -1.597  -1.247  0.00  0.00    +0.008 A 
ATOM      3  C   UNL     1      -1.804  -1.039  -2.448  0.00  0.00    +0.012 A 
ATOM      4  C   UNL     1      -1.874  -1.817  -3.587  0.00  0.00    +0.047 A 
ATOM      5  C   UNL     1      -1.540  -3.163  -3.530  0.00  0.00    +0.135 A 
ATOM      6  C   UNL     1      -1.138  -3.724  -2.329  0.00  0.00    +0.093 A 
ATOM      7  C   UNL     1      -1.068  -2.940  -1.184  0.00  0.00    +0.138 A 
ATOM      8  O   UNL     1      -0.673  -3.504  -0.016  0.00  0.00    -0.441 OA
ATOM      9  C   UNL     1      -0.961  -2.902   1.150  0.00  0.00    +0.199 C 
ATOM     10  C   UNL     1      -1.281  -1.591   1.216  0.00  0.00    +0.098 C 
ENDROOT
BRANCH   1  16
ATOM     11  C   UNL     1      -0.217   1.506  -0.075  0.00  0.00    +0.006 A 
ATOM     12  C   UNL     1       0.916   2.296  -0.132  0.00  0.00    +0.020 A 
ATOM     13  C   UNL     1       2.167   1.709  -0.193  0.00  0.00    +0.041 A 
ATOM     14  C   UNL     1       2.283   0.330  -0.197  0.00  0.00    +0.020 A 
ATOM     15  C   UNL     1       1.150  -0.459  -0.140  0.00  0.00    +0.006 A 
ATOM     16  C   UNL     1      -0.100   0.129  -0.079  0.00  0.00    -0.035 A 
ATOM     17 CL   UNL     1       3.590   2.701  -0.265  0.00  0.00    -0.084 Cl
ENDBRANCH   1  16
BRANCH   9  18
ATOM     18  N   UNL     1      -0.927  -3.640   2.307  0.00  0.00    -0.328 N 
ATOM     19  H   UNL     1      -0.698  -4.582   2.274  0.00  0.00    +0.145 HD
ATOM     20  H   UNL     1      -1.132  -3.220   3.156  0.00  0.00    +0.145 HD
ENDBRANCH   9  18
BRANCH  10  21
ATOM     21  C   UNL     1      -1.575  -1.009   2.491  0.00  0.00    +0.101 C 
ATOM     22  N   UNL     1      -1.809  -0.548   3.502  0.00  0.00    -0.191 NA
ENDBRANCH  10  21
BRANCH   5  23
ATOM     23  O   UNL     1      -1.608  -3.929  -4.650  0.00  0.00    -0.422 OA
BRANCH  23  24
ATOM     24  C   UNL     1      -0.711  -3.700  -5.629  0.00  0.00    +0.344 C 
ATOM     25  O   UNL     1       0.189  -2.903  -5.454  0.00  0.00    -0.245 OA
BRANCH  24  26
ATOM     26  C   UNL     1      -0.822  -4.417  -6.915  0.00  0.00    +0.059 A 
ATOM     27  C   UNL     1      -1.859  -5.330  -7.121  0.00  0.00    +0.016 A 
ATOM     28  C   UNL     1      -1.957  -5.997  -8.324  0.00  0.00    +0.021 A 
ATOM     29  C   UNL     1      -1.030  -5.763  -9.326  0.00  0.00    +0.041 A 
ATOM     30  C   UNL     1       0.001  -4.860  -9.127  0.00  0.00    +0.021 A 
ATOM     31  C   UNL     1       0.106  -4.182  -7.931  0.00  0.00    +0.016 A 
ATOM     32 CL   UNL     1      -1.160  -6.607 -10.838  0.00  0.00    -0.084 Cl
ENDBRANCH  24  26
ENDBRANCH  23  24
ENDBRANCH   5  23
TORSDOF 6
