REMARK  Name = ZINC41011839
REMARK  5 active torsions:
REMARK  status: ('A' for Active; 'I' for Inactive)
REMARK    1  A    between atoms: C_4  and  C_6
REMARK    2  A    between atoms: C_6  and  N_7
REMARK    3  A    between atoms: N_7  and  S_8
REMARK    4  A    between atoms: S_8  and  C_11
REMARK    5  A    between atoms: C_12  and  N_19
REMARK                            x       y       z     vdW  Elec       q    Type
REMARK                         _______ _______ _______ _____ _____    ______ ____
ROOT
ATOM      1  S   UNL     1       2.404  -4.950  -1.993  0.00  0.00    +0.062 S 
ATOM      2  O   UNL     1       2.352  -5.467  -3.315  0.00  0.00    -0.153 OA
ATOM      3  O   UNL     1       3.547  -5.099  -1.161  0.00  0.00    -0.153 OA
ENDROOT
BRANCH   1   4
ATOM      4  C   UNL     1       1.049  -5.660  -1.120  0.00  0.00    +0.140 A 
ATOM      5  C   UNL     1       1.115  -5.817   0.259  0.00  0.00    +0.053 A 
ATOM      6  C   UNL     1       0.045  -6.377   0.944  0.00  0.00    +0.040 A 
ATOM      7  C   UNL     1      -1.083  -6.777   0.253  0.00  0.00    +0.021 A 
ATOM      8  C   UNL     1      -1.147  -6.620  -1.121  0.00  0.00    +0.032 A 
ATOM      9  C   UNL     1      -0.084  -6.057  -1.805  0.00  0.00    +0.047 A 
ATOM     10 BR   UNL     1      -0.178  -5.836  -3.681  0.00  0.00    -0.048 Br
ATOM     11 BR   UNL     1      -2.541  -7.540   1.184  0.00  0.00    -0.050 Br
BRANCH   5  12
ATOM     12  N   UNL     1       2.257  -5.413   0.955  0.00  0.00    -0.356 N 
ATOM     13  H   UNL     1       2.832  -4.724   0.586  0.00  0.00    +0.142 HD
ATOM     14  H   UNL     1       2.475  -5.821   1.807  0.00  0.00    +0.142 HD
ENDBRANCH   5  12
ENDBRANCH   1   4
BRANCH   1  15
ATOM     15  N   UNL     1       2.113  -3.324  -2.109  0.00  0.00    -0.184 NA
ATOM     16  H   UNL     1       1.968  -2.918  -2.978  0.00  0.00    +0.148 HD
BRANCH  15  17
ATOM     17  C   UNL     1       2.075  -2.498  -0.899  0.00  0.00    +0.168 C 
BRANCH  17  21
ATOM     18  C   UNL     1       1.431   1.045  -1.873  0.00  0.00    +0.119 A 
ATOM     19  C   UNL     1       2.731   1.433  -1.910  0.00  0.00    +0.066 A 
ATOM     20  S   UNL     1       3.543  -0.093  -1.464  0.00  0.00    -0.079 S 
ATOM     21  C   UNL     1       2.166  -1.043  -1.281  0.00  0.00    +0.094 A 
ATOM     22  N   UNL     1       1.191  -0.211  -1.551  0.00  0.00    -0.251 NA
ENDBRANCH  17  21
ENDBRANCH  15  17
ENDBRANCH   1  15
TORSDOF 5
