REMARK  Name = ZINC67258062
REMARK  6 active torsions:
REMARK  status: ('A' for Active; 'I' for Inactive)
REMARK    1  A    between atoms: C_1  and  C_2
REMARK    2  A    between atoms: C_2  and  C_3
REMARK    3  A    between atoms: C_2  and  C_4
REMARK    4  A    between atoms: C_2  and  N_11
REMARK    5  A    between atoms: N_14  and  C_15
REMARK    6  A    between atoms: C_20  and  N_21
REMARK                            x       y       z     vdW  Elec       q    Type
REMARK                         _______ _______ _______ _____ _____    ______ ____
ROOT
ATOM      1  N   UNL     1       0.468  -0.503  -1.236  0.00  0.00    -0.290 N 
ATOM      2  C   UNL     1       1.771  -0.395  -1.564  0.00  0.00    +0.305 C 
ATOM      3  O   UNL     1       2.543   0.165  -0.811  0.00  0.00    -0.252 OA
ATOM      4  N   UNL     1       2.218  -0.908  -2.728  0.00  0.00    -0.268 N 
ATOM      5  H   UNL     1      -0.148  -0.951  -1.837  0.00  0.00    +0.151 HD
ATOM      6  H   UNL     1       1.593  -1.308  -3.353  0.00  0.00    +0.156 HD
ENDROOT
BRANCH   4   7
ATOM      7  C   UNL     1       3.583  -0.864  -3.034  0.00  0.00    +0.060 A 
ATOM      8  C   UNL     1       4.350   0.224  -2.640  0.00  0.00    +0.025 A 
ATOM      9  C   UNL     1       5.697   0.265  -2.943  0.00  0.00    +0.002 A 
ATOM     10  C   UNL     1       6.286  -0.775  -3.639  0.00  0.00    +0.002 A 
ATOM     11  C   UNL     1       5.530  -1.862  -4.035  0.00  0.00    +0.030 A 
ATOM     12  C   UNL     1       4.178  -1.915  -3.730  0.00  0.00    +0.088 A 
BRANCH  12  13
ATOM     13  N   UNL     1       3.410  -3.020  -4.127  0.00  0.00    -0.218 N 
ATOM     14  C   UNL     1       3.859  -4.146  -4.715  0.00  0.00    +0.225 A 
ATOM     15  N   UNL     1       2.832  -4.930  -4.923  0.00  0.00    -0.222 NA
ATOM     16  C   UNL     1       1.719  -4.344  -4.485  0.00  0.00    +0.245 A 
ATOM     17  N   UNL     1       2.022  -3.175  -3.984  0.00  0.00    -0.153 NA
ENDBRANCH  12  13
ENDBRANCH   4   7
BRANCH   1  19
ATOM     18  C   UNL     1       0.186   1.571   0.029  0.00  0.00    +0.036 C 
ATOM     19  C   UNL     1      -0.017   0.054   0.029  0.00  0.00    +0.056 C 
ATOM     20  C   UNL     1       0.761  -0.565   1.191  0.00  0.00    +0.036 C 
BRANCH  19  21
ATOM     21  C   UNL     1      -1.484  -0.256   0.184  0.00  0.00    -0.025 A 
ATOM     22  C   UNL     1      -2.012  -0.486   1.441  0.00  0.00    +0.007 A 
ATOM     23  C   UNL     1      -3.356  -0.771   1.585  0.00  0.00    +0.020 A 
ATOM     24  C   UNL     1      -4.174  -0.826   0.470  0.00  0.00    +0.041 A 
ATOM     25  C   UNL     1      -3.645  -0.596  -0.788  0.00  0.00    +0.020 A 
ATOM     26  C   UNL     1      -2.301  -0.306  -0.929  0.00  0.00    +0.007 A 
ATOM     27 CL   UNL     1      -5.863  -1.184   0.649  0.00  0.00    -0.084 Cl
ENDBRANCH  19  21
ENDBRANCH   1  19
TORSDOF 4
