REMARK  Name = ZINC46266076
REMARK  6 active torsions:
REMARK  status: ('A' for Active; 'I' for Inactive)
REMARK    1  A    between atoms: C_1  and  C_2
REMARK    2  A    between atoms: C_2  and  C_23
REMARK    3  A    between atoms: N_5  and  C_9
REMARK    4  A    between atoms: C_9  and  C_10
REMARK    5  A    between atoms: N_12  and  C_13
REMARK    6  A    between atoms: C_17  and  C_19
REMARK                            x       y       z     vdW  Elec       q    Type
REMARK                         _______ _______ _______ _____ _____    ______ ____
ROOT
ATOM      1  C   UNL     1      -2.566  -1.989   1.811  0.00  0.00    +0.214 C 
ENDROOT
BRANCH   1   6
ATOM      2  C   UNL     1      -0.021   1.530   0.019  0.00  0.00    +0.047 C 
ATOM      3  C   UNL     1      -0.002  -0.000   0.003  0.00  0.00    +0.135 C 
ATOM      4  C   UNL     1      -1.406  -0.552   0.145  0.00  0.00    +0.251 C 
ATOM      5  O   UNL     1      -2.340  -0.382  -0.609  0.00  0.00    -0.272 OA
ATOM      6  N   UNL     1      -1.401  -1.273   1.285  0.00  0.00    -0.215 N 
ATOM      7  C   UNL     1      -0.201  -1.252   1.876  0.00  0.00    +0.310 C 
ATOM      8  O   UNL     1       0.050  -1.829   2.916  0.00  0.00    -0.252 OA
ATOM      9  N   UNL     1       0.697  -0.522   1.190  0.00  0.00    -0.281 N 
ATOM     10  H   UNL     1       1.624  -0.370   1.431  0.00  0.00    +0.152 HD
BRANCH   3  11
ATOM     11  C   UNL     1       0.646  -0.508  -1.259  0.00  0.00    -0.016 A 
ATOM     12  C   UNL     1      -0.125  -0.756  -2.380  0.00  0.00    +0.006 A 
ATOM     13  C   UNL     1       0.469  -1.222  -3.538  0.00  0.00    +0.000 A 
ATOM     14  C   UNL     1       1.834  -1.438  -3.576  0.00  0.00    +0.000 A 
ATOM     15  C   UNL     1       2.604  -1.189  -2.456  0.00  0.00    +0.000 A 
ATOM     16  C   UNL     1       2.011  -0.719  -1.299  0.00  0.00    +0.006 A 
ENDBRANCH   3  11
ENDBRANCH   1   6
BRANCH   1  17
ATOM     17  C   UNL     1      -2.586  -3.391   1.259  0.00  0.00    +0.235 C 
ATOM     18  O   UNL     1      -1.712  -3.756   0.500  0.00  0.00    -0.274 OA
ATOM     19  N   UNL     1      -3.573  -4.239   1.608  0.00  0.00    -0.284 N 
ATOM     20  H   UNL     1      -4.233  -3.970   2.266  0.00  0.00    +0.155 HD
BRANCH  19  21
ATOM     21  C   UNL     1      -3.646  -5.508   1.020  0.00  0.00    +0.034 A 
ATOM     22  C   UNL     1      -2.480  -6.196   0.706  0.00  0.00    +0.026 A 
ATOM     23  C   UNL     1      -2.544  -7.448   0.127  0.00  0.00    +0.041 A 
ATOM     24  C   UNL     1      -3.771  -8.027  -0.145  0.00  0.00    +0.136 A 
ATOM     25  C   UNL     1      -4.950  -7.342   0.168  0.00  0.00    +0.073 A 
ATOM     26  C   UNL     1      -4.880  -6.079   0.759  0.00  0.00    +0.039 A 
ATOM     27  F   UNL     1      -3.831  -9.251  -0.712  0.00  0.00    -0.205 F 
BRANCH  25  28
ATOM     28  C   UNL     1      -6.262  -7.955  -0.120  0.00  0.00    +0.244 C 
ATOM     29  O   UNL     1      -6.319  -9.057  -0.631  0.00  0.00    -0.270 OA
ATOM     30  N   UNL     1      -7.396  -7.293   0.183  0.00  0.00    -0.325 N 
ATOM     31  H   UNL     1      -7.351  -6.414   0.590  0.00  0.00    +0.145 HD
ATOM     32  H   UNL     1      -8.258  -7.695  -0.007  0.00  0.00    +0.145 HD
ENDBRANCH  25  28
ENDBRANCH  19  21
ENDBRANCH   1  17
TORSDOF 5
