REMARK  Name = ZINC36887636
REMARK  5 active torsions:
REMARK  status: ('A' for Active; 'I' for Inactive)
REMARK    1  A    between atoms: C_1  and  C_2
REMARK    2  A    between atoms: N_5  and  C_11
REMARK    3  A    between atoms: C_7  and  C_10
REMARK    4  A    between atoms: C_14  and  C_18
REMARK    5  A    between atoms: N_19  and  O_20
REMARK                            x       y       z     vdW  Elec       q    Type
REMARK                         _______ _______ _______ _____ _____    ______ ____
ROOT
ATOM      1  C   UNL     1      -2.093  -2.847  -0.655  0.00  0.00    +0.066 A 
ATOM      2  C   UNL     1      -1.485  -3.335  -1.807  0.00  0.00    +0.027 A 
ATOM      3  C   UNL     1      -2.178  -4.177  -2.650  0.00  0.00    +0.013 A 
ATOM      4  C   UNL     1      -3.492  -4.540  -2.348  0.00  0.00    +0.021 A 
ATOM      5  C   UNL     1      -4.101  -4.049  -1.192  0.00  0.00    +0.051 A 
ATOM      6  C   UNL     1      -3.402  -3.212  -0.348  0.00  0.00    +0.145 A 
ATOM      7  F   UNL     1      -3.988  -2.741   0.774  0.00  0.00    -0.204 F 
ENDROOT
BRANCH   1  11
ATOM      8  C   UNL     1      -0.019   1.526   0.010  0.00  0.00    +0.039 C 
ATOM      9  C   UNL     1       0.002  -0.004   0.002  0.00  0.00    +0.133 C 
ATOM     10  C   UNL     1      -1.436  -0.536   0.015  0.00  0.00    +0.136 C 
ATOM     11  N   UNL     1      -1.389  -1.995   0.196  0.00  0.00    -0.323 N 
ATOM     12  C   UNL     1      -0.578  -2.530   1.302  0.00  0.00    +0.136 C 
ATOM     13  C   UNL     1       0.818  -1.901   1.226  0.00  0.00    +0.133 C 
ATOM     14  O   UNL     1       0.691  -0.479   1.161  0.00  0.00    -0.371 OA
ATOM     15  C   UNL     1       1.539  -2.407  -0.025  0.00  0.00    +0.039 C 
ENDBRANCH   1  11
BRANCH   4  16
ATOM     16  C   UNL     1      -4.237  -5.443  -3.252  0.00  0.00    +0.162 C 
ATOM     17  N   UNL     1      -3.668  -5.899  -4.330  0.00  0.00    -0.072 NA
ATOM     18  N   UNL     1      -5.540  -5.802  -2.952  0.00  0.00    -0.340 N 
ATOM     19  H   UNL     1      -5.964  -5.462  -2.148  0.00  0.00    +0.144 HD
ATOM     20  H   UNL     1      -6.029  -6.394  -3.545  0.00  0.00    +0.144 HD
BRANCH  17  21
ATOM     21  O   UNL     1      -4.381  -6.763  -5.195  0.00  0.00    -0.408 OA
ATOM     22  H   UNL     1      -3.877  -7.050  -5.969  0.00  0.00    +0.328 HD
ENDBRANCH  17  21
ENDBRANCH   4  16
TORSDOF 3
