REMARK  Name = ZINC49548306
REMARK  9 active torsions:
REMARK  status: ('A' for Active; 'I' for Inactive)
REMARK    1  A    between atoms: C_1  and  C_2
REMARK    2  A    between atoms: C_2  and  C_3
REMARK    3  A    between atoms: C_3  and  C_4
REMARK    4  A    between atoms: C_4  and  C_6
REMARK    5  A    between atoms: C_4  and  N_11
REMARK    6  A    between atoms: N_11  and  S_12
REMARK    7  A    between atoms: S_12  and  C_15
REMARK    8  A    between atoms: C_18  and  C_20
REMARK    9  A    between atoms: C_20  and  N_21
REMARK                            x       y       z     vdW  Elec       q    Type
REMARK                         _______ _______ _______ _____ _____    ______ ____
ROOT
ATOM      1  S   UNL     1       1.111  -3.897  -0.702  0.00  0.00    +0.065 S 
ATOM      2  O   UNL     1       2.042  -4.071  -1.762  0.00  0.00    -0.153 OA
ATOM      3  O   UNL     1       0.899  -4.887   0.295  0.00  0.00    -0.153 OA
ENDROOT
BRANCH   1   4
ATOM      4  C   UNL     1      -0.454  -3.594  -1.452  0.00  0.00    +0.143 A 
ATOM      5  C   UNL     1      -0.729  -3.107  -2.687  0.00  0.00    +0.036 A 
ATOM      6  C   UNL     1      -2.049  -2.951  -3.067  0.00  0.00    +0.011 A 
ATOM      7  C   UNL     1      -3.029  -3.290  -2.193  0.00  0.00    -0.026 A 
ATOM      8  S   UNL     1      -2.089  -3.856  -0.785  0.00  0.00    -0.075 S 
BRANCH   7   9
ATOM      9  C   UNL     1      -4.524  -3.214  -2.368  0.00  0.00    -0.043 C 
BRANCH   9  10
ATOM     10  N   UNL     1      -5.016  -4.478  -2.932  0.00  0.00    +0.381 N 
ATOM     11  H   UNL     1      -4.580  -4.639  -3.828  0.00  0.00    -0.090 HD
ATOM     12  H   UNL     1      -4.789  -5.236  -2.306  0.00  0.00    -0.090 HD
ATOM     13  H   UNL     1      -6.017  -4.427  -3.049  0.00  0.00    -0.090 HD
ENDBRANCH   9  10
ENDBRANCH   7   9
ENDBRANCH   1   4
BRANCH   1  14
ATOM     14  N   UNL     1       1.551  -2.512   0.092  0.00  0.00    -0.182 NA
ATOM     15  H   UNL     1       2.330  -2.013  -0.199  0.00  0.00    +0.149 HD
BRANCH  14  16
ATOM     16  C   UNL     1       0.763  -2.041   1.233  0.00  0.00    +0.113 C 
BRANCH  16  17
ATOM     17  C   UNL     1       1.382  -2.542   2.512  0.00  0.00    +0.008 A 
ATOM     18  C   UNL     1       0.774  -3.018   3.626  0.00  0.00    +0.013 A 
ATOM     19  C   UNL     1       1.553  -3.428   4.692  0.00  0.00    +0.008 A 
ATOM     20  C   UNL     1       2.902  -3.340   4.593  0.00  0.00    +0.045 A 
ATOM     21  S   UNL     1       3.108  -2.669   2.951  0.00  0.00    -0.100 S 
ENDBRANCH  16  17
BRANCH  16  22
ATOM     22  C   UNL     1       0.742  -0.511   1.242  0.00  0.00    +0.025 C 
BRANCH  22  24
ATOM     23  C   UNL     1      -0.019   1.526   0.010  0.00  0.00    +0.004 C 
ATOM     24  C   UNL     1       0.002  -0.004   0.002  0.00  0.00    -0.001 C 
ENDBRANCH  22  24
ENDBRANCH  16  22
ENDBRANCH  14  16
ENDBRANCH   1  14
TORSDOF 8
