REMARK  Name = ZINC06300822
REMARK  7 active torsions:
REMARK  status: ('A' for Active; 'I' for Inactive)
REMARK    1  A    between atoms: C_1  and  C_2
REMARK    2  A    between atoms: C_4  and  C_33
REMARK    3  A    between atoms: C_9  and  C_14
REMARK    4  A    between atoms: C_14  and  C_16
REMARK    5  A    between atoms: C_14  and  N_57
REMARK    6  A    between atoms: N_20  and  C_21
REMARK    7  A    between atoms: C_21  and  C_22
REMARK                            x       y       z     vdW  Elec       q    Type
REMARK                         _______ _______ _______ _____ _____    ______ ____
ROOT
ATOM      1  C   UNL     1      -1.726   7.312  -0.344  0.00  0.00    +0.039 C 
ENDROOT
BRANCH   1  10
ATOM      2  C   UNL     1       1.778   0.729  -0.413  0.00  0.00    +0.044 C 
ATOM      3  C   UNL     1       0.527   1.554  -0.575  0.00  0.00    -0.050 A 
ATOM      4  C   UNL     1      -0.670   0.931  -0.900  0.00  0.00    +0.008 A 
ATOM      5  C   UNL     1      -1.825   1.667  -1.058  0.00  0.00    -0.026 A 
ATOM      6  C   UNL     1      -1.795   3.046  -0.879  0.00  0.00    +0.052 A 
ATOM      7  C   UNL     1      -0.580   3.674  -0.549  0.00  0.00    -0.001 A 
ATOM      8  C   UNL     1       0.581   2.908  -0.399  0.00  0.00    +0.013 A 
ATOM      9  C   UNL     1      -0.557   5.126  -0.367  0.00  0.00    +0.017 A 
ATOM     10  C   UNL     1      -1.714   5.816  -0.524  0.00  0.00    +0.011 A 
ATOM     11  C   UNL     1      -2.906   5.139  -0.856  0.00  0.00    +0.251 A 
ATOM     12  O   UNL     1      -3.935   5.778  -0.993  0.00  0.00    -0.268 OA
ATOM     13  N   UNL     1      -2.937   3.805  -1.024  0.00  0.00    -0.322 N 
ATOM     14  H   UNL     1      -3.774   3.371  -1.252  0.00  0.00    +0.169 HD
ATOM     15  C   UNL     1      -3.117   0.978  -1.418  0.00  0.00    +0.046 C 
ENDBRANCH   1  10
BRANCH   1  20
ATOM     16  C   UNL     1      -2.542   6.999   1.928  0.00  0.00    -0.077 C 
ATOM     17  C   UNL     1      -3.349   7.867   2.926  0.00  0.00    -0.020 C 
ATOM     18  C   UNL     1      -3.120   9.302   2.399  0.00  0.00    -0.020 C 
ATOM     19  C   UNL     1      -2.727   9.130   0.920  0.00  0.00    -0.077 C 
ATOM     20  N   UNL     1      -2.773   7.692   0.651  0.00  0.00    +0.389 N 
ATOM     21  H   UNL     1      -3.697   7.438   0.281  0.00  0.00    -0.080 HD
ENDBRANCH   1  20
BRANCH   1  22
ATOM     22  C   UNL     1      -2.017   7.976  -1.666  0.00  0.00    +0.143 A 
ATOM     23  N   UNL     1      -3.195   8.137  -2.217  0.00  0.00    -0.115 NA
ATOM     24  N   UNL     1      -3.028   8.748  -3.340  0.00  0.00    -0.023 NA
ATOM     25  N   UNL     1      -1.774   8.973  -3.522  0.00  0.00    -0.044 NA
ATOM     26  N   UNL     1      -1.117   8.511  -2.512  0.00  0.00    -0.226 N 
BRANCH  26  27
ATOM     27  C   UNL     1       0.335   8.560  -2.321  0.00  0.00    +0.182 C 
BRANCH  27  28
ATOM     28  C   UNL     1       0.714   9.874  -1.687  0.00  0.00    -0.026 A 
ATOM     29  C   UNL     1       0.914  10.990  -2.478  0.00  0.00    +0.008 A 
ATOM     30  C   UNL     1       1.257  12.196  -1.897  0.00  0.00    +0.038 A 
ATOM     31  C   UNL     1       1.411  12.284  -0.523  0.00  0.00    +0.123 A 
ATOM     32  C   UNL     1       1.215  11.164   0.267  0.00  0.00    +0.038 A 
ATOM     33  C   UNL     1       0.867   9.960  -0.316  0.00  0.00    +0.008 A 
ATOM     34  F   UNL     1       1.750  13.461   0.045  0.00  0.00    -0.205 F 
ENDBRANCH  27  28
ENDBRANCH  26  27
ENDBRANCH   1  22
TORSDOF 5
