REMARK  Name = ZINC30825653
REMARK  7 active torsions:
REMARK  status: ('A' for Active; 'I' for Inactive)
REMARK    1  A    between atoms: C_3  and  C_11
REMARK    2  A    between atoms: C_11  and  N_12
REMARK    3  A    between atoms: N_12  and  C_13
REMARK    4  A    between atoms: N_12  and  C_24
REMARK    5  A    between atoms: C_13  and  C_14
REMARK    6  A    between atoms: C_24  and  N_26
REMARK    7  A    between atoms: C_27  and  C_29
REMARK                            x       y       z     vdW  Elec       q    Type
REMARK                         _______ _______ _______ _____ _____    ______ ____
ROOT
ATOM      1  N   UNL     1      -3.011  -0.416   1.263  0.00  0.00    -0.304 N 
ENDROOT
BRANCH   1   2
ATOM      2  C   UNL     1      -2.000  -1.274   1.505  0.00  0.00    +0.140 C 
ATOM      3  S   UNL     1      -1.904  -2.082   3.011  0.00  0.00    -0.018 S 
BRANCH   2   4
ATOM      4  N   UNL     1      -1.064  -1.495   0.561  0.00  0.00    -0.264 N 
ATOM      5  C   UNL     1      -0.119  -2.436   0.756  0.00  0.00    +0.251 C 
ATOM      6  O   UNL     1      -0.154  -3.135   1.750  0.00  0.00    -0.270 OA
ATOM      7  H   UNL     1      -1.071  -0.907  -0.369  0.00  0.00    +0.157 HD
BRANCH   5   8
ATOM      8  C   UNL     1       0.958  -2.618  -0.237  0.00  0.00    +0.055 A 
ATOM      9  C   UNL     1       1.051  -1.761  -1.336  0.00  0.00    +0.016 A 
ATOM     10  C   UNL     1       2.059  -1.936  -2.260  0.00  0.00    +0.021 A 
ATOM     11  C   UNL     1       2.979  -2.960  -2.101  0.00  0.00    +0.042 A 
ATOM     12  C   UNL     1       2.893  -3.814  -1.015  0.00  0.00    +0.040 A 
ATOM     13  C   UNL     1       1.892  -3.646  -0.079  0.00  0.00    +0.054 A 
ATOM     14 CL   UNL     1       1.789  -4.714   1.286  0.00  0.00    -0.083 Cl
ATOM     15 CL   UNL     1       4.245  -3.173  -3.270  0.00  0.00    -0.083 Cl
ENDBRANCH   5   8
ENDBRANCH   2   4
ENDBRANCH   1   2
BRANCH   1  16
ATOM     16  C   UNL     1      -3.020   0.378   0.032  0.00  0.00    +0.143 C 
BRANCH  16  19
ATOM     17  C   UNL     1      -2.868   4.069   0.801  0.00  0.00    +0.002 A 
ATOM     18  C   UNL     1      -3.350   2.795   0.535  0.00  0.00    +0.006 A 
ATOM     19  C   UNL     1      -2.487   1.758   0.320  0.00  0.00    -0.021 A 
ATOM     20  C   UNL     1      -1.110   1.982   0.360  0.00  0.00    +0.004 A 
ATOM     21  C   UNL     1       0.067   1.126   0.189  0.00  0.00    +0.028 A 
ATOM     22  C   UNL     1       1.147   1.907   0.352  0.00  0.00    +0.083 A 
ATOM     23  N   UNL     1       0.758   3.191   0.620  0.00  0.00    -0.361 N 
ATOM     24  H   UNL     1       1.515   3.972   0.782  0.00  0.00    +0.165 HD
ATOM     25  C   UNL     1      -0.616   3.271   0.635  0.00  0.00    +0.047 A 
ATOM     26  C   UNL     1      -1.513   4.312   0.852  0.00  0.00    +0.026 A 
ENDBRANCH  16  19
ENDBRANCH   1  16
BRANCH   1  27
ATOM     27  C   UNL     1      -4.102  -0.278   2.232  0.00  0.00    +0.143 C 
BRANCH  27  28
ATOM     28  C   UNL     1      -5.321  -1.001   1.722  0.00  0.00    -0.021 A 
ATOM     29  C   UNL     1      -6.305  -0.312   1.071  0.00  0.00    +0.006 A 
ATOM     30  C   UNL     1      -7.432  -0.970   0.598  0.00  0.00    +0.002 A 
ATOM     31  C   UNL     1      -7.580  -2.328   0.775  0.00  0.00    +0.026 A 
ATOM     32  C   UNL     1      -6.590  -3.050   1.435  0.00  0.00    +0.047 A 
ATOM     33  C   UNL     1      -5.447  -2.379   1.907  0.00  0.00    +0.004 A 
ATOM     34  C   UNL     1      -4.614  -3.401   2.547  0.00  0.00    +0.028 A 
ATOM     35  C   UNL     1      -5.263  -4.569   2.424  0.00  0.00    +0.083 A 
ATOM     36  N   UNL     1      -6.445  -4.380   1.762  0.00  0.00    -0.361 N 
ATOM     37  H   UNL     1      -7.226  -5.103   1.485  0.00  0.00    +0.165 HD
ENDBRANCH  27  28
ENDBRANCH   1  27
TORSDOF 7
