REMARK  Name = ZINC38050093
REMARK  5 active torsions:
REMARK  status: ('A' for Active; 'I' for Inactive)
REMARK    1  A    between atoms: C_4  and  N_20
REMARK    2  A    between atoms: C_6  and  S_7
REMARK    3  A    between atoms: S_7  and  N_10
REMARK    4  A    between atoms: N_10  and  C_11
REMARK    5  A    between atoms: C_17  and  N_19
REMARK                            x       y       z     vdW  Elec       q    Type
REMARK                         _______ _______ _______ _____ _____    ______ ____
ROOT
ATOM      1  S   UNL     1      -1.512  -0.905   0.012  0.00  0.00    +0.059 S 
ATOM      2  O   UNL     1      -1.219  -2.186   0.553  0.00  0.00    -0.153 OA
ATOM      3  O   UNL     1      -2.492  -0.045   0.577  0.00  0.00    -0.153 OA
ENDROOT
BRANCH   1   9
ATOM      4  C   UNL     1      -0.017   1.378   0.010  0.00  0.00    +0.031 A 
ATOM      5  C   UNL     1       1.171   2.086   0.002  0.00  0.00    +0.042 A 
ATOM      6  C   UNL     1       2.379   1.410  -0.013  0.00  0.00    +0.154 A 
ATOM      7  C   UNL     1       2.396   0.025  -0.021  0.00  0.00    +0.163 A 
ATOM      8  C   UNL     1       1.208  -0.680  -0.013  0.00  0.00    +0.064 A 
ATOM      9  C   UNL     1       0.002  -0.004   0.002  0.00  0.00    +0.108 A 
ATOM     10  F   UNL     1       3.540   2.101  -0.021  0.00  0.00    -0.203 F 
BRANCH   7  11
ATOM     11  N   UNL     1       3.687  -0.699  -0.037  0.00  0.00    +0.059 N 
ATOM     12  O   UNL     1       3.702  -1.907  -0.044  0.00  0.00    -0.126 OA
ATOM     13  O   UNL     1       4.726  -0.081  -0.044  0.00  0.00    -0.126 OA
ENDBRANCH   7  11
ENDBRANCH   1   9
BRANCH   1  14
ATOM     14  N   UNL     1      -1.948  -1.147  -1.567  0.00  0.00    -0.188 NA
ATOM     15  H   UNL     1      -2.756  -0.738  -1.915  0.00  0.00    +0.148 HD
BRANCH  14  16
ATOM     16  C   UNL     1      -1.115  -1.979  -2.438  0.00  0.00    +0.062 C 
ATOM     17  C   UNL     1      -0.150  -1.089  -3.223  0.00  0.00    +0.019 C 
ATOM     18  C   UNL     1      -0.947  -0.099  -4.074  0.00  0.00    +0.001 C 
ATOM     19  C   UNL     1      -1.839  -0.868  -5.050  0.00  0.00    -0.001 C 
ATOM     20  C   UNL     1      -2.804  -1.758  -4.265  0.00  0.00    -0.015 C 
ATOM     21  C   UNL     1      -2.007  -2.749  -3.414  0.00  0.00    -0.056 C 
BRANCH  21  22
ATOM     22  N   UNL     1      -2.934  -3.604  -2.661  0.00  0.00    +0.381 N 
ATOM     23  H   UNL     1      -3.508  -3.030  -2.061  0.00  0.00    -0.090 HD
ATOM     24  H   UNL     1      -3.522  -4.111  -3.304  0.00  0.00    -0.090 HD
ATOM     25  H   UNL     1      -2.408  -4.257  -2.099  0.00  0.00    -0.090 HD
ENDBRANCH  21  22
ENDBRANCH  14  16
ENDBRANCH   1  14
TORSDOF 5
