REMARK  Name = ZINC21355793
REMARK  15 active torsions:
REMARK  status: ('A' for Active; 'I' for Inactive)
REMARK    1  A    between atoms: C_1  and  C_2
REMARK    2  A    between atoms: C_2  and  C_4
REMARK    3  A    between atoms: C_2  and  O_25
REMARK    4  A    between atoms: N_6  and  C_7
REMARK    5  A    between atoms: N_6  and  C_11
REMARK    6  A    between atoms: C_7  and  C_8
REMARK    7  A    between atoms: C_8  and  C_9
REMARK    8  A    between atoms: C_8  and  C_10
REMARK    9  A    between atoms: C_12  and  N_24
REMARK   10  A    between atoms: N_13  and  C_20
REMARK   11  A    between atoms: C_20  and  C_21
REMARK   12  A    between atoms: C_21  and  C_22
REMARK   13  A    between atoms: C_21  and  C_23
REMARK   14  A    between atoms: O_25  and  C_26
REMARK   15  A    between atoms: C_29  and  C_32
REMARK                            x       y       z     vdW  Elec       q    Type
REMARK                         _______ _______ _______ _____ _____    ______ ____
ROOT
ATOM      1  C   UNL     1      -1.149  -1.017  -0.037  0.00  0.00    +0.260 C 
ATOM      2  O   UNL     1       0.047  -0.829  -0.122  0.00  0.00    -0.271 OA
ATOM      3  N   UNL     1      -1.993  -0.378  -0.874  0.00  0.00    -0.261 N 
ENDROOT
BRANCH   3   4
ATOM      4  C   UNL     1      -3.373  -0.668  -0.840  0.00  0.00    +0.140 A 
ATOM      5  C   UNL     1      -4.188  -0.093   0.114  0.00  0.00    +0.127 A 
ATOM      6  N   UNL     1      -5.530  -0.395   0.121  0.00  0.00    -0.280 N 
ATOM      7  C   UNL     1      -6.042  -1.240  -0.791  0.00  0.00    +0.331 A 
ATOM      8  O   UNL     1      -7.231  -1.494  -0.768  0.00  0.00    -0.246 OA
ATOM      9  N   UNL     1      -5.264  -1.809  -1.728  0.00  0.00    -0.273 N 
ATOM     10  H   UNL     1      -5.658  -2.415  -2.375  0.00  0.00    +0.173 HD
ATOM     11  C   UNL     1      -3.944  -1.544  -1.782  0.00  0.00    +0.277 A 
ATOM     12  O   UNL     1      -3.248  -2.062  -2.639  0.00  0.00    -0.266 OA
BRANCH   5  13
ATOM     13  N   UNL     1      -3.664   0.770   1.047  0.00  0.00    -0.343 N 
ATOM     14  H   UNL     1      -2.739   1.054   0.979  0.00  0.00    +0.144 HD
ATOM     15  H   UNL     1      -4.220   1.095   1.772  0.00  0.00    +0.144 HD
ENDBRANCH   5  13
BRANCH   6  16
ATOM     16  C   UNL     1      -6.406   0.208   1.129  0.00  0.00    +0.131 C 
BRANCH  16  17
ATOM     17  C   UNL     1      -6.965   1.528   0.595  0.00  0.00    +0.003 C 
ATOM     18  C   UNL     1      -7.976   2.095   1.593  0.00  0.00    +0.009 C 
ATOM     19  C   UNL     1      -5.822   2.526   0.404  0.00  0.00    +0.009 C 
ENDBRANCH  16  17
ENDBRANCH   6  16
ENDBRANCH   3   4
BRANCH   1  21
ATOM     20  C   UNL     1      -2.161  -3.251   0.325  0.00  0.00    +0.062 C 
ATOM     21  C   UNL     1      -1.691  -1.963   1.003  0.00  0.00    +0.256 C 
BRANCH  21  22
ATOM     22  O   UNL     1      -0.665  -2.270   1.949  0.00  0.00    -0.480 OA
BRANCH  22  23
ATOM     23  C   UNL     1      -1.064  -2.651   3.189  0.00  0.00    +0.122 A 
ATOM     24  C   UNL     1      -2.417  -2.824   3.459  0.00  0.00    +0.047 A 
ATOM     25  C   UNL     1      -2.826  -3.211   4.716  0.00  0.00    +0.022 A 
ATOM     26  C   UNL     1      -1.879  -3.431   5.720  0.00  0.00    +0.052 A 
ATOM     27  C   UNL     1      -0.520  -3.257   5.444  0.00  0.00    +0.022 A 
ATOM     28  C   UNL     1      -0.119  -2.874   4.184  0.00  0.00    +0.047 A 
BRANCH  26  29
ATOM     29  C   UNL     1      -2.301  -3.834   7.029  0.00  0.00    +0.099 C 
ATOM     30  N   UNL     1      -2.635  -4.153   8.066  0.00  0.00    -0.191 NA
ENDBRANCH  26  29
ENDBRANCH  22  23
ENDBRANCH  21  22
ENDBRANCH   1  21
BRANCH   3  31
ATOM     31  C   UNL     1      -1.476   0.616  -1.817  0.00  0.00    +0.117 C 
BRANCH  31  32
ATOM     32  C   UNL     1      -1.234  -0.046  -3.175  0.00  0.00    +0.001 C 
ATOM     33  C   UNL     1      -0.812   1.015  -4.193  0.00  0.00    +0.009 C 
ATOM     34  C   UNL     1      -0.127  -1.094  -3.042  0.00  0.00    +0.009 C 
ENDBRANCH  31  32
ENDBRANCH   3  31
TORSDOF 10
