REMARK  Name = ZINC07220574
REMARK  5 active torsions:
REMARK  status: ('A' for Active; 'I' for Inactive)
REMARK    1  A    between atoms: C_4  and  C_7
REMARK    2  A    between atoms: C_7  and  C_9
REMARK    3  A    between atoms: C_7  and  N_15
REMARK    4  A    between atoms: N_15  and  C_16
REMARK    5  A    between atoms: C_19  and  C_22
REMARK                            x       y       z     vdW  Elec       q    Type
REMARK                         _______ _______ _______ _____ _____    ______ ____
ROOT
ATOM      1  N   UNL     1      -1.235   2.066   0.019  0.00  0.00    -0.329 N 
ATOM      2  H   UNL     1      -2.068   1.569   0.020  0.00  0.00    +0.147 HD
ENDROOT
BRANCH   1   3
ATOM      3  C   UNL     1      -0.017   1.386   0.010  0.00  0.00    +0.028 A 
ATOM      4  C   UNL     1       1.176   2.101   0.002  0.00  0.00    +0.023 A 
ATOM      5  C   UNL     1       2.381   1.433  -0.013  0.00  0.00    +0.013 A 
ATOM      6  C   UNL     1       2.403   0.036  -0.021  0.00  0.00    +0.017 A 
ATOM      7  C   UNL     1       1.204  -0.678  -0.013  0.00  0.00    +0.013 A 
ATOM      8  C   UNL     1       0.002  -0.004   0.002  0.00  0.00    +0.023 A 
BRANCH   6   9
ATOM      9  C   UNL     1       3.694  -0.683  -0.037  0.00  0.00    +0.136 A 
ATOM     10  C   UNL     1       4.914  -0.094  -0.051  0.00  0.00    +0.058 A 
ATOM     11  C   UNL     1       5.891  -1.185  -0.061  0.00  0.00    +0.021 A 
ATOM     12  C   UNL     1       7.286  -1.243  -0.074  0.00  0.00    +0.011 A 
ATOM     13  C   UNL     1       7.914  -2.457  -0.086  0.00  0.00    +0.001 A 
ATOM     14  C   UNL     1       7.173  -3.631  -0.087  0.00  0.00    +0.004 A 
ATOM     15  C   UNL     1       5.795  -3.594  -0.074  0.00  0.00    +0.047 A 
ATOM     16  C   UNL     1       5.136  -2.372  -0.061  0.00  0.00    +0.136 A 
ATOM     17  O   UNL     1       3.833  -2.024  -0.047  0.00  0.00    -0.455 OA
ENDBRANCH   6   9
ENDBRANCH   1   3
BRANCH   1  18
ATOM     18  C   UNL     1      -1.257   3.531   0.027  0.00  0.00    +0.188 C 
BRANCH  18  19
ATOM     19  C   UNL     1      -1.134   4.027   1.445  0.00  0.00    +0.245 C 
ATOM     20  O   UNL     1      -1.038   3.236   2.358  0.00  0.00    -0.273 OA
ATOM     21  N   UNL     1      -1.131   5.351   1.697  0.00  0.00    -0.239 N 
ATOM     22  C   UNL     1      -1.021   5.795   2.965  0.00  0.00    +0.303 C 
ATOM     23  O   UNL     1      -0.924   5.002   3.881  0.00  0.00    -0.253 OA
ATOM     24  N   UNL     1      -1.018   7.119   3.218  0.00  0.00    -0.313 N 
ATOM     25  H   UNL     1      -1.208   5.984   0.967  0.00  0.00    +0.159 HD
ATOM     26  H   UNL     1      -1.095   7.752   2.487  0.00  0.00    +0.146 HD
ATOM     27  H   UNL     1      -0.939   7.439   4.130  0.00  0.00    +0.146 HD
ENDBRANCH  18  19
BRANCH  18  31
ATOM     28  C   UNL     1      -4.936   4.910  -1.650  0.00  0.00    +0.000 A 
ATOM     29  C   UNL     1      -3.754   5.563  -1.945  0.00  0.00    +0.000 A 
ATOM     30  C   UNL     1      -2.563   5.117  -1.402  0.00  0.00    +0.006 A 
ATOM     31  C   UNL     1      -2.555   4.017  -0.565  0.00  0.00    -0.018 A 
ATOM     32  C   UNL     1      -3.736   3.361  -0.274  0.00  0.00    +0.006 A 
ATOM     33  C   UNL     1      -4.927   3.809  -0.813  0.00  0.00    +0.000 A 
ENDBRANCH  18  31
ENDBRANCH   1  18
TORSDOF 5
