REMARK  Name = ZINC19721276
REMARK  10 active torsions:
REMARK  status: ('A' for Active; 'I' for Inactive)
REMARK    1  A    between atoms: C_1  and  C_2
REMARK    2  A    between atoms: C_11  and  C_28
REMARK    3  A    between atoms: C_12  and  C_27
REMARK    4  A    between atoms: C_25  and  C_26
REMARK    5  A    between atoms: C_28  and  C_29
REMARK    6  A    between atoms: C_29  and  C_30
REMARK    7  A    between atoms: C_33  and  C_36
REMARK    8  A    between atoms: C_34  and  C_35
REMARK    9  A    between atoms: C_36  and  C_37
REMARK   10  A    between atoms: C_37  and  C_38
REMARK                            x       y       z     vdW  Elec       q    Type
REMARK                         _______ _______ _______ _____ _____    ______ ____
ROOT
ATOM      1  C   UNL     1      -0.018   1.503   0.010  0.00  0.00    +0.046 C 
ATOM      2  C   UNL     1       0.002  -0.004   0.002  0.00  0.00    -0.025 A 
ATOM      3  C   UNL     1       0.008  -0.797  -1.102  0.00  0.00    +0.031 A 
ATOM      4  C   UNL     1       0.023  -2.139  -0.675  0.00  0.00    +0.042 A 
ATOM      5  C   UNL     1       0.025  -3.226  -1.539  0.00  0.00    +0.051 C 
ATOM      6  C   UNL     1       0.023  -4.554  -1.101  0.00  0.00    +0.045 C 
ATOM      7  N   UNL     1       0.040  -5.004   0.154  0.00  0.00    -0.355 N 
ATOM      8  C   UNL     1       0.034  -6.337   0.166  0.00  0.00    +0.045 C 
ATOM      9  C   UNL     1       0.055  -7.185   1.280  0.00  0.00    +0.051 C 
ATOM     10  C   UNL     1       0.103  -6.717   2.585  0.00  0.00    +0.045 A 
ATOM     11  C   UNL     1       0.158  -7.550   3.720  0.00  0.00    -0.019 A 
ATOM     12  C   UNL     1       0.200  -6.758   4.822  0.00  0.00    -0.022 A 
ATOM     13  C   UNL     1       0.166  -5.415   4.396  0.00  0.00    +0.045 A 
ATOM     14  N   UNL     1       0.115  -5.410   3.020  0.00  0.00    -0.355 N 
ATOM     15  H   UNL     1       0.090  -4.622   2.455  0.00  0.00    +0.166 HD
ATOM     16  C   UNL     1       0.184  -4.328   5.259  0.00  0.00    +0.051 C 
ATOM     17  C   UNL     1       0.134  -3.000   4.822  0.00  0.00    +0.045 C 
ATOM     18  N   UNL     1       0.092  -2.550   3.568  0.00  0.00    -0.355 N 
ATOM     19  C   UNL     1       0.058  -1.217   3.557  0.00  0.00    +0.042 C 
ATOM     20  C   UNL     1       0.019  -0.370   2.445  0.00  0.00    +0.051 C 
ATOM     21  C   UNL     1       0.024  -0.838   1.137  0.00  0.00    +0.045 A 
ATOM     22  N   UNL     1       0.032  -2.143   0.701  0.00  0.00    -0.355 N 
ATOM     23  H   UNL     1       0.046  -2.931   1.267  0.00  0.00    +0.166 HD
ATOM     24  C   UNL     1       0.071  -0.742   4.947  0.00  0.00    +0.031 C 
ATOM     25  C   UNL     1       0.120  -1.842   5.729  0.00  0.00    -0.025 C 
ATOM     26  C   UNL     1       0.154  -1.877   7.236  0.00  0.00    +0.046 C 
ATOM     27  C   UNL     1       0.270  -7.231   6.251  0.00  0.00    +0.046 C 
ATOM     28  C   UNL     1       0.004  -6.812  -1.224  0.00  0.00    -0.019 C 
ATOM     29  C   UNL     1      -0.000  -5.712  -2.007  0.00  0.00    -0.022 C 
ATOM     30  C   UNL     1      -0.024  -5.678  -3.513  0.00  0.00    +0.046 C 
ATOM     31  H   UNL     1       0.056  -4.442   0.945  0.00  0.00    +0.166 HD
ATOM     32  H   UNL     1       0.088  -3.112   2.777  0.00  0.00    +0.166 HD
ENDROOT
BRANCH  11  33
ATOM     33  C   UNL     1       0.169  -9.057   3.712  0.00  0.00    +0.049 C 
BRANCH  33  34
ATOM     34  C   UNL     1       1.613  -9.557   3.647  0.00  0.00    +0.130 C 
BRANCH  34  35
ATOM     35  C   UNL     1       1.624 -11.064   3.639  0.00  0.00    +0.356 C 
ATOM     36  O   UNL     1       0.573 -11.681   3.681  0.00  0.00    -0.246 OA
ATOM     37  O   UNL     1       2.683 -11.666   3.590  0.00  0.00    -0.246 OA
ENDBRANCH  34  35
ENDBRANCH  33  34
ENDBRANCH  11  33
BRANCH  28  38
ATOM     38  C   UNL     1      -0.017  -8.247  -1.686  0.00  0.00    +0.049 C 
BRANCH  38  39
ATOM     39  C   UNL     1       1.414  -8.784  -1.748  0.00  0.00    +0.130 C 
BRANCH  39  40
ATOM     40  C   UNL     1       1.392 -10.219  -2.210  0.00  0.00    +0.356 C 
ATOM     41  O   UNL     1       0.331 -10.761  -2.466  0.00  0.00    -0.246 OA
ATOM     42  O   UNL     1       2.436 -10.837  -2.328  0.00  0.00    -0.246 OA
ENDBRANCH  39  40
ENDBRANCH  38  39
ENDBRANCH  28  38
TORSDOF 6
