REMARK  Name = ZINC31169798
REMARK  9 active torsions:
REMARK  status: ('A' for Active; 'I' for Inactive)
REMARK    1  A    between atoms: C_1  and  C_2
REMARK    2  A    between atoms: C_2  and  C_28
REMARK    3  A    between atoms: C_3  and  C_4
REMARK    4  A    between atoms: C_4  and  C_5
REMARK    5  A    between atoms: C_6  and  O_27
REMARK    6  A    between atoms: C_10  and  O_11
REMARK    7  A    between atoms: O_11  and  C_12
REMARK    8  A    between atoms: C_13  and  O_26
REMARK    9  A    between atoms: C_18  and  O_25
REMARK                            x       y       z     vdW  Elec       q    Type
REMARK                         _______ _______ _______ _____ _____    ______ ____
ROOT
ATOM      1  C   UNL     1       7.242   5.480   1.856  0.00  0.00    +0.040 A 
ATOM      2  C   UNL     1       6.941   6.808   1.609  0.00  0.00    +0.127 A 
ATOM      3  C   UNL     1       5.879   7.178   0.788  0.00  0.00    +0.092 A 
ATOM      4  C   UNL     1       5.123   6.160   0.218  0.00  0.00    +0.135 A 
ATOM      5  C   UNL     1       5.430   4.809   0.483  0.00  0.00    +0.075 A 
ATOM      6  C   UNL     1       6.490   4.450   1.295  0.00  0.00    +0.137 A 
ATOM      7  C   UNL     1       4.418   4.023  -0.263  0.00  0.00    +0.172 C 
ATOM      8  C   UNL     1       4.818   2.753  -0.970  0.00  0.00    +0.273 C 
ATOM      9  O   UNL     1       3.795   2.393  -1.907  0.00  0.00    -0.488 OA
ATOM     10  C   UNL     1       2.692   3.155  -2.101  0.00  0.00    +0.131 A 
ATOM     11  C   UNL     1       1.509   2.583  -2.541  0.00  0.00    +0.091 A 
ATOM     12  C   UNL     1       0.395   3.374  -2.768  0.00  0.00    +0.120 A 
ATOM     13  C   UNL     1       0.449   4.744  -2.552  0.00  0.00    +0.046 A 
ATOM     14  C   UNL     1       1.627   5.323  -2.111  0.00  0.00    +0.014 A 
ATOM     15  C   UNL     1       2.727   4.540  -1.882  0.00  0.00    +0.038 A 
ATOM     16  C   UNL     1       4.035   5.056  -1.379  0.00  0.00    +0.247 C 
ATOM     17  O   UNL     1       4.057   6.263  -0.627  0.00  0.00    -0.480 OA
ENDROOT
BRANCH   6  18
ATOM     18  O   UNL     1       6.786   3.146   1.536  0.00  0.00    -0.494 OA
ATOM     19  C   UNL     1       7.699   2.511   0.638  0.00  0.00    +0.277 C 
ENDBRANCH   6  18
BRANCH  12  20
ATOM     20  O   UNL     1      -0.761   2.804  -3.199  0.00  0.00    -0.507 OA
ATOM     21  H   UNL     1      -1.649   3.428  -3.380  0.00  0.00    +0.292 HD
ENDBRANCH  12  20
BRANCH   7  22
ATOM     22  O   UNL     1       3.287   3.774   0.574  0.00  0.00    -0.376 OA
ATOM     23  H   UNL     1       2.431   3.202   0.186  0.00  0.00    +0.211 HD
ENDBRANCH   7  22
BRANCH   2  24
ATOM     24  O   UNL     1       7.701   7.777   2.183  0.00  0.00    -0.506 OA
ATOM     25  H   UNL     1       7.474   8.837   1.997  0.00  0.00    +0.292 HD
ENDBRANCH   2  24
BRANCH   1  26
ATOM     26  C   UNL     1       8.408   5.141   2.749  0.00  0.00    +0.069 C 
BRANCH  26  29
ATOM     27  C   UNL     1       8.837   2.774   4.221  0.00  0.00    +0.038 C 
ATOM     28  C   UNL     1       8.191   3.966   4.878  0.00  0.00    -0.079 C 
ATOM     29  C   UNL     1       7.936   5.043   4.176  0.00  0.00    -0.023 C 
ATOM     30  C   UNL     1       7.838   3.921   6.343  0.00  0.00    +0.038 C 
ENDBRANCH  26  29
ENDBRANCH   1  26
TORSDOF 6
