REMARK  Name = ZINC37022914
REMARK  4 active torsions:
REMARK  status: ('A' for Active; 'I' for Inactive)
REMARK    1  A    between atoms: C_5  and  C_7
REMARK    2  A    between atoms: C_9  and  C_12
REMARK    3  A    between atoms: C_12  and  S_13
REMARK    4  A    between atoms: S_13  and  C_14
REMARK                            x       y       z     vdW  Elec       q    Type
REMARK                         _______ _______ _______ _____ _____    ______ ____
ROOT
ATOM      1  C   UNL     1       1.250  -2.160  -0.023  0.00  0.00    +0.260 A 
ATOM      2  N   UNL     1       0.201  -2.952  -0.023  0.00  0.00    -0.191 NA
ATOM      3  C   UNL     1       0.593  -4.228  -0.032  0.00  0.00    +0.182 A 
ATOM      4  N   UNL     1       1.895  -4.274  -0.039  0.00  0.00    -0.060 NA
ATOM      5  O   UNL     1       2.352  -2.930  -0.039  0.00  0.00    -0.333 OA
ENDROOT
BRANCH   1  10
ATOM      6  C   UNL     1      -0.017   1.375   0.010  0.00  0.00    +0.001 A 
ATOM      7  C   UNL     1       1.170   2.087   0.002  0.00  0.00    +0.001 A 
ATOM      8  C   UNL     1       2.383   1.422  -0.013  0.00  0.00    +0.021 A 
ATOM      9  C   UNL     1       2.417   0.041  -0.021  0.00  0.00    +0.053 A 
ATOM     10  C   UNL     1       1.222  -0.683  -0.014  0.00  0.00    +0.058 A 
ATOM     11  C   UNL     1       0.002  -0.004   0.002  0.00  0.00    +0.015 A 
ATOM     12 CL   UNL     1       3.939  -0.792  -0.042  0.00  0.00    -0.083 Cl
ENDBRANCH   1  10
BRANCH   3  13
ATOM     13  C   UNL     1      -0.324  -5.424  -0.034  0.00  0.00    +0.157 C 
BRANCH  13  14
ATOM     14  S   UNL     1      -0.701  -5.894  -1.745  0.00  0.00    -0.076 S 
BRANCH  14  15
ATOM     15  C   UNL     1      -1.768  -7.287  -1.580  0.00  0.00    +0.210 A 
ATOM     16  N   UNL     1      -2.303  -7.981  -2.591  0.00  0.00    -0.188 NA
ATOM     17  C   UNL     1      -3.047  -8.956  -2.113  0.00  0.00    +0.209 A 
ATOM     18  N   UNL     1      -2.996  -8.897  -0.766  0.00  0.00    -0.246 N 
ATOM     19  H   UNL     1      -3.446  -9.488  -0.142  0.00  0.00    +0.192 HD
ATOM     20  N   UNL     1      -2.160  -7.815  -0.446  0.00  0.00    -0.144 NA
ATOM     21  N   UNL     1      -3.757  -9.878  -2.860  0.00  0.00    -0.328 N 
ATOM     22  H   UNL     1      -3.732  -9.839  -3.829  0.00  0.00    +0.145 HD
ATOM     23  H   UNL     1      -4.280 -10.563  -2.416  0.00  0.00    +0.145 HD
ENDBRANCH  14  15
ENDBRANCH  13  14
ENDBRANCH   3  13
TORSDOF 4
