REMARK  Name = ZINC05755466
REMARK  7 active torsions:
REMARK  status: ('A' for Active; 'I' for Inactive)
REMARK    1  A    between atoms: C_1  and  C_2
REMARK    2  A    between atoms: C_2  and  C_4
REMARK    3  A    between atoms: C_2  and  O_14
REMARK    4  A    between atoms: N_6  and  C_7
REMARK    5  A    between atoms: O_14  and  C_15
REMARK    6  A    between atoms: C_15  and  C_17
REMARK    7  A    between atoms: C_21  and  O_23
REMARK                            x       y       z     vdW  Elec       q    Type
REMARK                         _______ _______ _______ _____ _____    ______ ____
ROOT
ATOM      1  C   UNL     1       0.972   7.975  -1.420  0.00  0.00    +0.062 C 
ATOM      2  C   UNL     1       1.007   7.462   0.021  0.00  0.00    +0.259 C 
ENDROOT
BRANCH   2   3
ATOM      3  C   UNL     1       2.206   8.036   0.730  0.00  0.00    +0.258 C 
ATOM      4  O   UNL     1       3.096   7.303   1.107  0.00  0.00    -0.271 OA
ATOM      5  N   UNL     1       2.290   9.364   0.946  0.00  0.00    -0.282 N 
ATOM      6  H   UNL     1       1.611   9.957   0.586  0.00  0.00    +0.155 HD
BRANCH   5   7
ATOM      7  C   UNL     1       3.355   9.887   1.688  0.00  0.00    +0.034 A 
ATOM      8  C   UNL     1       3.154  10.986   2.513  0.00  0.00    +0.025 A 
ATOM      9  C   UNL     1       4.206  11.497   3.248  0.00  0.00    +0.022 A 
ATOM     10  C   UNL     1       5.461  10.921   3.155  0.00  0.00    +0.041 A 
ATOM     11  C   UNL     1       5.665   9.829   2.330  0.00  0.00    +0.022 A 
ATOM     12  C   UNL     1       4.615   9.311   1.597  0.00  0.00    +0.025 A 
ATOM     13 CL   UNL     1       6.782  11.570   4.076  0.00  0.00    -0.084 Cl
ENDBRANCH   5   7
ENDBRANCH   2   3
BRANCH   2  14
ATOM     14  O   UNL     1       1.095   6.012   0.017  0.00  0.00    -0.449 OA
BRANCH  14  15
ATOM     15  C   UNL     1      -0.065   5.329   0.018  0.00  0.00    +0.340 C 
ATOM     16  O   UNL     1      -1.122   5.927   0.022  0.00  0.00    -0.245 OA
BRANCH  15  17
ATOM     17  C   UNL     1      -0.052   3.851   0.014  0.00  0.00    +0.062 A 
ATOM     18  C   UNL     1       1.161   3.161   0.009  0.00  0.00    +0.015 A 
ATOM     19  C   UNL     1       1.170   1.782   0.004  0.00  0.00    +0.004 A 
ATOM     20  C   UNL     1      -0.021   1.079   0.004  0.00  0.00    +0.045 A 
ATOM     21  C   UNL     1      -1.233   1.756   0.004  0.00  0.00    +0.118 A 
ATOM     22  C   UNL     1      -1.253   3.141   0.014  0.00  0.00    +0.060 A 
BRANCH  21  23
ATOM     23  O   UNL     1      -2.400   1.060  -0.001  0.00  0.00    -0.507 OA
ATOM     24  H   UNL     1      -2.740   0.855   0.880  0.00  0.00    +0.292 HD
ENDBRANCH  21  23
ENDBRANCH  15  17
ENDBRANCH  14  15
ENDBRANCH   2  14
TORSDOF 6
