REMARK  Name = ZINC62363686
REMARK  4 active torsions:
REMARK  status: ('A' for Active; 'I' for Inactive)
REMARK    1  A    between atoms: C_1  and  N_2
REMARK    2  A    between atoms: N_2  and  C_3
REMARK    3  A    between atoms: C_3  and  C_4
REMARK    4  A    between atoms: C_11  and  N_17
REMARK                            x       y       z     vdW  Elec       q    Type
REMARK                         _______ _______ _______ _____ _____    ______ ____
ROOT
ATOM      1  C   UNL     1       0.045   1.496  -0.039  0.00  0.00    +0.131 C 
ATOM      2  N   UNL     1       0.003   0.032  -0.019  0.00  0.00    -0.312 N 
ATOM      3  C   UNL     1      -0.104  -0.675  -1.209  0.00  0.00    +0.147 A 
ATOM      4  C   UNL     1       1.043  -1.121  -1.879  0.00  0.00    +0.102 A 
ATOM      5  C   UNL     1       0.879  -1.824  -3.065  0.00  0.00    +0.155 A 
ATOM      6  N   UNL     1      -0.348  -2.046  -3.518  0.00  0.00    -0.222 NA
ATOM      7  C   UNL     1      -1.404  -1.612  -2.862  0.00  0.00    +0.225 A 
ATOM      8  N   UNL     1      -1.296  -0.945  -1.729  0.00  0.00    -0.219 NA
ATOM      9 CL   UNL     1       2.260  -2.403  -3.943  0.00  0.00    -0.060 Cl
ENDROOT
BRANCH   4  10
ATOM     10  N   UNL     1       2.321  -0.864  -1.365  0.00  0.00    -0.353 N 
ATOM     11  H   UNL     1       2.420  -0.449  -0.494  0.00  0.00    +0.143 HD
ATOM     12  H   UNL     1       3.108  -1.102  -1.881  0.00  0.00    +0.143 HD
ENDBRANCH   4  10
BRANCH   2  13
ATOM     13  C   UNL     1       0.075  -0.686   1.256  0.00  0.00    +0.148 C 
BRANCH  13  14
ATOM     14  C   UNL     1      -1.317  -0.891   1.796  0.00  0.00    +0.008 A 
ATOM     15  C   UNL     1      -2.167  -1.927   1.594  0.00  0.00    +0.028 A 
ATOM     16  C   UNL     1      -3.411  -1.901   2.198  0.00  0.00    +0.025 A 
ATOM     17  C   UNL     1      -3.742  -0.841   2.975  0.00  0.00    +0.060 A 
ATOM     18  S   UNL     1      -2.270   0.165   2.875  0.00  0.00    -0.099 S 
ATOM     19 BR   UNL     1      -4.631  -3.323   1.944  0.00  0.00    -0.050 Br
ENDBRANCH  13  14
ENDBRANCH   2  13
TORSDOF 3
