REMARK  Name = ZINC29201856
REMARK  13 active torsions:
REMARK  status: ('A' for Active; 'I' for Inactive)
REMARK    1  A    between atoms: C_1  and  C_2
REMARK    2  A    between atoms: C_2  and  C_3
REMARK    3  A    between atoms: C_3  and  C_4
REMARK    4  A    between atoms: C_4  and  N_5
REMARK    5  A    between atoms: C_9  and  S_26
REMARK    6  A    between atoms: C_13  and  C_14
REMARK    7  A    between atoms: C_14  and  N_15
REMARK    8  A    between atoms: N_15  and  C_16
REMARK    9  A    between atoms: C_16  and  C_18
REMARK   10  A    between atoms: C_16  and  C_23
REMARK   11  A    between atoms: C_23  and  C_24
REMARK   12  A    between atoms: C_23  and  C_25
REMARK   13  A    between atoms: S_26  and  N_29
REMARK                            x       y       z     vdW  Elec       q    Type
REMARK                         _______ _______ _______ _____ _____    ______ ____
ROOT
ATOM      1  N   UNL     1      -1.330   4.043  -5.295  0.00  0.00    -0.329 N 
ATOM      2  C   UNL     1      -1.119   3.275  -4.166  0.00  0.00    +0.069 A 
ATOM      3  C   UNL     1      -0.444   3.480  -2.970  0.00  0.00    +0.030 A 
ATOM      4  C   UNL     1      -0.427   2.484  -2.017  0.00  0.00    +0.030 A 
ATOM      5  C   UNL     1      -1.069   1.276  -2.250  0.00  0.00    +0.107 A 
ATOM      6  C   UNL     1      -1.738   1.057  -3.421  0.00  0.00    +0.058 A 
ATOM      7  C   UNL     1      -1.773   2.054  -4.400  0.00  0.00    +0.091 A 
ATOM      8  N   UNL     1      -2.338   2.137  -5.632  0.00  0.00    -0.234 NA
ATOM      9  C   UNL     1      -2.078   3.300  -6.155  0.00  0.00    +0.094 A 
ENDROOT
BRANCH   5  10
ATOM     10  S   UNL     1      -1.028   0.015  -1.021  0.00  0.00    +0.056 S 
ATOM     11  O   UNL     1      -2.163  -0.810  -1.246  0.00  0.00    -0.153 OA
ATOM     12  O   UNL     1      -0.794   0.665   0.221  0.00  0.00    -0.153 OA
BRANCH  10  13
ATOM     13  N   UNL     1       0.305  -0.921  -1.323  0.00  0.00    -0.204 NA
ATOM     14  H   UNL     1       0.367  -1.724  -0.574  0.00  0.00    +0.144 HD
ATOM     15  H   UNL     1       1.210  -0.298  -1.270  0.00  0.00    +0.144 HD
ENDBRANCH  10  13
ENDBRANCH   5  10
BRANCH   1  16
ATOM     16  C   UNL     1      -0.839   5.404  -5.523  0.00  0.00    +0.123 C 
BRANCH  16  17
ATOM     17  C   UNL     1      -1.872   6.411  -5.015  0.00  0.00    +0.021 C 
BRANCH  17  19
ATOM     18  C   UNL     1      -2.393   8.840  -4.746  0.00  0.00    +0.004 C 
ATOM     19  C   UNL     1      -1.359   7.832  -5.254  0.00  0.00    -0.002 C 
ENDBRANCH  17  19
ENDBRANCH  16  17
ENDBRANCH   1  16
BRANCH   9  20
ATOM     20  C   UNL     1      -2.538   3.758  -7.515  0.00  0.00    -0.006 C 
BRANCH  20  21
ATOM     21  N   UNL     1      -3.844   4.419  -7.393  0.00  0.00    +0.389 N 
ATOM     22  H   UNL     1      -4.555   3.739  -6.899  0.00  0.00    -0.084 HD
ATOM     23  H   UNL     1      -3.737   5.335  -6.794  0.00  0.00    -0.084 HD
BRANCH  21  24
ATOM     24  C   UNL     1      -4.378   4.779  -8.713  0.00  0.00    -0.031 C 
BRANCH  24  25
ATOM     25  C   UNL     1      -5.883   4.827  -8.651  0.00  0.00    -0.024 A 
ATOM     26  C   UNL     1      -6.789   4.400  -9.564  0.00  0.00    +0.009 A 
ATOM     27  C   UNL     1      -8.136   4.547  -9.291  0.00  0.00    +0.008 A 
ATOM     28  C   UNL     1      -8.511   5.114  -8.119  0.00  0.00    +0.045 A 
ATOM     29  S   UNL     1      -6.935   5.455  -7.353  0.00  0.00    -0.103 S 
ENDBRANCH  24  25
BRANCH  24  30
ATOM     30  C   UNL     1      -3.840   6.151  -9.124  0.00  0.00    -0.027 C 
ATOM     31  C   UNL     1      -4.312   6.481 -10.541  0.00  0.00    +0.006 C 
ATOM     32  C   UNL     1      -4.359   7.214  -8.153  0.00  0.00    +0.006 C 
ENDBRANCH  24  30
ENDBRANCH  21  24
ENDBRANCH  20  21
ENDBRANCH   9  20
TORSDOF 10
