REMARK  Name = ZINC15672896
REMARK  8 active torsions:
REMARK  status: ('A' for Active; 'I' for Inactive)
REMARK    1  A    between atoms: C_1  and  C_2
REMARK    2  A    between atoms: C_2  and  C_19
REMARK    3  A    between atoms: N_14  and  C_15
REMARK    4  A    between atoms: C_15  and  C_16
REMARK    5  A    between atoms: C_16  and  N_64
REMARK    6  A    between atoms: C_17  and  N_64
REMARK    7  A    between atoms: C_18  and  N_64
REMARK    8  A    between atoms: N_21  and  C_22
REMARK                            x       y       z     vdW  Elec       q    Type
REMARK                         _______ _______ _______ _____ _____    ______ ____
ROOT
ATOM      1  C   UNL     1      -3.685   2.278   2.556  0.00  0.00    +0.043 C 
ATOM      2  C   UNL     1      -2.551   1.319   2.924  0.00  0.00    +0.128 C 
ATOM      3  C   UNL     1      -3.153   0.050   3.526  0.00  0.00    +0.157 C 
ATOM      4  N   UNL     1      -3.620   0.340   4.885  0.00  0.00    -0.333 N 
ATOM      5  C   UNL     1      -4.651  -0.250   5.593  0.00  0.00    +0.057 A 
ATOM      6  C   UNL     1      -5.626  -1.242   5.412  0.00  0.00    +0.034 A 
ATOM      7  C   UNL     1      -6.489  -1.535   6.406  0.00  0.00    +0.048 A 
ATOM      8  S   UNL     1      -5.989  -0.414   7.701  0.00  0.00    -0.095 S 
ATOM      9  C   UNL     1      -4.657   0.385   6.844  0.00  0.00    +0.038 A 
ATOM     10  C   UNL     1      -3.650   1.341   6.885  0.00  0.00    +0.048 A 
ATOM     11  C   UNL     1      -3.020   1.314   5.676  0.00  0.00    +0.106 A 
ATOM     12  C   UNL     1      -1.907   2.120   5.159  0.00  0.00    +0.264 C 
ATOM     13  O   UNL     1      -1.259   2.856   5.880  0.00  0.00    -0.268 OA
ATOM     14  N   UNL     1      -1.640   1.998   3.838  0.00  0.00    -0.282 N 
ENDROOT
BRANCH   2  15
ATOM     15  C   UNL     1      -1.799   0.953   1.670  0.00  0.00    +0.238 C 
ATOM     16  O   UNL     1      -2.266   1.220   0.583  0.00  0.00    -0.273 OA
ATOM     17  N   UNL     1      -0.608   0.328   1.757  0.00  0.00    -0.311 N 
ATOM     18  H   UNL     1      -0.196   0.188   2.624  0.00  0.00    +0.149 HD
BRANCH  17  19
ATOM     19  C   UNL     1       0.065  -0.138   0.542  0.00  0.00    +0.073 C 
ATOM     20  C   UNL     1       0.876   1.010  -0.064  0.00  0.00    +0.022 C 
ATOM     21  C   UNL     1       1.877   0.448  -1.076  0.00  0.00    +0.002 C 
ATOM     22  C   UNL     1       1.143   0.072  -2.364  0.00  0.00    +0.000 C 
ATOM     23  C   UNL     1       0.378  -1.236  -2.152  0.00  0.00    +0.000 C 
ATOM     24  C   UNL     1       1.269  -2.234  -1.409  0.00  0.00    +0.000 C 
ATOM     25  C   UNL     1       0.694  -2.491  -0.015  0.00  0.00    +0.002 C 
ATOM     26  C   UNL     1       1.002  -1.296   0.890  0.00  0.00    +0.022 C 
ENDBRANCH  17  19
ENDBRANCH   2  15
BRANCH  14  27
ATOM     27  C   UNL     1      -0.397   2.566   3.309  0.00  0.00    +0.091 C 
BRANCH  27  28
ATOM     28  C   UNL     1      -0.628   4.029   2.926  0.00  0.00    -0.060 C 
BRANCH  28  31
ATOM     29  C   UNL     1       0.382   5.920   1.800  0.00  0.00    -0.097 C 
ATOM     30  C   UNL     1       1.651   4.669   3.440  0.00  0.00    -0.097 C 
ATOM     31  N   UNL     1       0.628   4.581   2.376  0.00  0.00    +0.377 N 
ATOM     32  H   UNL     1       0.970   3.958   1.635  0.00  0.00    -0.083 HD
ENDBRANCH  28  31
ENDBRANCH  27  28
ENDBRANCH  14  27
TORSDOF 5
