REMARK  Name = ZINC67287758
REMARK  11 active torsions:
REMARK  status: ('A' for Active; 'I' for Inactive)
REMARK    1  A    between atoms: C_1  and  C_2
REMARK    2  A    between atoms: C_2  and  N_3
REMARK    3  A    between atoms: N_3  and  C_4
REMARK    4  A    between atoms: N_3  and  S_6
REMARK    5  A    between atoms: C_4  and  C_5
REMARK    6  A    between atoms: S_6  and  C_9
REMARK    7  A    between atoms: C_12  and  O_28
REMARK    8  A    between atoms: C_13  and  N_15
REMARK    9  A    between atoms: C_16  and  C_18
REMARK   10  A    between atoms: N_24  and  C_25
REMARK   11  A    between atoms: C_25  and  C_26
REMARK                            x       y       z     vdW  Elec       q    Type
REMARK                         _______ _______ _______ _____ _____    ______ ____
ROOT
ATOM      1  C   UNL     1      -2.990   1.066   2.353  0.00  0.00    +0.107 A 
ATOM      2  C   UNL     1      -2.311   2.069   3.021  0.00  0.00    +0.032 A 
ATOM      3  C   UNL     1      -2.934   3.275   3.282  0.00  0.00    +0.049 A 
ATOM      4  C   UNL     1      -4.242   3.482   2.873  0.00  0.00    +0.138 A 
ATOM      5  C   UNL     1      -4.926   2.473   2.200  0.00  0.00    +0.077 A 
ATOM      6  C   UNL     1      -4.292   1.267   1.938  0.00  0.00    +0.055 A 
ENDROOT
BRANCH   5   7
ATOM      7  N   UNL     1      -6.248   2.676   1.785  0.00  0.00    -0.284 N 
ATOM      8  C   UNL     1      -6.723   2.025   0.705  0.00  0.00    +0.204 C 
ATOM      9  O   UNL     1      -6.034   1.201   0.141  0.00  0.00    -0.277 OA
ATOM     10  H   UNL     1      -6.822   3.287   2.274  0.00  0.00    +0.155 HD
BRANCH   8  11
ATOM     11  C   UNL     1      -8.112   2.318   0.198  0.00  0.00    +0.021 C 
ATOM     12  C   UNL     1      -9.115   1.401   0.900  0.00  0.00    -0.006 C 
ATOM     13  C   UNL     1     -10.524   1.704   0.382  0.00  0.00    -0.003 C 
ATOM     14  C   UNL     1     -10.546   1.531  -1.139  0.00  0.00    -0.019 C 
ATOM     15  C   UNL     1      -9.490   2.443  -1.766  0.00  0.00    -0.076 C 
ATOM     16  N   UNL     1      -8.162   2.086  -1.250  0.00  0.00    +0.395 N 
ATOM     17  H   UNL     1      -7.979   1.112  -1.440  0.00  0.00    -0.079 HD
BRANCH  16  18
ATOM     18  C   UNL     1      -7.144   2.911  -1.913  0.00  0.00    +0.013 C 
BRANCH  18  19
ATOM     19  C   UNL     1      -7.115   2.595  -3.350  0.00  0.00    -0.124 C 
ATOM     20  C   UNL     1      -7.093   2.344  -4.497  0.00  0.00    +0.002 C 
ENDBRANCH  18  19
ENDBRANCH  16  18
ENDBRANCH   8  11
ENDBRANCH   5   7
BRANCH   1  21
ATOM     21  S   UNL     1      -2.189  -0.469   2.026  0.00  0.00    +0.061 S 
ATOM     22  O   UNL     1      -3.217  -1.437   1.864  0.00  0.00    -0.153 OA
ATOM     23  O   UNL     1      -1.160  -0.606   2.996  0.00  0.00    -0.153 OA
BRANCH  21  24
ATOM     24  N   UNL     1      -1.439  -0.326   0.556  0.00  0.00    -0.177 NA
BRANCH  24  26
ATOM     25  C   UNL     1      -0.063   1.667   0.217  0.00  0.00    +0.022 C 
ATOM     26  C   UNL     1      -0.059   0.160   0.483  0.00  0.00    +0.106 C 
ENDBRANCH  24  26
BRANCH  24  27
ATOM     27  C   UNL     1      -2.155  -0.686  -0.670  0.00  0.00    +0.106 C 
ATOM     28  C   UNL     1      -1.821  -2.130  -1.050  0.00  0.00    +0.022 C 
ENDBRANCH  24  27
ENDBRANCH  21  24
ENDBRANCH   1  21
BRANCH   4  29
ATOM     29  O   UNL     1      -4.856   4.668   3.130  0.00  0.00    -0.505 OA
ATOM     30  H   UNL     1      -4.742   5.328   2.432  0.00  0.00    +0.292 HD
ENDBRANCH   4  29
TORSDOF 9
