REMARK  Name = ZINC24237717
REMARK  5 active torsions:
REMARK  status: ('A' for Active; 'I' for Inactive)
REMARK    1  A    between atoms: C_1  and  C_2
REMARK    2  A    between atoms: C_2  and  C_4
REMARK    3  A    between atoms: C_2  and  N_9
REMARK    4  A    between atoms: N_9  and  C_10
REMARK    5  A    between atoms: C_11  and  C_13
REMARK                            x       y       z     vdW  Elec       q    Type
REMARK                         _______ _______ _______ _____ _____    ______ ____
ROOT
ATOM      1  N   UNL     1      -0.682   1.652   1.187  0.00  0.00    -0.293 N 
ATOM      2  C   UNL     1       0.037   1.124   0.026  0.00  0.00    +0.133 C 
ATOM      3  C   UNL     1      -1.995   1.941   1.092  0.00  0.00    +0.252 C 
ATOM      4  O   UNL     1      -2.591   2.388   2.054  0.00  0.00    -0.270 OA
ENDROOT
BRANCH   3   5
ATOM      5  C   UNL     1      -2.710   1.715  -0.178  0.00  0.00    +0.101 A 
ATOM      6  C   UNL     1      -2.084   1.052  -1.240  0.00  0.00    +0.020 A 
ATOM      7  C   UNL     1      -2.801   0.857  -2.407  0.00  0.00    +0.018 A 
ATOM      8  C   UNL     1      -4.100   1.326  -2.494  0.00  0.00    +0.086 A 
ATOM      9  N   UNL     1      -4.669   1.952  -1.482  0.00  0.00    -0.328 N 
ATOM     10  C   UNL     1      -4.030   2.160  -0.344  0.00  0.00    +0.261 A 
ATOM     11  O   UNL     1      -4.654   2.808   0.669  0.00  0.00    -0.267 OA
ATOM     12  H   UNL     1      -5.704   2.304  -1.605  0.00  0.00    +0.168 HD
ENDBRANCH   3   5
BRANCH   1  14
ATOM     13  C   UNL     1       0.731   0.573   2.867  0.00  0.00    +0.034 C 
ATOM     14  C   UNL     1       0.025   1.866   2.452  0.00  0.00    +0.110 C 
BRANCH  14  15
ATOM     15  C   UNL     1       1.045   2.961   2.278  0.00  0.00    +0.010 A 
ATOM     16  C   UNL     1       1.311   4.017   3.086  0.00  0.00    +0.013 A 
ATOM     17  C   UNL     1       2.306   4.905   2.723  0.00  0.00    +0.008 A 
ATOM     18  C   UNL     1       2.980   4.700   1.565  0.00  0.00    +0.045 A 
ATOM     19  S   UNL     1       2.213   3.210   0.951  0.00  0.00    -0.100 S 
ENDBRANCH  14  15
ENDBRANCH   1  14
TORSDOF 3
