REMARK  Name = ZINC24879781
REMARK  7 active torsions:
REMARK  status: ('A' for Active; 'I' for Inactive)
REMARK    1  A    between atoms: C_1  and  C_2
REMARK    2  A    between atoms: C_2  and  C_4
REMARK    3  A    between atoms: C_2  and  O_13
REMARK    4  A    between atoms: N_9  and  C_10
REMARK    5  A    between atoms: O_13  and  C_14
REMARK    6  A    between atoms: C_14  and  C_16
REMARK    7  A    between atoms: C_18  and  N_24
REMARK                            x       y       z     vdW  Elec       q    Type
REMARK                         _______ _______ _______ _____ _____    ______ ____
ROOT
ATOM      1  O   UNL     1       0.693  -0.477   1.160  0.00  0.00    -0.448 OA
ENDROOT
BRANCH   1   3
ATOM      2  C   UNL     1      -0.019   1.526   0.010  0.00  0.00    +0.062 C 
ATOM      3  C   UNL     1       0.002  -0.004   0.002  0.00  0.00    +0.259 C 
BRANCH   3   4
ATOM      4  C   UNL     1      -1.412  -0.526   0.013  0.00  0.00    +0.261 C 
ATOM      5  O   UNL     1      -1.818  -1.157   0.965  0.00  0.00    -0.271 OA
ATOM      6  N   UNL     1      -2.225  -0.290  -1.036  0.00  0.00    -0.237 N 
ATOM      7  C   UNL     1      -3.489  -0.757  -1.027  0.00  0.00    +0.306 C 
ATOM      8  O   UNL     1      -3.896  -1.390  -0.072  0.00  0.00    -0.252 OA
ATOM      9  N   UNL     1      -4.302  -0.522  -2.075  0.00  0.00    -0.296 N 
ATOM     10  H   UNL     1      -1.900   0.215  -1.798  0.00  0.00    +0.159 HD
ATOM     11  H   UNL     1      -3.977  -0.017  -2.837  0.00  0.00    +0.151 HD
BRANCH   9  12
ATOM     12  C   UNL     1      -5.677  -1.029  -2.065  0.00  0.00    +0.075 C 
ATOM     13  C   UNL     1      -6.202  -1.673  -3.350  0.00  0.00    +0.024 C 
ATOM     14  C   UNL     1      -6.707  -0.293  -2.924  0.00  0.00    +0.024 C 
ENDBRANCH   9  12
ENDBRANCH   3   4
ENDBRANCH   1   3
BRANCH   1  15
ATOM     15  C   UNL     1       2.022  -0.663   1.045  0.00  0.00    +0.360 C 
ATOM     16  O   UNL     1       2.580  -0.429  -0.008  0.00  0.00    -0.243 OA
BRANCH  15  17
ATOM     17  C   UNL     1       2.804  -1.151   2.203  0.00  0.00    +0.169 A 
ATOM     18  C   UNL     1       4.178  -1.335   2.079  0.00  0.00    +0.095 A 
ATOM     19  C   UNL     1       4.901  -1.795   3.180  0.00  0.00    +0.067 A 
ATOM     20  C   UNL     1       4.210  -2.053   4.363  0.00  0.00    +0.100 A 
ATOM     21  C   UNL     1       2.841  -1.845   4.408  0.00  0.00    +0.150 A 
ATOM     22  N   UNL     1       2.187  -1.405   3.353  0.00  0.00    -0.226 NA
ATOM     23 CL   UNL     1       1.975  -2.164   5.878  0.00  0.00    -0.060 Cl
ATOM     24 CL   UNL     1       5.057  -2.628   5.766  0.00  0.00    -0.078 Cl
ATOM     25 CL   UNL     1       4.981  -0.996   0.577  0.00  0.00    -0.079 Cl
BRANCH  19  26
ATOM     26  N   UNL     1       6.277  -1.993   3.099  0.00  0.00    -0.356 N 
ATOM     27  H   UNL     1       6.746  -1.810   2.270  0.00  0.00    +0.142 HD
ATOM     28  H   UNL     1       6.768  -2.314   3.872  0.00  0.00    +0.142 HD
ENDBRANCH  19  26
ENDBRANCH  15  17
ENDBRANCH   1  15
TORSDOF 6
