REMARK  Name = ZINC06062857
REMARK  0 active torsions:
REMARK  status: ('A' for Active; 'I' for Inactive)
REMARK                            x       y       z     vdW  Elec       q    Type
REMARK                         _______ _______ _______ _____ _____    ______ ____
ROOT
ATOM      1  C   UNL     1      -1.221   1.761   0.017  0.00  0.00    +0.005 A 
ATOM      2  C   UNL     1      -0.013   1.076   0.008  0.00  0.00    +0.018 A 
ATOM      3  C   UNL     1       1.169   1.789   0.001  0.00  0.00    +0.084 A 
ATOM      4  C   UNL     1       0.033   3.798   0.021  0.00  0.00    +0.099 A 
ATOM      5  C   UNL     1      -1.195   3.144   0.029  0.00  0.00    +0.042 A 
ATOM      6  N   UNL     1       0.073   5.187   0.028  0.00  0.00    -0.314 N 
ATOM      7  C   UNL     1      -0.685   5.742  -1.102  0.00  0.00    +0.125 C 
ATOM      8  C   UNL     1      -0.683   7.270  -1.014  0.00  0.00    +0.126 C 
ATOM      9  N   UNL     1       0.704   7.756  -1.024  0.00  0.00    -0.305 N 
ATOM     10  C   UNL     1       1.462   7.202   0.107  0.00  0.00    +0.126 C 
ATOM     11  C   UNL     1       1.460   5.674   0.018  0.00  0.00    +0.125 C 
ATOM     12  C   UNL     1       0.744   9.146  -1.016  0.00  0.00    +0.186 A 
ATOM     13  N   UNL     1       1.343   9.960  -0.170  0.00  0.00    -0.124 NA
ATOM     14  N   UNL     1       1.256  11.321  -0.351  0.00  0.00    -0.125 NA
ATOM     15  C   UNL     1       0.572  11.805  -1.369  0.00  0.00    +0.180 A 
ATOM     16  S   UNL     1       0.004  10.306  -2.156  0.00  0.00    -0.016 S 
ATOM     17  N   UNL     1       0.356  13.129  -1.735  0.00  0.00    -0.336 N 
ATOM     18  H   UNL     1       0.736  13.847  -1.206  0.00  0.00    +0.144 HD
ATOM     19  H   UNL     1      -0.175  13.334  -2.521  0.00  0.00    +0.144 HD
ATOM     20  N   UNL     1       1.232   3.147   0.007  0.00  0.00    -0.350 N 
ATOM     21  H   UNL     1       2.126   3.652   0.001  0.00  0.00    +0.166 HD
ENDROOT
TORSDOF 0
