REMARK  Name = ZINC11568843
REMARK  7 active torsions:
REMARK  status: ('A' for Active; 'I' for Inactive)
REMARK    1  A    between atoms: C_1  and  C_2
REMARK    2  A    between atoms: N_6  and  C_15
REMARK    3  A    between atoms: C_10  and  N_14
REMARK    4  A    between atoms: C_15  and  C_16
REMARK    5  A    between atoms: C_16  and  C_18
REMARK    6  A    between atoms: C_16  and  O_20
REMARK    7  A    between atoms: C_18  and  O_19
REMARK                            x       y       z     vdW  Elec       q    Type
REMARK                         _______ _______ _______ _____ _____    ______ ____
ROOT
ATOM      1  C   UNL     1       4.888  -2.658   0.263  0.00  0.00    +0.062 C 
ATOM      2  C   UNL     1       3.621  -1.894   0.654  0.00  0.00    +0.256 C 
ATOM      3  C   UNL     1       2.408  -2.708   0.280  0.00  0.00    +0.260 C 
ATOM      4  O   UNL     1       2.473  -3.918   0.249  0.00  0.00    -0.271 OA
ATOM      5  N   UNL     1       1.250  -2.082  -0.022  0.00  0.00    -0.263 N 
ATOM      6  C   UNL     1       1.212  -0.678  -0.013  0.00  0.00    +0.079 A 
ATOM      7  C   UNL     1       0.002  -0.004   0.002  0.00  0.00    +0.029 A 
ATOM      8  C   UNL     1      -0.017   1.378   0.010  0.00  0.00    +0.025 A 
ATOM      9  C   UNL     1       1.175   2.091   0.002  0.00  0.00    +0.028 A 
ATOM     10  C   UNL     1       2.390   1.418  -0.013  0.00  0.00    +0.070 A 
ATOM     11  C   UNL     1       2.410   0.035  -0.020  0.00  0.00    +0.145 A 
ATOM     12  O   UNL     1       3.590  -0.641  -0.033  0.00  0.00    -0.478 OA
ENDROOT
BRANCH   9  13
ATOM     13  N   UNL     1       1.152   3.490   0.009  0.00  0.00    -0.358 N 
ATOM     14  H   UNL     1       0.304   3.961   0.020  0.00  0.00    +0.142 HD
ATOM     15  H   UNL     1       1.984   3.989   0.004  0.00  0.00    +0.142 HD
ENDBRANCH   9  13
BRANCH   5  16
ATOM     16  C   UNL     1       0.051  -2.857  -0.353  0.00  0.00    +0.147 C 
BRANCH  16  17
ATOM     17  C   UNL     1       0.006  -3.108  -1.861  0.00  0.00    +0.157 C 
BRANCH  17  18
ATOM     18  O   UNL     1      -0.030  -1.857  -2.551  0.00  0.00    -0.388 OA
ATOM     19  H   UNL     1      -0.794  -1.307  -2.330  0.00  0.00    +0.210 HD
ENDBRANCH  17  18
BRANCH  17  20
ATOM     20  C   UNL     1      -1.246  -3.916  -2.207  0.00  0.00    +0.188 C 
BRANCH  20  21
ATOM     21  O   UNL     1      -1.229  -4.250  -3.596  0.00  0.00    -0.392 OA
ATOM     22  H   UNL     1      -1.995  -4.764  -3.886  0.00  0.00    +0.210 HD
ENDBRANCH  20  21
ENDBRANCH  17  20
ENDBRANCH  16  17
ENDBRANCH   5  16
TORSDOF 6
