REMARK  Name = ZINC13131423
REMARK  3 active torsions:
REMARK  status: ('A' for Active; 'I' for Inactive)
REMARK    1  A    between atoms: C_1  and  C_2
REMARK    2  A    between atoms: C_6  and  C_8
REMARK    3  A    between atoms: C_11  and  C_20
REMARK                            x       y       z     vdW  Elec       q    Type
REMARK                         _______ _______ _______ _____ _____    ______ ____
ROOT
ATOM      1  C   UNL     1       0.054  -2.845   2.489  0.00  0.00    +0.143 C 
ATOM      2  C   UNL     1       1.314  -3.716   2.558  0.00  0.00    +0.058 C 
ATOM      3  C   UNL     1       1.204  -4.691   3.737  0.00  0.00    +0.106 C 
ATOM      4  N   UNL     1       0.052  -5.583   3.505  0.00  0.00    -0.307 N 
ATOM      5  C   UNL     1      -1.108  -4.979   3.038  0.00  0.00    +0.216 A 
ATOM      6  N   UNL     1      -1.125  -3.707   2.567  0.00  0.00    -0.224 N 
ATOM      7  N   UNL     1      -2.442  -3.433   2.196  0.00  0.00    -0.132 NA
ATOM      8  C   UNL     1      -3.141  -4.517   2.451  0.00  0.00    +0.233 A 
ATOM      9  N   UNL     1      -2.321  -5.457   2.960  0.00  0.00    -0.180 NA
ATOM     10  N   UNL     1      -4.510  -4.671   2.227  0.00  0.00    -0.326 N 
ATOM     11  H   UNL     1       0.102  -6.537   3.668  0.00  0.00    +0.149 HD
ATOM     12  H   UNL     1      -5.024  -3.939   1.851  0.00  0.00    +0.145 HD
ATOM     13  H   UNL     1      -4.946  -5.509   2.445  0.00  0.00    +0.145 HD
ENDROOT
BRANCH   1  19
ATOM     14  C   UNL     1      -0.018   1.503   0.010  0.00  0.00    +0.044 C 
ATOM     15  C   UNL     1       0.002  -0.004   0.002  0.00  0.00    -0.050 A 
ATOM     16  C   UNL     1       0.006  -0.689  -1.199  0.00  0.00    +0.003 A 
ATOM     17  C   UNL     1       0.025  -2.071  -1.207  0.00  0.00    +0.001 A 
ATOM     18  C   UNL     1       0.040  -2.768  -0.013  0.00  0.00    +0.006 A 
ATOM     19  C   UNL     1       0.037  -2.084   1.188  0.00  0.00    -0.023 A 
ATOM     20  C   UNL     1       0.023  -0.702   1.195  0.00  0.00    +0.009 A 
ENDBRANCH   1  19
BRANCH   3  21
ATOM     21  C   UNL     1       1.001  -3.918   5.014  0.00  0.00    -0.027 A 
ATOM     22  C   UNL     1      -0.255  -3.444   5.343  0.00  0.00    +0.006 A 
ATOM     23  C   UNL     1      -0.442  -2.736   6.516  0.00  0.00    +0.015 A 
ATOM     24  C   UNL     1       0.629  -2.501   7.360  0.00  0.00    +0.018 A 
ATOM     25  C   UNL     1       1.885  -2.976   7.030  0.00  0.00    +0.015 A 
ATOM     26  C   UNL     1       2.070  -3.688   5.860  0.00  0.00    +0.006 A 
ATOM     27 BR   UNL     1       0.374  -1.532   8.963  0.00  0.00    -0.050 Br
ENDBRANCH   3  21
TORSDOF 2
