REMARK  Name = ZINC00335924
REMARK  6 active torsions:
REMARK  status: ('A' for Active; 'I' for Inactive)
REMARK    1  A    between atoms: C_1  and  C_2
REMARK    2  A    between atoms: C_2  and  C_3
REMARK    3  A    between atoms: C_3  and  C_4
REMARK    4  A    between atoms: C_4  and  C_21
REMARK    5  A    between atoms: C_15  and  S_18
REMARK    6  A    between atoms: S_18  and  C_19
REMARK                            x       y       z     vdW  Elec       q    Type
REMARK                         _______ _______ _______ _____ _____    ______ ____
ROOT
ATOM      1  C   UNL     1       4.449  -0.558   1.219  0.00  0.00    +0.175 C 
ATOM      2  N   UNL     1       3.629  -0.644   0.015  0.00  0.00    -0.307 N 
ATOM      3  C   UNL     1       2.395   0.014  -0.009  0.00  0.00    +0.039 A 
ATOM      4  C   UNL     1       1.204  -0.688  -0.007  0.00  0.00    +0.023 A 
ATOM      5  C   UNL     1       0.002  -0.004   0.002  0.00  0.00    +0.002 A 
ATOM      6  C   UNL     1      -0.017   1.380   0.010  0.00  0.00    +0.001 A 
ATOM      7  C   UNL     1       1.165   2.095   0.002  0.00  0.00    +0.012 A 
ATOM      8  C   UNL     1       2.380   1.422  -0.013  0.00  0.00    +0.028 A 
ATOM      9  C   UNL     1       3.667   2.147  -0.038  0.00  0.00    +0.156 A 
ATOM     10  C   UNL     1       4.696   1.774   0.855  0.00  0.00    +0.248 A 
ATOM     11  N   UNL     1       5.844   2.429   0.811  0.00  0.00    -0.184 NA
ATOM     12  C   UNL     1       5.995   3.419  -0.064  0.00  0.00    +0.212 A 
ATOM     13  N   UNL     1       5.013   3.758  -0.890  0.00  0.00    -0.122 NA
ATOM     14  N   UNL     1       3.880   3.144  -0.883  0.00  0.00    -0.141 NA
ATOM     15  O   UNL     1       4.491   0.767   1.737  0.00  0.00    -0.451 OA
ATOM     16  C   UNL     1       5.872  -1.008   0.884  0.00  0.00    +0.078 C 
ATOM     17  H   UNL     1       3.934  -1.148  -0.756  0.00  0.00    +0.150 HD
ENDROOT
BRANCH  12  18
ATOM     18  S   UNL     1       7.522   4.296  -0.127  0.00  0.00    -0.088 S 
ATOM     19  C   UNL     1       7.153   5.475  -1.449  0.00  0.00    +0.093 C 
ENDBRANCH  12  18
BRANCH   1  20
ATOM     20  C   UNL     1       3.869  -1.491   2.284  0.00  0.00    +0.068 C 
BRANCH  20  22
ATOM     21  C   UNL     1       4.174  -2.386   4.597  0.00  0.00    +0.004 C 
ATOM     22  C   UNL     1       4.754  -1.452   3.532  0.00  0.00    +0.002 C 
ENDBRANCH  20  22
ENDBRANCH   1  20
TORSDOF 3
