REMARK  Name = ZINC05788403
REMARK  5 active torsions:
REMARK  status: ('A' for Active; 'I' for Inactive)
REMARK    1  A    between atoms: C_4  and  S_8
REMARK    2  A    between atoms: S_8  and  C_9
REMARK    3  A    between atoms: C_9  and  C_10
REMARK    4  A    between atoms: N_12  and  N_13
REMARK    5  A    between atoms: C_14  and  C_16
REMARK                            x       y       z     vdW  Elec       q    Type
REMARK                         _______ _______ _______ _____ _____    ______ ____
ROOT
ATOM      1  C   UNL     1      -7.281   1.168   2.100  0.00  0.00    +0.239 C 
ATOM      2  O   UNL     1      -6.886   1.865   3.009  0.00  0.00    -0.273 OA
ATOM      3  N   UNL     1      -6.457   0.859   1.079  0.00  0.00    -0.234 N 
ATOM      4  H   UNL     1      -6.774   0.301   0.352  0.00  0.00    +0.173 HD
ENDROOT
BRANCH   3   5
ATOM      5  N   UNL     1      -5.143   1.344   1.069  0.00  0.00    -0.234 N 
ATOM      6  C   UNL     1      -4.318   1.035   0.049  0.00  0.00    +0.235 C 
ATOM      7  O   UNL     1      -4.714   0.337  -0.861  0.00  0.00    -0.274 OA
ATOM      8  H   UNL     1      -4.826   1.902   1.797  0.00  0.00    +0.173 HD
BRANCH   6   9
ATOM      9  C   UNL     1      -2.904   1.556   0.038  0.00  0.00    +0.049 C 
ATOM     10  C   UNL     1      -2.188   1.063  -1.221  0.00  0.00    +0.019 C 
ATOM     11  C   UNL     1      -0.753   1.593  -1.232  0.00  0.00    -0.009 C 
ATOM     12  C   UNL     1      -0.013   1.086   0.008  0.00  0.00    +0.007 C 
ATOM     13  C   UNL     1      -0.729   1.579   1.267  0.00  0.00    -0.009 C 
ATOM     14  C   UNL     1      -2.164   1.050   1.278  0.00  0.00    +0.019 C 
ATOM     15  C   UNL     1      -0.750   3.109   1.275  0.00  0.00    +0.007 C 
ATOM     16  C   UNL     1      -1.490   3.616   0.036  0.00  0.00    -0.009 C 
ATOM     17  C   UNL     1      -0.773   3.123  -1.223  0.00  0.00    +0.007 C 
ATOM     18  C   UNL     1      -2.925   3.086   0.047  0.00  0.00    +0.019 C 
ENDBRANCH   6   9
ENDBRANCH   3   5
BRANCH   1  19
ATOM     19  C   UNL     1      -8.695   0.646   2.110  0.00  0.00    +0.171 C 
BRANCH  19  20
ATOM     20  S   UNL     1      -9.544   1.231   3.603  0.00  0.00    -0.114 S 
BRANCH  20  24
ATOM     21  C   UNL     1     -13.705  -0.529   3.259  0.00  0.00    +0.021 A 
ATOM     22  C   UNL     1     -13.375   0.253   4.351  0.00  0.00    +0.022 A 
ATOM     23  C   UNL     1     -12.107   0.792   4.460  0.00  0.00    +0.054 A 
ATOM     24  C   UNL     1     -11.162   0.546   3.469  0.00  0.00    +0.028 A 
ATOM     25  C   UNL     1     -11.498  -0.236   2.372  0.00  0.00    +0.036 A 
ATOM     26  C   UNL     1     -12.768  -0.775   2.272  0.00  0.00    +0.042 A 
ATOM     27 CL   UNL     1     -13.187  -1.758   0.903  0.00  0.00    -0.084 Cl
ATOM     28 CL   UNL     1     -11.694   1.773   5.830  0.00  0.00    -0.082 Cl
ENDBRANCH  20  24
ENDBRANCH  19  20
ENDBRANCH   1  19
TORSDOF 5
