REMARK  Name = ZINC44608245
REMARK  11 active torsions:
REMARK  status: ('A' for Active; 'I' for Inactive)
REMARK    1  A    between atoms: C_1  and  C_2
REMARK    2  A    between atoms: C_4  and  N_17
REMARK    3  A    between atoms: C_6  and  O_16
REMARK    4  A    between atoms: C_8  and  O_14
REMARK    5  A    between atoms: C_10  and  O_13
REMARK    6  A    between atoms: O_14  and  C_15
REMARK    7  A    between atoms: C_18  and  C_20
REMARK    8  A    between atoms: C_20  and  C_21
REMARK    9  A    between atoms: C_21  and  C_22
REMARK   10  A    between atoms: C_21  and  C_23
REMARK   11  A    between atoms: C_21  and  O_24
REMARK                            x       y       z     vdW  Elec       q    Type
REMARK                         _______ _______ _______ _____ _____    ______ ____
ROOT
ATOM      1  C   UNL     1       0.096   1.189   0.001  0.00  0.00    +0.040 C 
ATOM      2  C   UNL     1       0.276  -0.321  -0.163  0.00  0.00    +0.141 C 
ATOM      3  C   UNL     1       0.996  -0.608  -1.484  0.00  0.00    +0.133 C 
ATOM      4  C   UNL     1       1.226  -2.117  -1.613  0.00  0.00    +0.171 C 
ATOM      5  C   UNL     1       2.021  -2.607  -0.399  0.00  0.00    +0.204 C 
ATOM      6  C   UNL     1       1.262  -2.243   0.880  0.00  0.00    +0.279 C 
ATOM      7  O   UNL     1       1.054  -0.830   0.922  0.00  0.00    -0.344 OA
ENDROOT
BRANCH   3   8
ATOM      8  N   UNL     1       0.173  -0.140  -2.602  0.00  0.00    -0.307 N 
ATOM      9  C   UNL     1       0.241   1.147  -2.995  0.00  0.00    +0.216 C 
ATOM     10  O   UNL     1       0.983   1.918  -2.423  0.00  0.00    -0.276 OA
ATOM     11  H   UNL     1      -0.420  -0.756  -3.059  0.00  0.00    +0.149 HD
BRANCH   9  12
ATOM     12  C   UNL     1      -0.605   1.629  -4.145  0.00  0.00    +0.130 C 
BRANCH  12  13
ATOM     13  C   UNL     1      -0.230   3.074  -4.484  0.00  0.00    +0.069 C 
ATOM     14  C   UNL     1       1.246   3.138  -4.883  0.00  0.00    +0.041 C 
ATOM     15  C   UNL     1      -1.095   3.566  -5.646  0.00  0.00    +0.041 C 
BRANCH  13  16
ATOM     16  O   UNL     1      -0.451   3.904  -3.341  0.00  0.00    -0.389 OA
ATOM     17  H   UNL     1       0.066   3.649  -2.565  0.00  0.00    +0.210 HD
ENDBRANCH  13  16
ENDBRANCH  12  13
ENDBRANCH   9  12
ENDBRANCH   3   8
BRANCH   6  18
ATOM     18  O   UNL     1       2.024  -2.647   2.019  0.00  0.00    -0.365 OA
ATOM     19  H   UNL     1       1.602  -2.447   2.865  0.00  0.00    +0.213 HD
ENDBRANCH   6  18
BRANCH   5  20
ATOM     20  O   UNL     1       3.307  -1.983  -0.386  0.00  0.00    -0.372 OA
ATOM     21  C   UNL     1       4.333  -2.779   0.210  0.00  0.00    +0.194 C 
ENDBRANCH   5  20
BRANCH   4  22
ATOM     22  O   UNL     1      -0.033  -2.790  -1.665  0.00  0.00    -0.387 OA
ATOM     23  H   UNL     1       0.037  -3.751  -1.747  0.00  0.00    +0.210 HD
ENDBRANCH   4  22
TORSDOF 7
