REMARK  Name = ZINC06903436
REMARK  9 active torsions:
REMARK  status: ('A' for Active; 'I' for Inactive)
REMARK    1  A    between atoms: C_1  and  C_2
REMARK    2  A    between atoms: C_4  and  C_26
REMARK    3  A    between atoms: C_6  and  C_8
REMARK    4  A    between atoms: N_10  and  C_11
REMARK    5  A    between atoms: C_11  and  C_12
REMARK    6  A    between atoms: C_12  and  O_14
REMARK    7  A    between atoms: O_14  and  C_15
REMARK    8  A    between atoms: C_15  and  C_16
REMARK    9  A    between atoms: C_23  and  C_25
REMARK                            x       y       z     vdW  Elec       q    Type
REMARK                         _______ _______ _______ _____ _____    ______ ____
ROOT
ATOM      1  C   UNL     1       7.576  -2.346  -1.761  0.00  0.00    +0.225 C 
ENDROOT
BRANCH   1   4
ATOM      2  C   UNL     1       9.997  -2.605  -1.852  0.00  0.00    +0.245 C 
ATOM      3  O   UNL     1       9.835  -3.801  -1.992  0.00  0.00    -0.270 OA
ATOM      4  N   UNL     1       8.931  -1.790  -1.727  0.00  0.00    -0.301 N 
ATOM      5  H   UNL     1       9.060  -0.835  -1.615  0.00  0.00    +0.150 HD
BRANCH   2  11
ATOM      6  C   UNL     1      13.040   1.330  -1.452  0.00  0.00    +0.044 C 
ATOM      7  C   UNL     1      12.833  -0.153  -1.626  0.00  0.00    -0.049 A 
ATOM      8  C   UNL     1      13.925  -0.992  -1.754  0.00  0.00    +0.006 A 
ATOM      9  C   UNL     1      13.744  -2.354  -1.914  0.00  0.00    -0.049 A 
ATOM     10  C   UNL     1      12.471  -2.884  -1.947  0.00  0.00    +0.016 A 
ATOM     11  C   UNL     1      11.364  -2.043  -1.818  0.00  0.00    +0.037 A 
ATOM     12  C   UNL     1      11.554  -0.669  -1.662  0.00  0.00    +0.016 A 
ATOM     13  C   UNL     1      14.940  -3.260  -2.054  0.00  0.00    +0.044 C 
ENDBRANCH   2  11
ENDBRANCH   1   4
BRANCH   1  14
ATOM     14  C   UNL     1       6.572  -1.234  -1.602  0.00  0.00    +0.325 C 
ATOM     15  O   UNL     1       6.949  -0.093  -1.473  0.00  0.00    -0.249 OA
BRANCH  14  16
ATOM     16  O   UNL     1       5.258  -1.510  -1.603  0.00  0.00    -0.454 OA
BRANCH  16  17
ATOM     17  C   UNL     1       4.349  -0.389  -1.445  0.00  0.00    +0.327 C 
BRANCH  17  18
ATOM     18  C   UNL     1       2.927  -0.888  -1.470  0.00  0.00    +0.254 C 
ATOM     19  O   UNL     1       2.703  -2.072  -1.608  0.00  0.00    -0.272 OA
ATOM     20  N   UNL     1       1.905  -0.019  -1.340  0.00  0.00    -0.296 N 
ATOM     21  C   UNL     1       2.155   1.428  -1.298  0.00  0.00    +0.108 C 
ATOM     22  C   UNL     1       1.498   2.006  -0.040  0.00  0.00    +0.019 C 
ATOM     23  C   UNL     1       0.016   1.622  -0.022  0.00  0.00    +0.003 C 
ATOM     24  C   UNL     1      -0.117   0.098   0.020  0.00  0.00    +0.022 C 
ATOM     25  C   UNL     1       0.521  -0.501  -1.237  0.00  0.00    +0.073 C 
ATOM     26  C   UNL     1       0.512  -2.028  -1.139  0.00  0.00    +0.028 C 
ENDBRANCH  17  18
ENDBRANCH  16  17
ENDBRANCH  14  16
ENDBRANCH   1  14
TORSDOF 6
