REMARK  Name = ZINC67323113
REMARK  9 active torsions:
REMARK  status: ('A' for Active; 'I' for Inactive)
REMARK    1  A    between atoms: C_1  and  C_2
REMARK    2  A    between atoms: N_5  and  C_11
REMARK    3  A    between atoms: C_7  and  C_10
REMARK    4  A    between atoms: C_11  and  C_12
REMARK    5  A    between atoms: C_12  and  N_13
REMARK    6  A    between atoms: N_16  and  C_17
REMARK    7  A    between atoms: C_21  and  N_23
REMARK    8  A    between atoms: C_24  and  O_26
REMARK    9  A    between atoms: O_26  and  C_27
REMARK                            x       y       z     vdW  Elec       q    Type
REMARK                         _______ _______ _______ _____ _____    ______ ____
ROOT
ATOM      1  N   UNL     1       4.904  -0.211  -3.721  0.00  0.00    -0.298 N 
ATOM      2  C   UNL     1       6.132   0.284  -3.976  0.00  0.00    +0.304 C 
ATOM      3  O   UNL     1       6.648   1.061  -3.196  0.00  0.00    -0.253 OA
ATOM      4  N   UNL     1       6.787  -0.082  -5.095  0.00  0.00    -0.269 N 
ATOM      5  H   UNL     1       4.492  -0.831  -4.343  0.00  0.00    +0.150 HD
ATOM      6  H   UNL     1       6.405  -0.752  -5.684  0.00  0.00    +0.156 HD
ENDROOT
BRANCH   4   7
ATOM      7  C   UNL     1       8.020   0.504  -5.408  0.00  0.00    +0.037 A 
ATOM      8  C   UNL     1       8.908   0.839  -4.394  0.00  0.00    +0.026 A 
ATOM      9  C   UNL     1      10.124   1.417  -4.701  0.00  0.00    +0.042 A 
ATOM     10  C   UNL     1      10.462   1.664  -6.019  0.00  0.00    +0.145 A 
ATOM     11  C   UNL     1       9.577   1.331  -7.039  0.00  0.00    +0.073 A 
ATOM     12  C   UNL     1       8.358   0.745  -6.732  0.00  0.00    +0.049 A 
ATOM     13  F   UNL     1      11.653   2.229  -6.317  0.00  0.00    -0.204 F 
BRANCH  11  14
ATOM     14  N   UNL     1       9.919   1.581  -8.374  0.00  0.00    -0.248 N 
ATOM     15  C   UNL     1       8.965   1.934  -9.259  0.00  0.00    +0.404 C 
ATOM     16  O   UNL     1       7.799   1.955  -8.919  0.00  0.00    -0.226 OA
ATOM     17  H   UNL     1      10.841   1.500  -8.662  0.00  0.00    +0.158 HD
BRANCH  15  18
ATOM     18  O   UNL     1       9.305   2.264 -10.519  0.00  0.00    -0.453 OA
ATOM     19  C   UNL     1       8.243   2.628 -11.403  0.00  0.00    +0.282 C 
ENDBRANCH  15  18
ENDBRANCH  11  14
ENDBRANCH   4   7
BRANCH   1  20
ATOM     20  C   UNL     1       4.192   0.187  -2.504  0.00  0.00    +0.121 C 
BRANCH  20  21
ATOM     21  C   UNL     1       2.832  -0.512  -2.458  0.00  0.00    +0.103 C 
BRANCH  21  25
ATOM     22  C   UNL     1      -0.032   1.444   0.000  0.00  0.00    +0.039 C 
ATOM     23  C   UNL     1       0.000  -0.085  -0.011  0.00  0.00    +0.130 C 
ATOM     24  C   UNL     1       0.722  -0.573  -1.270  0.00  0.00    +0.115 C 
ATOM     25  N   UNL     1       2.118  -0.113  -1.237  0.00  0.00    -0.296 NA
ATOM     26  C   UNL     1       2.803  -0.616  -0.038  0.00  0.00    +0.115 C 
ATOM     27  C   UNL     1       2.061  -0.128   1.209  0.00  0.00    +0.130 C 
ATOM     28  O   UNL     1       0.697  -0.557   1.145  0.00  0.00    -0.371 OA
ATOM     29  C   UNL     1       2.723  -0.712   2.459  0.00  0.00    +0.039 C 
ENDBRANCH  21  25
ENDBRANCH  20  21
ENDBRANCH   1  20
TORSDOF 6
