REMARK  Name = ZINC14242157
REMARK  10 active torsions:
REMARK  status: ('A' for Active; 'I' for Inactive)
REMARK    1  A    between atoms: C_1  and  C_2
REMARK    2  A    between atoms: C_2  and  C_25
REMARK    3  A    between atoms: N_5  and  N_9
REMARK    4  A    between atoms: C_10  and  C_12
REMARK    5  A    between atoms: C_12  and  N_13
REMARK    6  A    between atoms: C_14  and  C_16
REMARK    7  A    between atoms: N_18  and  C_19
REMARK    8  A    between atoms: C_19  and  C_20
REMARK    9  A    between atoms: C_25  and  C_26
REMARK   10  A    between atoms: C_26  and  C_27
REMARK                            x       y       z     vdW  Elec       q    Type
REMARK                         _______ _______ _______ _____ _____    ______ ____
ROOT
ATOM      1  N   UNL     1      -0.855   1.675   8.535  0.00  0.00    -0.222 N 
ATOM      2  C   UNL     1      -0.402   1.362   7.305  0.00  0.00    +0.247 C 
ATOM      3  O   UNL     1       0.593   0.679   7.181  0.00  0.00    -0.273 OA
ATOM      4  H   UNL     1      -1.650   2.221   8.635  0.00  0.00    +0.174 HD
ENDROOT
BRANCH   1   9
ATOM      5  C   UNL     1       2.647   0.970  11.493  0.00  0.00    +0.041 C 
ATOM      6  C   UNL     1       1.121   1.064  11.544  0.00  0.00    +0.112 C 
ATOM      7  C   UNL     1       0.606   1.980  10.452  0.00  0.00    +0.263 C 
ATOM      8  O   UNL     1       0.849   3.159  10.310  0.00  0.00    -0.271 OA
ATOM      9  N   UNL     1      -0.177   1.210   9.670  0.00  0.00    -0.137 N 
ATOM     10  C   UNL     1      -0.233  -0.050  10.115  0.00  0.00    +0.326 C 
ATOM     11  O   UNL     1      -0.879  -0.928   9.579  0.00  0.00    -0.251 OA
ATOM     12  N   UNL     1       0.510  -0.237  11.221  0.00  0.00    -0.284 N 
ATOM     13  H   UNL     1       0.619  -1.067  11.713  0.00  0.00    +0.151 HD
BRANCH   6  14
ATOM     14  C   UNL     1       0.658   1.553  12.918  0.00  0.00    +0.040 C 
BRANCH  14  15
ATOM     15  C   UNL     1       1.191   0.611  14.000  0.00  0.00    +0.038 C 
BRANCH  15  16
ATOM     16  C   UNL     1       0.736   1.093  15.354  0.00  0.00    -0.047 A 
ATOM     17  C   UNL     1       1.519   1.978  16.072  0.00  0.00    +0.003 A 
ATOM     18  C   UNL     1       1.099   2.423  17.311  0.00  0.00    +0.000 A 
ATOM     19  C   UNL     1      -0.099   1.976  17.837  0.00  0.00    +0.000 A 
ATOM     20  C   UNL     1      -0.878   1.086  17.122  0.00  0.00    +0.000 A 
ATOM     21  C   UNL     1      -0.461   0.645  15.880  0.00  0.00    +0.003 A 
ENDBRANCH  15  16
ENDBRANCH  14  15
ENDBRANCH   6  14
ENDBRANCH   1   9
BRANCH   2  22
ATOM     22  C   UNL     1      -1.131   1.861   6.084  0.00  0.00    +0.202 C 
BRANCH  22  23
ATOM     23  N   UNL     1      -0.445   1.389   4.879  0.00  0.00    -0.299 N 
ATOM     24  C   UNL     1      -0.921   1.714   3.661  0.00  0.00    +0.299 C 
ATOM     25  O   UNL     1      -1.919   2.399   3.563  0.00  0.00    -0.265 OA
ATOM     26  H   UNL     1       0.352   0.841   4.957  0.00  0.00    +0.150 HD
BRANCH  24  27
ATOM     27  C   UNL     1      -0.222   1.232   2.431  0.00  0.00    +0.299 C 
ATOM     28  O   UNL     1       0.775   0.548   2.529  0.00  0.00    -0.265 OA
ATOM     29  N   UNL     1      -0.698   1.558   1.213  0.00  0.00    -0.300 N 
ATOM     30  H   UNL     1      -1.495   2.106   1.135  0.00  0.00    +0.150 HD
BRANCH  29  31
ATOM     31  C   UNL     1      -0.013   1.086   0.008  0.00  0.00    +0.179 C 
BRANCH  31  32
ATOM     32  C   UNL     1      -0.742   1.585  -1.213  0.00  0.00    +0.122 A 
ATOM     33  C   UNL     1      -0.504   2.745  -1.851  0.00  0.00    +0.046 A 
ATOM     34  C   UNL     1      -1.411   2.810  -2.934  0.00  0.00    +0.041 A 
ATOM     35  C   UNL     1      -2.148   1.685  -2.893  0.00  0.00    +0.195 A 
ATOM     36  O   UNL     1      -1.734   0.945  -1.851  0.00  0.00    -0.466 OA
ENDBRANCH  31  32
ENDBRANCH  29  31
ENDBRANCH  24  27
ENDBRANCH  22  23
ENDBRANCH   2  22
TORSDOF 9
