REMARK  Name = ZINC45508747
REMARK  8 active torsions:
REMARK  status: ('A' for Active; 'I' for Inactive)
REMARK    1  A    between atoms: C_1  and  C_2
REMARK    2  A    between atoms: C_2  and  C_3
REMARK    3  A    between atoms: C_2  and  C_16
REMARK    4  A    between atoms: C_2  and  N_20
REMARK    5  A    between atoms: C_3  and  O_4
REMARK    6  A    between atoms: O_4  and  C_5
REMARK    7  A    between atoms: C_16  and  O_18
REMARK    8  A    between atoms: O_18  and  C_19
REMARK                            x       y       z     vdW  Elec       q    Type
REMARK                         _______ _______ _______ _____ _____    ______ ____
ROOT
ATOM      1  C   UNL     1       2.881  -0.377   2.271  0.00  0.00    +0.121 A 
ATOM      2  C   UNL     1       2.385  -1.194   3.276  0.00  0.00    +0.047 A 
ATOM      3  C   UNL     1       3.195  -1.560   4.332  0.00  0.00    +0.027 A 
ATOM      4  C   UNL     1       4.508  -1.110   4.388  0.00  0.00    +0.037 A 
ATOM      5  C   UNL     1       5.004  -0.292   3.382  0.00  0.00    -0.022 A 
ATOM      6  C   UNL     1       4.194   0.069   2.324  0.00  0.00    +0.051 A 
ATOM      7  C   UNL     1       6.428   0.193   3.445  0.00  0.00    +0.046 C 
ATOM      8  C   UNL     1       6.828   0.418   4.904  0.00  0.00    +0.101 C 
ATOM      9  C   UNL     1       6.450  -0.782   5.729  0.00  0.00    +0.218 C 
ATOM     10  O   UNL     1       7.162  -1.124   6.650  0.00  0.00    -0.275 OA
ATOM     11  N   UNL     1       5.332  -1.480   5.458  0.00  0.00    -0.285 N 
ATOM     12  H   UNL     1       5.096  -2.244   6.007  0.00  0.00    +0.155 HD
ENDROOT
BRANCH   1  13
ATOM     13  O   UNL     1       2.083  -0.016   1.231  0.00  0.00    -0.490 OA
BRANCH  13  14
ATOM     14  C   UNL     1       0.742  -0.511   1.242  0.00  0.00    +0.262 C 
BRANCH  14  16
ATOM     15  C   UNL     1      -0.019   1.526   0.010  0.00  0.00    +0.043 C 
ATOM     16  C   UNL     1       0.002  -0.004   0.002  0.00  0.00    +0.146 C 
BRANCH  16  17
ATOM     17  N   UNL     1       0.690  -0.478  -1.207  0.00  0.00    -0.313 NA
ATOM     18  H   UNL     1       0.717  -1.486  -1.236  0.00  0.00    +0.119 HD
ATOM     19  H   UNL     1       0.258  -0.104  -2.038  0.00  0.00    +0.119 HD
ENDBRANCH  16  17
BRANCH  16  20
ATOM     20  C   UNL     1      -1.412  -0.526   0.013  0.00  0.00    +0.330 C 
ATOM     21  O   UNL     1      -1.937  -0.826   1.059  0.00  0.00    -0.249 OA
BRANCH  20  22
ATOM     22  O   UNL     1      -2.087  -0.657  -1.140  0.00  0.00    -0.467 OA
ATOM     23  C   UNL     1      -3.423  -1.157  -1.055  0.00  0.00    +0.280 C 
ENDBRANCH  20  22
ENDBRANCH  16  20
ENDBRANCH  14  16
ENDBRANCH  13  14
ENDBRANCH   1  13
TORSDOF 6
