REMARK  Name = ZINC11507281
REMARK  12 active torsions:
REMARK  status: ('A' for Active; 'I' for Inactive)
REMARK    1  A    between atoms: C_1  and  C_2
REMARK    2  A    between atoms: C_2  and  C_3
REMARK    3  A    between atoms: C_2  and  C_4
REMARK    4  A    between atoms: C_4  and  C_6
REMARK    5  A    between atoms: C_4  and  N_20
REMARK    6  A    between atoms: N_8  and  N_9
REMARK    7  A    between atoms: N_9  and  C_10
REMARK    8  A    between atoms: C_10  and  N_12
REMARK    9  A    between atoms: N_12  and  C_13
REMARK   10  A    between atoms: C_13  and  C_14
REMARK   11  A    between atoms: C_14  and  C_15
REMARK   12  A    between atoms: C_21  and  C_23
REMARK                            x       y       z     vdW  Elec       q    Type
REMARK                         _______ _______ _______ _____ _____    ______ ____
ROOT
ATOM      1  C   UNL     1      -2.586  -4.481  -0.182  0.00  0.00    +0.250 C 
ATOM      2  O   UNL     1      -1.470  -4.726  -0.589  0.00  0.00    -0.272 OA
ATOM      3  N   UNL     1      -3.557  -5.411  -0.277  0.00  0.00    -0.234 N 
ATOM      4  H   UNL     1      -4.429  -5.243   0.113  0.00  0.00    +0.173 HD
ENDROOT
BRANCH   3   5
ATOM      5  N   UNL     1      -3.307  -6.620  -0.940  0.00  0.00    -0.246 N 
ATOM      6  H   UNL     1      -2.435  -6.787  -1.330  0.00  0.00    +0.172 HD
BRANCH   5   7
ATOM      7  C   UNL     1      -4.278  -7.549  -1.035  0.00  0.00    +0.147 C 
ATOM      8  S   UNL     1      -3.972  -9.026  -1.845  0.00  0.00    -0.017 S 
BRANCH   7   9
ATOM      9  N   UNL     1      -5.490  -7.316  -0.493  0.00  0.00    -0.325 N 
ATOM     10  H   UNL     1      -5.663  -6.479  -0.035  0.00  0.00    +0.148 HD
BRANCH   9  11
ATOM     11  C   UNL     1      -6.545  -8.327  -0.597  0.00  0.00    +0.108 C 
BRANCH  11  12
ATOM     12  C   UNL     1      -7.810  -7.816   0.096  0.00  0.00    +0.061 C 
BRANCH  12  13
ATOM     13  C   UNL     1      -8.896  -8.856  -0.011  0.00  0.00    -0.009 A 
ATOM     14  C   UNL     1      -9.185  -9.878   0.831  0.00  0.00    +0.011 A 
ATOM     15  C   UNL     1     -10.242 -10.716   0.530  0.00  0.00    +0.008 A 
ATOM     16  C   UNL     1     -10.952 -10.497  -0.603  0.00  0.00    +0.045 A 
ATOM     17  S   UNL     1     -10.130  -9.066  -1.284  0.00  0.00    -0.102 S 
ENDBRANCH  12  13
ENDBRANCH  11  12
ENDBRANCH   9  11
ENDBRANCH   7   9
ENDBRANCH   5   7
ENDBRANCH   3   5
BRANCH   1  18
ATOM     18  C   UNL     1      -2.887  -3.137   0.431  0.00  0.00    +0.163 C 
BRANCH  18  19
ATOM     19  N   UNL     1      -1.849  -2.180   0.042  0.00  0.00    -0.300 N 
ATOM     20  C   UNL     1      -2.123  -0.860   0.019  0.00  0.00    +0.246 C 
ATOM     21  O   UNL     1      -3.232  -0.465   0.322  0.00  0.00    -0.270 OA
ATOM     22  H   UNL     1      -0.964  -2.495  -0.200  0.00  0.00    +0.150 HD
BRANCH  20  23
ATOM     23  C   UNL     1      -1.076   0.105  -0.373  0.00  0.00    +0.055 A 
ATOM     24  C   UNL     1       0.199  -0.345  -0.721  0.00  0.00    +0.014 A 
ATOM     25  C   UNL     1       1.171   0.561  -1.087  0.00  0.00    +0.001 A 
ATOM     26  C   UNL     1       0.887   1.916  -1.110  0.00  0.00    +0.001 A 
ATOM     27  C   UNL     1      -0.373   2.370  -0.765  0.00  0.00    +0.021 A 
ATOM     28  C   UNL     1      -1.357   1.474  -0.397  0.00  0.00    +0.053 A 
ATOM     29 CL   UNL     1      -2.940   2.045   0.027  0.00  0.00    -0.083 Cl
ENDBRANCH  20  23
ENDBRANCH  18  19
BRANCH  18  31
ATOM     30  C   UNL     1      -1.524  -3.647   2.461  0.00  0.00    +0.009 C 
ATOM     31  C   UNL     1      -2.916  -3.267   1.955  0.00  0.00    +0.012 C 
ATOM     32  C   UNL     1      -3.336  -1.931   2.572  0.00  0.00    +0.009 C 
ENDBRANCH  18  31
ENDBRANCH   1  18
TORSDOF 10
