REMARK  Name = ZINC22021440
REMARK  8 active torsions:
REMARK  status: ('A' for Active; 'I' for Inactive)
REMARK    1  A    between atoms: C_1  and  O_2
REMARK    2  A    between atoms: O_2  and  C_3
REMARK    3  A    between atoms: C_3  and  C_5
REMARK    4  A    between atoms: C_6  and  S_10
REMARK    5  A    between atoms: S_10  and  N_13
REMARK    6  A    between atoms: N_13  and  C_14
REMARK    7  A    between atoms: C_17  and  S_20
REMARK    8  A    between atoms: S_20  and  N_23
REMARK                            x       y       z     vdW  Elec       q    Type
REMARK                         _______ _______ _______ _____ _____    ______ ____
ROOT
ATOM      1  C   UNL     1      -7.024   4.318   3.883  0.00  0.00    +0.048 A 
ATOM      2  C   UNL     1      -5.842   4.665   4.526  0.00  0.00    +0.026 A 
ATOM      3  C   UNL     1      -4.671   4.778   3.802  0.00  0.00    +0.031 A 
ATOM      4  C   UNL     1      -4.674   4.547   2.439  0.00  0.00    +0.113 A 
ATOM      5  C   UNL     1      -5.849   4.207   1.795  0.00  0.00    +0.031 A 
ATOM      6  C   UNL     1      -7.023   4.086   2.513  0.00  0.00    +0.026 A 
ENDROOT
BRANCH   4   7
ATOM      7  S   UNL     1      -3.178   4.693   1.520  0.00  0.00    +0.100 S 
ATOM      8  O   UNL     1      -2.376   5.649   2.199  0.00  0.00    -0.146 OA
ATOM      9  O   UNL     1      -3.552   4.842   0.157  0.00  0.00    -0.146 OA
BRANCH   7  10
ATOM     10  N   UNL     1      -2.387   3.243   1.638  0.00  0.00    -0.118 NA
ATOM     11  C   UNL     1      -1.249   3.077   1.047  0.00  0.00    +0.117 C 
ATOM     12  C   UNL     1      -0.668   4.205   0.267  0.00  0.00    +0.073 C 
ATOM     13  C   UNL     1      -1.056   4.076  -1.222  0.00  0.00    +0.008 C 
ATOM     14  C   UNL     1      -0.357   2.928  -1.842  0.00  0.00    +0.002 C 
ATOM     15  C   UNL     1      -0.730   1.573  -1.259  0.00  0.00    +0.019 C 
ATOM     16  C   UNL     1       0.089   1.288  -0.023  0.00  0.00    +0.102 C 
ATOM     17  N   UNL     1      -0.602   1.855   1.160  0.00  0.00    -0.331 N 
ATOM     18  H   UNL     1      -0.598   1.308   2.114  0.00  0.00    +0.147 HD
ENDBRANCH   7  10
ENDBRANCH   4   7
BRANCH   1  19
ATOM     19  N   UNL     1      -8.209   4.202   4.612  0.00  0.00    -0.216 N 
ATOM     20  H   UNL     1      -8.218   3.650   5.563  0.00  0.00    +0.174 HD
BRANCH  19  21
ATOM     21  S   UNL     1      -9.602   4.894   4.043  0.00  0.00    +0.074 S 
ATOM     22  O   UNL     1     -10.613   4.620   5.003  0.00  0.00    -0.150 OA
ATOM     23  O   UNL     1      -9.266   6.216   3.647  0.00  0.00    -0.150 OA
BRANCH  21  25
ATOM     24  C   UNL     1     -10.379   2.680   2.602  0.00  0.00    +0.123 A 
ATOM     25  C   UNL     1     -10.053   4.028   2.576  0.00  0.00    +0.130 A 
ATOM     26  C   UNL     1     -10.092   4.657   1.357  0.00  0.00    +0.037 A 
ATOM     27  C   UNL     1     -10.446   3.945   0.254  0.00  0.00    +0.048 A 
ATOM     28  S   UNL     1     -10.740   2.357   0.885  0.00  0.00    -0.088 S 
BRANCH  24  29
ATOM     29  C   UNL     1     -10.418   1.762   3.742  0.00  0.00    +0.348 C 
ATOM     30  O   UNL     1     -10.225   2.181   4.867  0.00  0.00    -0.244 OA
BRANCH  29  32
ATOM     31  C   UNL     1     -10.803  -0.380   4.727  0.00  0.00    +0.280 C 
ATOM     32  O   UNL     1     -10.668   0.451   3.544  0.00  0.00    -0.464 OA
ENDBRANCH  29  32
ENDBRANCH  24  29
ENDBRANCH  21  25
ENDBRANCH  19  21
ENDBRANCH   1  19
TORSDOF 7
