REMARK  Name = ZINC57420682
REMARK  10 active torsions:
REMARK  status: ('A' for Active; 'I' for Inactive)
REMARK    1  A    between atoms: C_1  and  C_2
REMARK    2  A    between atoms: C_3  and  C_33
REMARK    3  A    between atoms: C_11  and  C_13
REMARK    4  A    between atoms: C_13  and  C_14
REMARK    5  A    between atoms: N_16  and  N_17
REMARK    6  A    between atoms: N_25  and  C_28
REMARK    7  A    between atoms: C_28  and  C_29
REMARK    8  A    between atoms: C_29  and  C_30
REMARK    9  A    between atoms: C_30  and  C_31
REMARK   10  A    between atoms: C_30  and  C_32
REMARK                            x       y       z     vdW  Elec       q    Type
REMARK                         _______ _______ _______ _____ _____    ______ ____
ROOT
ATOM      1  C   UNL     1       0.105  -4.851   4.038  0.00  0.00    +0.240 C 
ATOM      2  O   UNL     1       0.097  -5.067   2.845  0.00  0.00    -0.274 OA
ATOM      3  N   UNL     1       0.126  -5.879   4.909  0.00  0.00    -0.206 N 
ATOM      4  H   UNL     1       0.132  -5.706   5.864  0.00  0.00    +0.177 HD
ENDROOT
BRANCH   3   5
ATOM      5  N   UNL     1       0.140  -7.197   4.436  0.00  0.00    -0.175 NA
ATOM      6  C   UNL     1       0.161  -8.197   5.283  0.00  0.00    +0.153 C 
ATOM      7  C   UNL     1       0.184  -9.645   4.970  0.00  0.00    +0.028 A 
ATOM      8  C   UNL     1       0.190 -10.361   3.778  0.00  0.00    +0.012 A 
ATOM      9  C   UNL     1       0.214 -11.741   3.808  0.00  0.00    +0.001 A 
ATOM     10  C   UNL     1       0.231 -12.408   5.022  0.00  0.00    +0.002 A 
ATOM     11  C   UNL     1       0.225 -11.706   6.210  0.00  0.00    +0.024 A 
ATOM     12  C   UNL     1       0.201 -10.316   6.199  0.00  0.00    +0.046 A 
ATOM     13  N   UNL     1       0.191  -9.384   7.232  0.00  0.00    -0.266 N 
ATOM     14  C   UNL     1       0.174  -8.127   6.759  0.00  0.00    +0.271 C 
ATOM     15  O   UNL     1       0.166  -7.110   7.427  0.00  0.00    -0.268 OA
BRANCH  13  16
ATOM     16  C   UNL     1       0.203  -9.730   8.655  0.00  0.00    +0.114 C 
BRANCH  16  17
ATOM     17  C   UNL     1       1.650  -9.826   9.144  0.00  0.00    +0.022 C 
BRANCH  17  18
ATOM     18  C   UNL     1       1.664 -10.188  10.630  0.00  0.00    -0.016 C 
ATOM     19  C   UNL     1       1.078 -11.589  10.820  0.00  0.00    +0.007 C 
ATOM     20  C   UNL     1       3.103 -10.162  11.149  0.00  0.00    +0.007 C 
ENDBRANCH  17  18
ENDBRANCH  16  17
ENDBRANCH  13  16
ENDBRANCH   3   5
BRANCH   1  21
ATOM     21  C   UNL     1       0.090  -3.432   4.547  0.00  0.00    +0.171 C 
BRANCH  21  32
ATOM     22  C   UNL     1      -0.018   1.503   0.010  0.00  0.00    +0.045 C 
ATOM     23  C   UNL     1       0.002  -0.004   0.002  0.00  0.00    -0.026 A 
ATOM     24  C   UNL     1       0.006  -0.677  -1.160  0.00  0.00    -0.008 A 
ATOM     25  S   UNL     1       0.032  -2.385  -0.648  0.00  0.00    -0.073 S 
ATOM     26  C   UNL     1       0.037  -2.144   1.110  0.00  0.00    +0.116 A 
ATOM     27  C   UNL     1       0.024  -0.745   1.250  0.00  0.00    +0.075 A 
ATOM     28  C   UNL     1       0.029  -0.257   2.597  0.00  0.00    +0.260 A 
ATOM     29  O   UNL     1       0.014   0.942   2.821  0.00  0.00    -0.267 OA
ATOM     30  N   UNL     1       0.051  -1.142   3.611  0.00  0.00    -0.310 N 
ATOM     31  H   UNL     1       0.054  -0.817   4.525  0.00  0.00    +0.170 HD
ATOM     32  C   UNL     1       0.067  -2.480   3.380  0.00  0.00    +0.120 A 
ATOM     33  N   UNL     1       0.053  -2.956   2.163  0.00  0.00    -0.226 NA
ATOM     34  C   UNL     1      -0.009  -0.122  -2.561  0.00  0.00    +0.052 C 
ENDBRANCH  21  32
ENDBRANCH   1  21
TORSDOF 6
