REMARK  Name = ZINC65591140
REMARK  8 active torsions:
REMARK  status: ('A' for Active; 'I' for Inactive)
REMARK    1  A    between atoms: C_1  and  C_2
REMARK    2  A    between atoms: C_5  and  C_21
REMARK    3  A    between atoms: C_7  and  N_8
REMARK    4  A    between atoms: C_9  and  C_11
REMARK    5  A    between atoms: C_11  and  C_13
REMARK    6  A    between atoms: C_11  and  C_14
REMARK    7  A    between atoms: C_15  and  C_20
REMARK    8  A    between atoms: C_18  and  C_19
REMARK                            x       y       z     vdW  Elec       q    Type
REMARK                         _______ _______ _______ _____ _____    ______ ____
ROOT
ATOM      1  C   UNL     1      -0.100   1.486   0.122  0.00  0.00    +0.045 C 
ATOM      2  C   UNL     1       0.019  -0.006  -0.047  0.00  0.00    -0.029 A 
ATOM      3  C   UNL     1       0.064  -0.555  -1.316  0.00  0.00    +0.006 A 
ATOM      4  C   UNL     1       0.174  -1.921  -1.479  0.00  0.00    +0.012 A 
ATOM      5  C   UNL     1       0.241  -2.753  -0.361  0.00  0.00    +0.021 A 
ATOM      6  C   UNL     1       0.196  -2.201   0.918  0.00  0.00    +0.035 A 
ATOM      7  C   UNL     1       0.091  -0.827   1.072  0.00  0.00    +0.037 A 
ENDROOT
BRANCH   5   8
ATOM      8  C   UNL     1       0.358  -4.218  -0.532  0.00  0.00    +0.164 A 
ATOM      9  N   UNL     1       0.776  -5.083   0.367  0.00  0.00    -0.129 NA
ATOM     10  N   UNL     1       0.741  -6.272  -0.123  0.00  0.00    -0.134 NA
ATOM     11  C   UNL     1       0.300  -6.235  -1.349  0.00  0.00    +0.134 A 
ATOM     12  N   UNL     1       0.049  -4.934  -1.653  0.00  0.00    -0.311 N 
ATOM     13  C   UNL     1      -0.438  -4.415  -2.931  0.00  0.00    +0.125 C 
ATOM     14  C   UNL     1      -1.274  -5.491  -3.630  0.00  0.00    +0.022 C 
ATOM     15  C   UNL     1      -0.369  -6.361  -4.501  0.00  0.00    +0.002 C 
ATOM     16  C   UNL     1       0.676  -7.071  -3.646  0.00  0.00    +0.008 C 
ATOM     17  C   UNL     1       0.086  -7.403  -2.277  0.00  0.00    +0.076 C 
ENDBRANCH   5   8
BRANCH   7  18
ATOM     18  N   UNL     1       0.051  -0.267   2.354  0.00  0.00    -0.285 N 
ATOM     19  C   UNL     1      -0.397  -0.997   3.394  0.00  0.00    +0.225 C 
ATOM     20  O   UNL     1      -0.699  -2.160   3.233  0.00  0.00    -0.275 OA
ATOM     21  H   UNL     1       0.345   0.647   2.493  0.00  0.00    +0.155 HD
BRANCH  19  22
ATOM     22  C   UNL     1      -0.521  -0.368   4.758  0.00  0.00    +0.107 C 
ATOM     23  C   UNL     1      -1.494   0.811   4.688  0.00  0.00    +0.022 C 
BRANCH  22  24
ATOM     24  C   UNL     1      -1.040  -1.389   5.737  0.00  0.00    +0.029 A 
ATOM     25  C   UNL     1      -2.221  -2.141   5.598  0.00  0.00    +0.085 A 
ATOM     26  N   UNL     1      -2.332  -2.914   6.641  0.00  0.00    -0.083 NA
ATOM     27  O   UNL     1      -1.217  -2.677   7.481  0.00  0.00    -0.359 OA
ATOM     28  C   UNL     1      -0.450  -1.745   6.894  0.00  0.00    +0.138 A 
ATOM     29  C   UNL     1       0.842  -1.192   7.437  0.00  0.00    +0.089 C 
ATOM     30  C   UNL     1      -3.188  -2.064   4.445  0.00  0.00    +0.069 C 
ENDBRANCH  22  24
ENDBRANCH  19  22
ENDBRANCH   7  18
TORSDOF 4
