REMARK  Name = ZINC35745851
REMARK  8 active torsions:
REMARK  status: ('A' for Active; 'I' for Inactive)
REMARK    1  A    between atoms: C_1  and  C_2
REMARK    2  A    between atoms: C_3  and  C_20
REMARK    3  A    between atoms: C_4  and  C_13
REMARK    4  A    between atoms: C_16  and  N_19
REMARK    5  A    between atoms: C_20  and  O_22
REMARK    6  A    between atoms: O_22  and  C_23
REMARK    7  A    between atoms: C_23  and  C_24
REMARK    8  A    between atoms: C_23  and  C_25
REMARK                            x       y       z     vdW  Elec       q    Type
REMARK                         _______ _______ _______ _____ _____    ______ ____
ROOT
ATOM      1  C   UNL     1      -0.018   1.503   0.010  0.00  0.00    +0.066 C 
ATOM      2  C   UNL     1       0.002  -0.004   0.002  0.00  0.00    +0.053 C 
ATOM      3  C   UNL     1      -1.175  -0.692   0.004  0.00  0.00    +0.082 C 
ATOM      4  C   UNL     1      -1.150  -2.198  -0.077  0.00  0.00    +0.145 C 
ATOM      5  N   UNL     1       0.135  -2.682   0.458  0.00  0.00    -0.298 N 
ATOM      6  C   UNL     1       0.130  -3.913   1.240  0.00  0.00    +0.109 C 
ATOM      7  C   UNL     1       1.319  -4.814   0.941  0.00  0.00    +0.030 C 
ATOM      8  C   UNL     1       2.610  -4.114   1.389  0.00  0.00    +0.079 C 
ATOM      9  S   UNL     1       2.861  -2.683   0.295  0.00  0.00    -0.090 S 
ATOM     10  C   UNL     1       1.258  -1.945   0.232  0.00  0.00    +0.157 C 
ATOM     11  N   UNL     1       1.167  -0.643  -0.013  0.00  0.00    -0.230 NA
ENDROOT
BRANCH   4  12
ATOM     12  C   UNL     1      -1.296  -2.628  -1.514  0.00  0.00    -0.022 A 
ATOM     13  C   UNL     1      -0.199  -2.605  -2.356  0.00  0.00    +0.007 A 
ATOM     14  C   UNL     1      -0.330  -2.999  -3.673  0.00  0.00    +0.023 A 
ATOM     15  C   UNL     1      -1.564  -3.419  -4.152  0.00  0.00    +0.025 A 
ATOM     16  C   UNL     1      -2.664  -3.441  -3.304  0.00  0.00    +0.023 A 
ATOM     17  C   UNL     1      -2.525  -3.051  -1.986  0.00  0.00    +0.007 A 
BRANCH  15  18
ATOM     18  N   UNL     1      -1.700  -3.818  -5.484  0.00  0.00    -0.358 N 
ATOM     19  H   UNL     1      -0.931  -3.802  -6.076  0.00  0.00    +0.142 HD
ATOM     20  H   UNL     1      -2.562  -4.111  -5.817  0.00  0.00    +0.142 HD
ENDBRANCH  15  18
ENDBRANCH   4  12
BRANCH   3  21
ATOM     21  C   UNL     1      -2.398  -0.005   0.081  0.00  0.00    +0.339 C 
ATOM     22  O   UNL     1      -2.410   1.211   0.147  0.00  0.00    -0.245 OA
BRANCH  21  23
ATOM     23  O   UNL     1      -3.560  -0.694   0.082  0.00  0.00    -0.459 OA
BRANCH  23  24
ATOM     24  C   UNL     1      -4.766   0.069   0.163  0.00  0.00    +0.171 C 
ATOM     25  C   UNL     1      -5.243   0.418  -1.248  0.00  0.00    +0.052 C 
ATOM     26  C   UNL     1      -5.841  -0.752   0.877  0.00  0.00    +0.052 C 
ENDBRANCH  23  24
ENDBRANCH  21  23
ENDBRANCH   3  21
TORSDOF 5
