REMARK  Name = ZINC67267924
REMARK  5 active torsions:
REMARK  status: ('A' for Active; 'I' for Inactive)
REMARK    1  A    between atoms: C_1  and  N_2
REMARK    2  A    between atoms: N_2  and  C_3
REMARK    3  A    between atoms: N_2  and  C_9
REMARK    4  A    between atoms: C_14  and  N_15
REMARK    5  A    between atoms: C_16  and  C_18
REMARK                            x       y       z     vdW  Elec       q    Type
REMARK                         _______ _______ _______ _____ _____    ______ ____
ROOT
ATOM      1  N   UNL     1      -2.422  -0.731  -1.193  0.00  0.00    -0.284 N 
ATOM      2  C   UNL     1      -3.587  -0.993  -1.818  0.00  0.00    +0.220 C 
ATOM      3  O   UNL     1      -3.589  -1.593  -2.872  0.00  0.00    -0.275 OA
ATOM      4  H   UNL     1      -2.425  -0.323  -0.314  0.00  0.00    +0.155 HD
ENDROOT
BRANCH   2   5
ATOM      5  C   UNL     1      -4.888  -0.538  -1.208  0.00  0.00    +0.075 C 
ATOM      6  C   UNL     1      -4.878   0.985  -1.062  0.00  0.00    +0.015 C 
ATOM      7  C   UNL     1      -6.196   1.445  -0.432  0.00  0.00    +0.036 C 
ATOM      8  C   UNL     1      -7.361   1.009  -1.314  0.00  0.00    +0.112 C 
ATOM      9  C   UNL     1      -7.371  -0.506  -1.486  0.00  0.00    +0.036 C 
ATOM     10  C   UNL     1      -6.049  -0.959  -2.111  0.00  0.00    +0.015 C 
ATOM     11  C   UNL     1      -8.671   1.483  -0.729  0.00  0.00    +0.244 C 
ATOM     12  O   UNL     1      -9.144   1.186   0.348  0.00  0.00    -0.273 OA
ATOM     13  N   UNL     1      -9.204   2.305  -1.656  0.00  0.00    -0.238 N 
ATOM     14  C   UNL     1      -8.415   2.410  -2.733  0.00  0.00    +0.307 C 
ATOM     15  O   UNL     1      -8.682   3.094  -3.702  0.00  0.00    -0.252 OA
ATOM     16  N   UNL     1      -7.293   1.674  -2.622  0.00  0.00    -0.285 N 
ATOM     17  H   UNL     1     -10.054   2.762  -1.556  0.00  0.00    +0.159 HD
ATOM     18  H   UNL     1      -6.581   1.599  -3.276  0.00  0.00    +0.151 HD
ENDBRANCH   2   5
BRANCH   1  24
ATOM     19  C   UNL     1      -0.066  -1.273  -1.045  0.00  0.00    +0.055 A 
ATOM     20  C   UNL     1       1.133  -1.593  -1.666  0.00  0.00    +0.025 A 
ATOM     21  C   UNL     1       1.194  -1.685  -3.044  0.00  0.00    +0.002 A 
ATOM     22  C   UNL     1       0.064  -1.458  -3.807  0.00  0.00    +0.002 A 
ATOM     23  C   UNL     1      -1.135  -1.138  -3.196  0.00  0.00    +0.025 A 
ATOM     24  C   UNL     1      -1.207  -1.050  -1.814  0.00  0.00    +0.055 A 
BRANCH  19  26
ATOM     25  C   UNL     1       0.123   0.102   1.011  0.00  0.00    +0.135 C 
ATOM     26  N   UNL     1      -0.131  -1.180   0.350  0.00  0.00    -0.302 N 
BRANCH  26  27
ATOM     27  C   UNL     1      -0.437  -2.310   1.111  0.00  0.00    +0.034 A 
ATOM     28  C   UNL     1      -0.673  -3.529   0.486  0.00  0.00    +0.023 A 
ATOM     29  C   UNL     1      -0.976  -4.644   1.242  0.00  0.00    +0.002 A 
ATOM     30  C   UNL     1      -1.045  -4.549   2.620  0.00  0.00    +0.000 A 
ATOM     31  C   UNL     1      -0.811  -3.338   3.246  0.00  0.00    +0.002 A 
ATOM     32  C   UNL     1      -0.502  -2.220   2.496  0.00  0.00    +0.023 A 
ENDBRANCH  26  27
ENDBRANCH  19  26
ENDBRANCH   1  24
TORSDOF 4
