REMARK  Name = ZINC46874850
REMARK  7 active torsions:
REMARK  status: ('A' for Active; 'I' for Inactive)
REMARK    1  A    between atoms: C_1  and  C_2
REMARK    2  A    between atoms: C_2  and  C_3
REMARK    3  A    between atoms: C_2  and  C_4
REMARK    4  A    between atoms: C_2  and  C_20
REMARK    5  A    between atoms: C_4  and  N_5
REMARK    6  A    between atoms: N_8  and  N_9
REMARK    7  A    between atoms: C_10  and  C_12
REMARK                            x       y       z     vdW  Elec       q    Type
REMARK                         _______ _______ _______ _____ _____    ______ ____
ROOT
ATOM      1  N   UNL     1      -2.119  -0.061   1.218  0.00  0.00    -0.297 N 
ATOM      2  C   UNL     1      -3.403  -0.406   1.442  0.00  0.00    +0.316 C 
ATOM      3  O   UNL     1      -3.992  -1.108   0.643  0.00  0.00    -0.251 OA
ATOM      4  N   UNL     1      -4.034   0.029   2.551  0.00  0.00    -0.218 N 
ATOM      5  H   UNL     1      -1.649   0.499   1.855  0.00  0.00    +0.150 HD
ATOM      6  H   UNL     1      -4.957  -0.219   2.712  0.00  0.00    +0.174 HD
ENDROOT
BRANCH   4   7
ATOM      7  N   UNL     1      -3.355   0.839   3.471  0.00  0.00    -0.233 N 
ATOM      8  C   UNL     1      -3.986   1.274   4.580  0.00  0.00    +0.234 C 
ATOM      9  O   UNL     1      -5.141   0.964   4.781  0.00  0.00    -0.274 OA
ATOM     10  H   UNL     1      -2.431   1.087   3.310  0.00  0.00    +0.173 HD
BRANCH   8  11
ATOM     11  C   UNL     1      -3.256   2.144   5.569  0.00  0.00    +0.099 C 
ATOM     12  C   UNL     1      -2.807   3.441   4.875  0.00  0.00    +0.037 C 
ATOM     13  C   UNL     1      -2.345   4.443   5.971  0.00  0.00    +0.166 C 
ATOM     14  S   UNL     1      -3.633   4.154   7.256  0.00  0.00    -0.030 S 
ATOM     15  O   UNL     1      -4.696   5.077   7.061  0.00  0.00    -0.174 OA
ATOM     16  O   UNL     1      -3.006   4.069   8.529  0.00  0.00    -0.174 OA
ATOM     17  C   UNL     1      -4.197   2.479   6.752  0.00  0.00    +0.178 C 
ENDBRANCH   8  11
ENDBRANCH   4   7
BRANCH   1  18
ATOM     18  C   UNL     1      -1.433  -0.534   0.013  0.00  0.00    +0.116 C 
BRANCH  18  20
ATOM     19  C   UNL     1      -0.019   1.526   0.010  0.00  0.00    +0.017 C 
ATOM     20  C   UNL     1       0.002  -0.004   0.002  0.00  0.00    +0.006 C 
ATOM     21  C   UNL     1       0.742  -0.511   1.242  0.00  0.00    +0.017 C 
BRANCH  20  22
ATOM     22  C   UNL     1       0.707  -0.490  -1.238  0.00  0.00    -0.040 A 
ATOM     23  C   UNL     1       0.036  -1.284  -2.148  0.00  0.00    +0.004 A 
ATOM     24  C   UNL     1       0.683  -1.730  -3.286  0.00  0.00    +0.000 A 
ATOM     25  C   UNL     1       2.001  -1.381  -3.513  0.00  0.00    +0.000 A 
ATOM     26  C   UNL     1       2.672  -0.586  -2.603  0.00  0.00    +0.000 A 
ATOM     27  C   UNL     1       2.024  -0.137  -1.467  0.00  0.00    +0.004 A 
ENDBRANCH  20  22
ENDBRANCH  18  20
ENDBRANCH   1  18
TORSDOF 5
