REMARK  Name = ZINC40752111
REMARK  5 active torsions:
REMARK  status: ('A' for Active; 'I' for Inactive)
REMARK    1  A    between atoms: C_1  and  C_2
REMARK    2  A    between atoms: C_9  and  N_12
REMARK    3  A    between atoms: C_14  and  N_30
REMARK    4  A    between atoms: C_15  and  O_19
REMARK    5  A    between atoms: O_19  and  C_20
REMARK                            x       y       z     vdW  Elec       q    Type
REMARK                         _______ _______ _______ _____ _____    ______ ____
ROOT
ATOM      1  N   UNL     1       0.042  -1.963   3.622  0.00  0.00    -0.296 N 
ATOM      2  C   UNL     1      -0.049  -2.643   4.830  0.00  0.00    +0.151 A 
ATOM      3  C   UNL     1      -0.163  -1.940   6.033  0.00  0.00    +0.128 A 
ATOM      4  C   UNL     1      -0.251  -2.672   7.217  0.00  0.00    +0.246 A 
ATOM      5  N   UNL     1      -0.223  -4.000   7.157  0.00  0.00    -0.199 NA
ATOM      6  C   UNL     1      -0.114  -4.625   6.003  0.00  0.00    +0.227 A 
ATOM      7  N   UNL     1      -0.033  -3.973   4.860  0.00  0.00    -0.218 NA
ATOM      8  H   UNL     1       0.113  -0.996   3.613  0.00  0.00    +0.154 HD
ENDROOT
BRANCH   1  17
ATOM      9  C   UNL     1       2.394   0.961   0.310  0.00  0.00    +0.065 C 
ATOM     10  C   UNL     1       1.752  -0.399   0.221  0.00  0.00    +0.039 A 
ATOM     11  C   UNL     1       1.760  -1.074  -0.998  0.00  0.00    +0.023 A 
ATOM     12  C   UNL     1       1.183  -2.308  -1.097  0.00  0.00    +0.012 A 
ATOM     13  C   UNL     1       0.593  -2.860   0.056  0.00  0.00    +0.002 A 
ATOM     14  C   UNL     1      -0.018  -4.125   0.029  0.00  0.00    +0.010 A 
ATOM     15  C   UNL     1      -0.580  -4.632   1.161  0.00  0.00    +0.003 A 
ATOM     16  C   UNL     1      -0.560  -3.915   2.353  0.00  0.00    +0.025 A 
ATOM     17  C   UNL     1       0.029  -2.671   2.420  0.00  0.00    +0.059 A 
ATOM     18  C   UNL     1       0.621  -2.119   1.262  0.00  0.00    +0.092 A 
ATOM     19  N   UNL     1       1.206  -0.919   1.293  0.00  0.00    -0.250 NA
ENDBRANCH   1  17
BRANCH   3  20
ATOM     20  N   UNL     1      -0.188  -0.538   6.049  0.00  0.00    -0.351 N 
ATOM     21  H   UNL     1      -0.126  -0.042   5.218  0.00  0.00    +0.143 HD
ATOM     22  H   UNL     1      -0.268  -0.064   6.892  0.00  0.00    +0.143 HD
ENDBRANCH   3  20
BRANCH   4  23
ATOM     23  O   UNL     1      -0.363  -2.038   8.411  0.00  0.00    -0.434 OA
BRANCH  23  24
ATOM     24  C   UNL     1      -0.340  -2.795   9.539  0.00  0.00    +0.156 A 
ATOM     25  C   UNL     1      -1.514  -3.123  10.177  0.00  0.00    +0.048 A 
ATOM     26  C   UNL     1      -1.506  -3.897  11.334  0.00  0.00    +0.004 A 
ATOM     27  C   UNL     1      -0.336  -4.350  11.865  0.00  0.00    +0.010 A 
ATOM     28  C   UNL     1       0.882  -4.037  11.242  0.00  0.00    +0.004 A 
ATOM     29  C   UNL     1       0.887  -3.255  10.061  0.00  0.00    +0.113 A 
ATOM     30  N   UNL     1       2.045  -2.959   9.463  0.00  0.00    -0.251 NA
ATOM     31  C   UNL     1       3.188  -3.383   9.944  0.00  0.00    +0.111 A 
ATOM     32  C   UNL     1       3.255  -4.161  11.098  0.00  0.00    +0.020 A 
ATOM     33  C   UNL     1       2.109  -4.490  11.765  0.00  0.00    +0.011 A 
ENDBRANCH  23  24
ENDBRANCH   4  23
TORSDOF 4
