REMARK  Name = ZINC67352804
REMARK  10 active torsions:
REMARK  status: ('A' for Active; 'I' for Inactive)
REMARK    1  A    between atoms: C_1  and  C_2
REMARK    2  A    between atoms: C_4  and  S_21
REMARK    3  A    between atoms: C_7  and  N_8
REMARK    4  A    between atoms: C_9  and  C_11
REMARK    5  A    between atoms: N_13  and  C_14
REMARK    6  A    between atoms: C_14  and  C_15
REMARK    7  A    between atoms: C_15  and  C_16
REMARK    8  A    between atoms: C_15  and  C_17
REMARK    9  A    between atoms: C_15  and  C_18
REMARK   10  A    between atoms: S_21  and  C_22
REMARK                            x       y       z     vdW  Elec       q    Type
REMARK                         _______ _______ _______ _____ _____    ______ ____
ROOT
ATOM      1  N   UNL     1       0.056  -0.108   2.401  0.00  0.00    -0.278 N 
ATOM      2  C   UNL     1       0.187  -0.794   3.553  0.00  0.00    +0.303 C 
ATOM      3  O   UNL     1       0.387  -1.991   3.528  0.00  0.00    -0.265 OA
ATOM      4  H   UNL     1      -0.046   0.856   2.419  0.00  0.00    +0.155 HD
ENDROOT
BRANCH   1  11
ATOM      5  C   UNL     1      -1.284   1.084   0.194  0.00  0.00    +0.046 C 
ATOM      6  C   UNL     1      -0.575  -0.240   0.074  0.00  0.00    -0.028 A 
ATOM      7  C   UNL     1      -0.558  -0.907  -1.134  0.00  0.00    +0.020 A 
ATOM      8  C   UNL     1       0.096  -2.128  -1.245  0.00  0.00    +0.013 A 
ATOM      9  C   UNL     1       0.733  -2.678  -0.139  0.00  0.00    +0.017 A 
ATOM     10  C   UNL     1       0.717  -2.011   1.069  0.00  0.00    +0.024 A 
ATOM     11  C   UNL     1       0.068  -0.787   1.178  0.00  0.00    +0.037 A 
BRANCH   8  12
ATOM     12  S   UNL     1       0.116  -2.980  -2.788  0.00  0.00    -0.089 S 
BRANCH  12  13
ATOM     13  C   UNL     1      -0.919  -2.004  -3.827  0.00  0.00    +0.013 A 
ATOM     14  C   UNL     1      -0.392  -0.913  -4.508  0.00  0.00    +0.015 A 
ATOM     15  C   UNL     1      -1.206  -0.151  -5.322  0.00  0.00    +0.001 A 
ATOM     16  C   UNL     1      -2.544  -0.472  -5.461  0.00  0.00    +0.000 A 
ATOM     17  C   UNL     1      -3.072  -1.557  -4.785  0.00  0.00    +0.001 A 
ATOM     18  C   UNL     1      -2.263  -2.327  -3.973  0.00  0.00    +0.015 A 
ENDBRANCH  12  13
ENDBRANCH   8  12
ENDBRANCH   1  11
BRANCH   2  19
ATOM     19  C   UNL     1       0.087  -0.081   4.862  0.00  0.00    +0.299 C 
ATOM     20  O   UNL     1      -0.113   1.115   4.887  0.00  0.00    -0.265 OA
ATOM     21  N   UNL     1       0.218  -0.767   6.014  0.00  0.00    -0.307 N 
ATOM     22  H   UNL     1       0.378  -1.724   5.994  0.00  0.00    +0.149 HD
BRANCH  21  23
ATOM     23  C   UNL     1       0.119  -0.068   7.298  0.00  0.00    +0.120 C 
BRANCH  23  24
ATOM     24  C   UNL     1       0.303  -1.069   8.440  0.00  0.00    +0.057 C 
ATOM     25  C   UNL     1      -0.785  -2.141   8.358  0.00  0.00    +0.022 C 
ATOM     26  C   UNL     1       1.679  -1.730   8.323  0.00  0.00    +0.022 C 
BRANCH  24  27
ATOM     27  C   UNL     1       0.202  -0.350   9.760  0.00  0.00    +0.218 C 
ATOM     28  O   UNL     1       0.002   0.846   9.785  0.00  0.00    -0.275 OA
ATOM     29  N   UNL     1       0.333  -1.036  10.913  0.00  0.00    -0.329 N 
ATOM     30  H   UNL     1       0.492  -1.992  10.893  0.00  0.00    +0.145 HD
ATOM     31  H   UNL     1       0.268  -0.573  11.763  0.00  0.00    +0.145 HD
ENDBRANCH  24  27
ENDBRANCH  23  24
ENDBRANCH  21  23
ENDBRANCH   2  19
TORSDOF 7
