REMARK  Name = ZINC62564638
REMARK  6 active torsions:
REMARK  status: ('A' for Active; 'I' for Inactive)
REMARK    1  A    between atoms: C_1  and  C_2
REMARK    2  A    between atoms: C_2  and  C_3
REMARK    3  A    between atoms: C_2  and  C_4
REMARK    4  A    between atoms: C_6  and  N_24
REMARK    5  A    between atoms: C_11  and  C_17
REMARK    6  A    between atoms: N_15  and  C_16
REMARK                            x       y       z     vdW  Elec       q    Type
REMARK                         _______ _______ _______ _____ _____    ______ ____
ROOT
ATOM      1  C   UNL     1      -1.412  -0.526   0.013  0.00  0.00    +0.000 A 
ATOM      2  C   UNL     1      -2.260  -0.204   1.057  0.00  0.00    +0.030 A 
ATOM      3  C   UNL     1      -3.563  -0.683   1.070  0.00  0.00    +0.027 A 
ATOM      4  C   UNL     1      -4.019  -1.488   0.034  0.00  0.00    +0.050 A 
ATOM      5  C   UNL     1      -3.170  -1.809  -1.011  0.00  0.00    +0.080 A 
ATOM      6  C   UNL     1      -1.863  -1.321  -1.025  0.00  0.00    +0.147 A 
ATOM      7  O   UNL     1      -1.042  -1.639  -2.062  0.00  0.00    -0.473 OA
ATOM      8  C   UNL     1      -1.656  -1.792  -3.345  0.00  0.00    +0.289 C 
ATOM      9  C   UNL     1      -2.893  -2.645  -3.215  0.00  0.00    +0.265 C 
ATOM     10  O   UNL     1      -3.240  -3.358  -4.132  0.00  0.00    -0.271 OA
ATOM     11  N   UNL     1      -3.610  -2.619  -2.067  0.00  0.00    -0.268 N 
ATOM     12  C   UNL     1      -4.834  -3.413  -1.935  0.00  0.00    +0.138 C 
ENDROOT
BRANCH   8  13
ATOM     13  C   UNL     1      -2.036  -0.438  -3.884  0.00  0.00    +0.002 A 
ATOM     14  C   UNL     1      -2.460   0.556  -3.021  0.00  0.00    +0.010 A 
ATOM     15  C   UNL     1      -2.808   1.799  -3.515  0.00  0.00    +0.039 A 
ATOM     16  C   UNL     1      -2.732   2.049  -4.875  0.00  0.00    +0.123 A 
ATOM     17  C   UNL     1      -2.307   1.053  -5.738  0.00  0.00    +0.039 A 
ATOM     18  C   UNL     1      -1.954  -0.187  -5.242  0.00  0.00    +0.010 A 
ATOM     19  F   UNL     1      -3.072   3.264  -5.359  0.00  0.00    -0.205 F 
ENDBRANCH   8  13
BRANCH   1  21
ATOM     20  C   UNL     1      -0.019   1.526   0.010  0.00  0.00    +0.012 C 
ATOM     21  C   UNL     1       0.002  -0.004   0.002  0.00  0.00    +0.017 C 
ATOM     22  C   UNL     1       0.742  -0.511   1.242  0.00  0.00    +0.012 C 
ENDBRANCH   1  21
BRANCH   3  23
ATOM     23  N   UNL     1      -4.417  -0.356   2.129  0.00  0.00    -0.358 N 
ATOM     24  H   UNL     1      -4.099   0.206   2.853  0.00  0.00    +0.142 HD
ATOM     25  H   UNL     1      -5.328  -0.690   2.139  0.00  0.00    +0.142 HD
ENDBRANCH   3  23
TORSDOF 3
