REMARK  Name = ZINC00938774
REMARK  7 active torsions:
REMARK  status: ('A' for Active; 'I' for Inactive)
REMARK    1  A    between atoms: C_1  and  O_2
REMARK    2  A    between atoms: O_2  and  C_3
REMARK    3  A    between atoms: C_5  and  C_11
REMARK    4  A    between atoms: C_7  and  O_9
REMARK    5  A    between atoms: O_9  and  C_10
REMARK    6  A    between atoms: C_16  and  C_26
REMARK    7  A    between atoms: C_30  and  O_32
REMARK                            x       y       z     vdW  Elec       q    Type
REMARK                         _______ _______ _______ _____ _____    ______ ____
ROOT
ATOM      1  C   UNL     1      -2.546  -4.153   0.016  0.00  0.00    +0.183 A 
ATOM      2  N   UNL     1      -1.485  -4.978   0.012  0.00  0.00    -0.193 NA
ATOM      3  C   UNL     1      -1.895  -6.215   0.015  0.00  0.00    +0.219 A 
ATOM      4  N   UNL     1      -3.252  -6.212   0.015  0.00  0.00    -0.220 N 
ATOM      5  N   UNL     1      -3.649  -4.875   0.024  0.00  0.00    -0.147 NA
ATOM      6  C   UNL     1      -4.057  -7.427   0.007  0.00  0.00    +0.176 C 
ATOM      7  C   UNL     1      -3.192  -8.622   0.345  0.00  0.00    +0.041 C 
ATOM      8  C   UNL     1      -1.844  -8.560   0.327  0.00  0.00    +0.020 C 
ATOM      9  N   UNL     1      -1.175  -7.399   0.019  0.00  0.00    -0.287 N 
ATOM     10  C   UNL     1      -1.008  -9.777   0.645  0.00  0.00    +0.052 C 
ATOM     11  C   UNL     1      -1.745 -10.658   1.655  0.00  0.00    +0.014 C 
ATOM     12  C   UNL     1      -3.095 -11.059   1.051  0.00  0.00    +0.080 C 
ATOM     13  C   UNL     1      -3.855  -9.815   0.684  0.00  0.00    +0.163 C 
ATOM     14  O   UNL     1      -5.070  -9.841   0.681  0.00  0.00    -0.292 OA
ATOM     15  H   UNL     1      -0.228  -7.409  -0.189  0.00  0.00    +0.155 HD
ENDROOT
BRANCH   1  18
ATOM     16  C   UNL     1      -1.200  -0.637   0.010  0.00  0.00    +0.124 A 
ATOM     17  C   UNL     1      -1.253  -2.022   0.009  0.00  0.00    +0.057 A 
ATOM     18  C   UNL     1      -2.486  -2.671   0.018  0.00  0.00    +0.028 A 
ATOM     19  C   UNL     1      -3.662  -1.924   0.028  0.00  0.00    +0.057 A 
ATOM     20  C   UNL     1      -3.602  -0.540   0.029  0.00  0.00    +0.124 A 
ATOM     21  C   UNL     1      -2.373   0.103   0.025  0.00  0.00    +0.091 A 
BRANCH  16  23
ATOM     22  C   UNL     1      -0.017   1.425   0.010  0.00  0.00    +0.277 C 
ATOM     23  O   UNL     1       0.002  -0.004   0.002  0.00  0.00    -0.495 OA
ENDBRANCH  16  23
BRANCH  20  24
ATOM     24  O   UNL     1      -4.750   0.189   0.038  0.00  0.00    -0.495 OA
ATOM     25  C   UNL     1      -4.614   1.611   0.038  0.00  0.00    +0.277 C 
ENDBRANCH  20  24
ENDBRANCH   1  18
BRANCH   6  26
ATOM     26  C   UNL     1      -4.660  -7.619  -1.360  0.00  0.00    -0.015 A 
ATOM     27  C   UNL     1      -3.840  -7.759  -2.464  0.00  0.00    +0.006 A 
ATOM     28  C   UNL     1      -4.390  -7.935  -3.720  0.00  0.00    +0.004 A 
ATOM     29  C   UNL     1      -5.763  -7.972  -3.875  0.00  0.00    +0.045 A 
ATOM     30  C   UNL     1      -6.588  -7.832  -2.769  0.00  0.00    +0.117 A 
ATOM     31  C   UNL     1      -6.033  -7.661  -1.509  0.00  0.00    +0.051 A 
BRANCH  30  32
ATOM     32  O   UNL     1      -7.939  -7.867  -2.919  0.00  0.00    -0.507 OA
ATOM     33  H   UNL     1      -8.319  -8.753  -2.844  0.00  0.00    +0.292 HD
ENDBRANCH  30  32
ENDBRANCH   6  26
TORSDOF 5
