REMARK  Name = ZINC12500018
REMARK  10 active torsions:
REMARK  status: ('A' for Active; 'I' for Inactive)
REMARK    1  A    between atoms: C_1  and  C_2
REMARK    2  A    between atoms: C_2  and  C_24
REMARK    3  A    between atoms: C_4  and  N_11
REMARK    4  A    between atoms: C_7  and  C_9
REMARK    5  A    between atoms: C_7  and  C_10
REMARK    6  A    between atoms: N_14  and  C_15
REMARK    7  A    between atoms: C_18  and  N_21
REMARK    8  A    between atoms: C_24  and  N_25
REMARK    9  A    between atoms: N_28  and  C_29
REMARK   10  A    between atoms: C_32  and  N_35
REMARK                            x       y       z     vdW  Elec       q    Type
REMARK                         _______ _______ _______ _____ _____    ______ ____
ROOT
ATOM      1  C   UNL     1      -0.033   1.619  -0.163  0.00  0.00    +0.013 C 
ATOM      2  C   UNL     1       0.143   0.099  -0.098  0.00  0.00    -0.014 C 
ATOM      3  C   UNL     1      -1.215  -0.587  -0.177  0.00  0.00    +0.030 C 
ATOM      4  C   UNL     1      -1.993  -0.402   1.124  0.00  0.00    +0.076 C 
ATOM      5  C   UNL     1      -1.208  -1.046   2.264  0.00  0.00    +0.028 C 
ATOM      6  C   UNL     1       0.150  -0.376   2.432  0.00  0.00    -0.033 C 
ATOM      7  C   UNL     1       0.932  -0.307   1.133  0.00  0.00    +0.014 C 
ATOM      8  C   UNL     1       0.967  -1.220   3.436  0.00  0.00    +0.011 C 
ATOM      9  C   UNL     1      -0.024   1.017   3.045  0.00  0.00    +0.011 C 
ENDROOT
BRANCH   4  10
ATOM     10  N   UNL     1      -3.298  -1.066   1.003  0.00  0.00    -0.296 N 
ATOM     11  C   UNL     1      -4.337  -0.653   1.754  0.00  0.00    +0.304 C 
ATOM     12  O   UNL     1      -4.195   0.271   2.533  0.00  0.00    -0.253 OA
ATOM     13  N   UNL     1      -5.534  -1.262   1.643  0.00  0.00    -0.269 N 
ATOM     14  H   UNL     1      -3.411  -1.803   0.382  0.00  0.00    +0.151 HD
ATOM     15  H   UNL     1      -5.666  -1.954   0.975  0.00  0.00    +0.156 HD
BRANCH  13  16
ATOM     16  C   UNL     1      -6.586  -0.899   2.491  0.00  0.00    +0.035 A 
ATOM     17  C   UNL     1      -7.480  -1.861   2.943  0.00  0.00    +0.025 A 
ATOM     18  C   UNL     1      -8.517  -1.498   3.780  0.00  0.00    +0.034 A 
ATOM     19  C   UNL     1      -8.666  -0.179   4.168  0.00  0.00    +0.126 A 
ATOM     20  C   UNL     1      -7.778   0.781   3.719  0.00  0.00    +0.034 A 
ATOM     21  C   UNL     1      -6.736   0.424   2.886  0.00  0.00    +0.025 A 
BRANCH  19  22
ATOM     22  N   UNL     1      -9.779   0.205   5.065  0.00  0.00    +0.056 N 
ATOM     23  O   UNL     1     -10.556  -0.633   5.459  0.00  0.00    -0.126 OA
ATOM     24  O   UNL     1      -9.910   1.358   5.405  0.00  0.00    -0.126 OA
ENDBRANCH  19  22
ENDBRANCH  13  16
ENDBRANCH   4  10
BRANCH   2  25
ATOM     25  C   UNL     1       0.954  -0.323  -1.343  0.00  0.00    +0.112 C 
BRANCH  25  26
ATOM     26  N   UNL     1       0.223   0.058  -2.554  0.00  0.00    -0.299 N 
ATOM     27  C   UNL     1       0.742  -0.212  -3.768  0.00  0.00    +0.304 C 
ATOM     28  O   UNL     1       1.817  -0.773  -3.858  0.00  0.00    -0.253 OA
ATOM     29  N   UNL     1       0.069   0.138  -4.882  0.00  0.00    -0.269 N 
ATOM     30  H   UNL     1      -0.635   0.505  -2.482  0.00  0.00    +0.150 HD
ATOM     31  H   UNL     1      -0.751   0.651  -4.812  0.00  0.00    +0.156 HD
BRANCH  29  32
ATOM     32  C   UNL     1       0.555  -0.237  -6.140  0.00  0.00    +0.035 A 
ATOM     33  C   UNL     1       0.369   0.597  -7.234  0.00  0.00    +0.025 A 
ATOM     34  C   UNL     1       0.850   0.224  -8.474  0.00  0.00    +0.034 A 
ATOM     35  C   UNL     1       1.515  -0.978  -8.626  0.00  0.00    +0.126 A 
ATOM     36  C   UNL     1       1.701  -1.811  -7.538  0.00  0.00    +0.034 A 
ATOM     37  C   UNL     1       1.228  -1.442  -6.295  0.00  0.00    +0.025 A 
BRANCH  35  38
ATOM     38  N   UNL     1       2.029  -1.375  -9.957  0.00  0.00    +0.056 N 
ATOM     39  O   UNL     1       1.867  -0.648 -10.909  0.00  0.00    -0.126 OA
ATOM     40  O   UNL     1       2.611  -2.426 -10.091  0.00  0.00    -0.126 OA
ENDBRANCH  35  38
ENDBRANCH  29  32
ENDBRANCH  25  26
ENDBRANCH   2  25
TORSDOF 7
