REMARK  Name = ZINC03525263
REMARK  5 active torsions:
REMARK  status: ('A' for Active; 'I' for Inactive)
REMARK    1  A    between atoms: C_3  and  C_15
REMARK    2  A    between atoms: C_5  and  S_7
REMARK    3  A    between atoms: S_7  and  N_10
REMARK    4  A    between atoms: N_17  and  N_18
REMARK    5  A    between atoms: C_19  and  C_20
REMARK                            x       y       z     vdW  Elec       q    Type
REMARK                         _______ _______ _______ _____ _____    ______ ____
ROOT
ATOM      1  C   UNL     1      -6.133   8.856   0.105  0.00  0.00    +0.003 A 
ATOM      2  C   UNL     1      -5.323   7.739   0.097  0.00  0.00    +0.013 A 
ATOM      3  C   UNL     1      -5.895   6.466   0.090  0.00  0.00    +0.040 A 
ATOM      4  C   UNL     1      -7.285   6.332   0.102  0.00  0.00    +0.041 A 
ATOM      5  C   UNL     1      -8.083   7.457   0.115  0.00  0.00    +0.106 A 
ATOM      6  C   UNL     1      -7.509   8.717   0.117  0.00  0.00    +0.028 A 
ENDROOT
BRANCH   3   7
ATOM      7  C   UNL     1      -5.034   5.265   0.076  0.00  0.00    +0.263 C 
ATOM      8  O   UNL     1      -5.536   4.157   0.075  0.00  0.00    -0.268 OA
ATOM      9  N   UNL     1      -3.693   5.398   0.064  0.00  0.00    -0.203 N 
ATOM     10  H   UNL     1      -3.293   6.281   0.065  0.00  0.00    +0.178 HD
BRANCH   9  11
ATOM     11  N   UNL     1      -2.877   4.259   0.051  0.00  0.00    -0.186 NA
ATOM     12  C   UNL     1      -1.582   4.387   0.039  0.00  0.00    +0.156 C 
BRANCH  12  13
ATOM     13  C   UNL     1      -0.728   3.195   0.025  0.00  0.00    +0.059 A 
ATOM     14  C   UNL     1      -1.157   1.886   0.017  0.00  0.00    +0.028 A 
ATOM     15  C   UNL     1      -0.013   1.076   0.008  0.00  0.00    +0.019 A 
ATOM     16  C   UNL     1       1.069   1.887   0.002  0.00  0.00    +0.083 A 
ATOM     17  N   UNL     1       0.647   3.182   0.013  0.00  0.00    -0.360 N 
ATOM     18  H   UNL     1       1.220   3.964   0.011  0.00  0.00    +0.165 HD
ENDBRANCH  12  13
ENDBRANCH   9  11
ENDBRANCH   3   7
BRANCH   5  19
ATOM     19  S   UNL     1      -9.837   7.291   0.131  0.00  0.00    +0.061 S 
ATOM     20  O   UNL     1     -10.364   8.495  -0.409  0.00  0.00    -0.153 OA
ATOM     21  O   UNL     1     -10.129   6.016  -0.424  0.00  0.00    -0.153 OA
BRANCH  19  22
ATOM     22  N   UNL     1     -10.310   7.237   1.717  0.00  0.00    -0.177 NA
ATOM     23  C   UNL     1     -10.447   6.019   2.529  0.00  0.00    +0.109 C 
ATOM     24  C   UNL     1     -10.933   6.453   3.928  0.00  0.00    +0.018 C 
ATOM     25  C   UNL     1     -11.591   7.831   3.653  0.00  0.00    +0.018 C 
ATOM     26  C   UNL     1     -10.668   8.401   2.547  0.00  0.00    +0.109 C 
ENDBRANCH  19  22
ENDBRANCH   5  19
TORSDOF 5
