REMARK  Name = ZINC10670124
REMARK  13 active torsions:
REMARK  status: ('A' for Active; 'I' for Inactive)
REMARK    1  A    between atoms: C_1  and  C_2
REMARK    2  A    between atoms: C_2  and  C_3
REMARK    3  A    between atoms: C_3  and  C_5
REMARK    4  A    between atoms: C_3  and  O_6
REMARK    5  A    between atoms: O_6  and  C_7
REMARK    6  A    between atoms: C_11  and  C_13
REMARK    7  A    between atoms: N_15  and  C_16
REMARK    8  A    between atoms: C_16  and  N_18
REMARK    9  A    between atoms: N_18  and  N_19
REMARK   10  A    between atoms: C_20  and  C_22
REMARK   11  A    between atoms: C_22  and  O_23
REMARK   12  A    between atoms: O_23  and  C_24
REMARK   13  A    between atoms: C_28  and  C_30
REMARK                            x       y       z     vdW  Elec       q    Type
REMARK                         _______ _______ _______ _____ _____    ______ ____
ROOT
ATOM      1  C   UNL     1       4.728   4.210  -0.670  0.00  0.00    +0.153 C 
ATOM      2  S   UNL     1       6.195   3.377  -0.960  0.00  0.00    -0.017 S 
ENDROOT
BRANCH   1   5
ATOM      3  C   UNL     1       3.611   2.171  -0.463  0.00  0.00    +0.250 C 
ATOM      4  O   UNL     1       4.652   1.579  -0.669  0.00  0.00    -0.270 OA
ATOM      5  N   UNL     1       3.592   3.518  -0.452  0.00  0.00    -0.263 N 
ATOM      6  H   UNL     1       2.761   3.990  -0.288  0.00  0.00    +0.157 HD
BRANCH   3  11
ATOM      7  C   UNL     1       1.211  -0.687  -0.010  0.00  0.00    +0.122 A 
ATOM      8  C   UNL     1       0.025  -0.005   0.225  0.00  0.00    +0.046 A 
ATOM      9  C   UNL     1       0.006   1.377   0.236  0.00  0.00    +0.004 A 
ATOM     10  C   UNL     1       1.168   2.089   0.013  0.00  0.00    +0.013 A 
ATOM     11  C   UNL     1       2.365   1.412  -0.224  0.00  0.00    +0.041 A 
ATOM     12  C   UNL     1       2.382   0.017  -0.235  0.00  0.00    +0.058 A 
BRANCH   7  13
ATOM     13  O   UNL     1       1.223  -2.046  -0.019  0.00  0.00    -0.489 OA
BRANCH  13  14
ATOM     14  C   UNL     1      -0.038  -2.707   0.101  0.00  0.00    +0.170 C 
ATOM     15  C   UNL     1      -0.407  -2.837   1.580  0.00  0.00    +0.052 C 
BRANCH  14  17
ATOM     16  C   UNL     1       0.300  -3.966  -2.030  0.00  0.00    +0.007 C 
ATOM     17  C   UNL     1       0.054  -4.099  -0.526  0.00  0.00    +0.041 C 
ENDBRANCH  14  17
ENDBRANCH  13  14
ENDBRANCH   7  13
ENDBRANCH   3  11
ENDBRANCH   1   5
BRANCH   1  18
ATOM     18  N   UNL     1       4.709   5.558  -0.659  0.00  0.00    -0.245 N 
ATOM     19  H   UNL     1       5.527   6.055  -0.816  0.00  0.00    +0.172 HD
BRANCH  18  20
ATOM     20  N   UNL     1       3.508   6.239  -0.422  0.00  0.00    -0.232 N 
ATOM     21  C   UNL     1       3.489   7.587  -0.411  0.00  0.00    +0.267 C 
ATOM     22  O   UNL     1       4.512   8.209  -0.607  0.00  0.00    -0.271 OA
ATOM     23  H   UNL     1       2.691   5.741  -0.265  0.00  0.00    +0.173 HD
BRANCH  21  24
ATOM     24  C   UNL     1       2.198   8.320  -0.155  0.00  0.00    +0.326 C 
BRANCH  24  25
ATOM     25  O   UNL     1       2.434   9.729  -0.194  0.00  0.00    -0.483 OA
BRANCH  25  26
ATOM     26  C   UNL     1       1.365  10.540   0.019  0.00  0.00    +0.122 A 
ATOM     27  C   UNL     1       0.112   9.991   0.254  0.00  0.00    +0.047 A 
ATOM     28  C   UNL     1      -0.973  10.817   0.474  0.00  0.00    +0.024 A 
ATOM     29  C   UNL     1      -0.813  12.192   0.450  0.00  0.00    +0.044 A 
ATOM     30  C   UNL     1       0.434  12.741   0.211  0.00  0.00    -0.029 A 
ATOM     31  C   UNL     1       1.522  11.918  -0.005  0.00  0.00    +0.050 A 
ATOM     32  C   UNL     1       0.605  14.238   0.186  0.00  0.00    +0.045 C 
ATOM     33 CL   UNL     1      -2.179  13.228   0.722  0.00  0.00    -0.083 Cl
ENDBRANCH  25  26
ENDBRANCH  24  25
ENDBRANCH  21  24
ENDBRANCH  18  20
ENDBRANCH   1  18
TORSDOF 10
