REMARK  Name = ZINC08183380
REMARK  8 active torsions:
REMARK  status: ('A' for Active; 'I' for Inactive)
REMARK    1  A    between atoms: C_1  and  C_2
REMARK    2  A    between atoms: C_4  and  O_9
REMARK    3  A    between atoms: O_9  and  C_10
REMARK    4  A    between atoms: C_10  and  C_11
REMARK    5  A    between atoms: N_13  and  N_14
REMARK    6  A    between atoms: C_15  and  C_16
REMARK    7  A    between atoms: C_19  and  O_23
REMARK    8  A    between atoms: C_20  and  O_22
REMARK                            x       y       z     vdW  Elec       q    Type
REMARK                         _______ _______ _______ _____ _____    ______ ____
ROOT
ATOM      1  C   UNL     1       0.074  -6.957  -2.339  0.00  0.00    +0.270 C 
ATOM      2  O   UNL     1       0.056  -6.343  -3.385  0.00  0.00    -0.270 OA
ATOM      3  N   UNL     1       0.076  -6.293  -1.167  0.00  0.00    -0.204 N 
ATOM      4  H   UNL     1       0.090  -6.785  -0.331  0.00  0.00    +0.177 HD
ENDROOT
BRANCH   3   5
ATOM      5  N   UNL     1       0.057  -4.892  -1.155  0.00  0.00    -0.188 NA
ATOM      6  C   UNL     1       0.059  -4.252  -0.026  0.00  0.00    +0.138 C 
BRANCH   6   7
ATOM      7  C   UNL     1       0.040  -2.778  -0.014  0.00  0.00    -0.002 A 
ATOM      8  C   UNL     1       0.019  -2.068  -1.218  0.00  0.00    +0.013 A 
ATOM      9  C   UNL     1      -0.006  -0.690  -1.204  0.00  0.00    +0.050 A 
ATOM     10  C   UNL     1       0.002  -0.004   0.002  0.00  0.00    +0.158 A 
ATOM     11  C   UNL     1       0.023  -0.705   1.206  0.00  0.00    +0.159 A 
ATOM     12  C   UNL     1       0.042  -2.087   1.200  0.00  0.00    +0.058 A 
BRANCH  11  13
ATOM     13  O   UNL     1       0.025  -0.030   2.386  0.00  0.00    -0.503 OA
ATOM     14  H   UNL     1      -0.857   0.154   2.736  0.00  0.00    +0.292 HD
ENDBRANCH  11  13
BRANCH  10  15
ATOM     15  O   UNL     1      -0.016   1.355   0.009  0.00  0.00    -0.503 OA
ATOM     16  H   UNL     1       0.862   1.760   0.003  0.00  0.00    +0.292 HD
ENDBRANCH  10  15
ENDBRANCH   6   7
ENDBRANCH   3   5
BRANCH   1  17
ATOM     17  C   UNL     1       0.093  -8.464  -2.352  0.00  0.00    +0.326 C 
BRANCH  17  18
ATOM     18  O   UNL     1       0.087  -8.930  -3.703  0.00  0.00    -0.483 OA
BRANCH  18  22
ATOM     19  C   UNL     1       0.109 -12.731  -6.764  0.00  0.00    +0.045 C 
ATOM     20  C   UNL     1       0.115 -12.165  -5.367  0.00  0.00    -0.029 A 
ATOM     21  C   UNL     1       0.098 -10.796  -5.177  0.00  0.00    +0.050 A 
ATOM     22  C   UNL     1       0.103 -10.276  -3.892  0.00  0.00    +0.122 A 
ATOM     23  C   UNL     1       0.131 -11.130  -2.799  0.00  0.00    +0.047 A 
ATOM     24  C   UNL     1       0.142 -12.498  -2.993  0.00  0.00    +0.024 A 
ATOM     25  C   UNL     1       0.137 -13.015  -4.276  0.00  0.00    +0.044 A 
ATOM     26 CL   UNL     1       0.158 -14.734  -4.518  0.00  0.00    -0.083 Cl
ENDBRANCH  18  22
ENDBRANCH  17  18
ENDBRANCH   1  17
TORSDOF 7
