REMARK  Name = ZINC63061517
REMARK  5 active torsions:
REMARK  status: ('A' for Active; 'I' for Inactive)
REMARK    1  A    between atoms: C_1  and  C_2
REMARK    2  A    between atoms: C_7  and  O_8
REMARK    3  A    between atoms: O_8  and  C_9
REMARK    4  A    between atoms: C_10  and  C_16
REMARK    5  A    between atoms: C_12  and  N_15
REMARK                            x       y       z     vdW  Elec       q    Type
REMARK                         _______ _______ _______ _____ _____    ______ ____
ROOT
ATOM      1  C   UNL     1      -0.059  -0.757   3.526  0.00  0.00    +0.223 A 
ATOM      2  C   UNL     1      -0.171  -0.102   4.746  0.00  0.00    +0.013 A 
ATOM      3  C   UNL     1      -0.256  -0.849   5.907  0.00  0.00    +0.032 A 
ATOM      4  C   UNL     1      -0.225  -2.239   5.806  0.00  0.00    +0.043 A 
ATOM      5  C   UNL     1      -0.112  -2.823   4.553  0.00  0.00    +0.137 A 
ATOM      6  N   UNL     1      -0.039  -2.078   3.466  0.00  0.00    -0.219 NA
ATOM      7  C   UNL     1      -0.200   1.403   4.803  0.00  0.00    +0.049 C 
ENDROOT
BRANCH   4   8
ATOM      8  N   UNL     1      -0.308  -3.035   6.954  0.00  0.00    -0.357 N 
ATOM      9  H   UNL     1      -0.387  -2.620   7.827  0.00  0.00    +0.142 HD
ATOM     10  H   UNL     1      -0.286  -4.002   6.877  0.00  0.00    +0.142 HD
ENDBRANCH   4   8
BRANCH   1  11
ATOM     11  O   UNL     1       0.025  -0.033   2.381  0.00  0.00    -0.438 OA
BRANCH  11  18
ATOM     12  C   UNL     1       2.523  -0.948   1.432  0.00  0.00    +0.047 C 
ATOM     13  C   UNL     1       1.235  -1.179   0.683  0.00  0.00    -0.007 A 
ATOM     14  C   UNL     1       1.246  -1.867  -0.514  0.00  0.00    +0.022 A 
ATOM     15  C   UNL     1       0.065  -2.079  -1.202  0.00  0.00    +0.018 A 
ATOM     16  C   UNL     1      -1.130  -1.602  -0.692  0.00  0.00    +0.019 A 
ATOM     17  C   UNL     1      -1.145  -0.914   0.506  0.00  0.00    +0.047 A 
ATOM     18  C   UNL     1       0.038  -0.705   1.200  0.00  0.00    +0.133 A 
ATOM     19 BR   UNL     1       0.082  -3.020  -2.842  0.00  0.00    -0.050 Br
ENDBRANCH  11  18
ENDBRANCH   1  11
TORSDOF 3
