REMARK  Name = ZINC09237637
REMARK  8 active torsions:
REMARK  status: ('A' for Active; 'I' for Inactive)
REMARK    1  A    between atoms: C_1  and  C_2
REMARK    2  A    between atoms: N_8  and  C_9
REMARK    3  A    between atoms: C_9  and  C_10
REMARK    4  A    between atoms: C_16  and  C_24
REMARK    5  A    between atoms: C_18  and  C_22
REMARK    6  A    between atoms: C_19  and  N_21
REMARK    7  A    between atoms: C_29  and  O_30
REMARK    8  A    between atoms: O_30  and  C_31
REMARK                            x       y       z     vdW  Elec       q    Type
REMARK                         _______ _______ _______ _____ _____    ______ ____
ROOT
ATOM      1  C   UNL     1      -2.897   7.084   4.819  0.00  0.00    +0.064 C 
ATOM      2  C   UNL     1      -2.793   6.260   3.561  0.00  0.00    +0.023 A 
ATOM      3  C   UNL     1      -2.542   6.872   2.383  0.00  0.00    +0.068 A 
ATOM      4  C   UNL     1      -2.445   6.106   1.203  0.00  0.00    +0.141 A 
ATOM      5  C   UNL     1      -2.608   4.739   1.279  0.00  0.00    +0.072 A 
ATOM      6  C   UNL     1      -2.866   4.148   2.522  0.00  0.00    +0.259 A 
ATOM      7  O   UNL     1      -3.013   2.939   2.604  0.00  0.00    -0.267 OA
ATOM      8  N   UNL     1      -2.953   4.912   3.627  0.00  0.00    -0.310 N 
ATOM      9  C   UNL     1      -2.512   3.884   0.045  0.00  0.00    +0.107 C 
ATOM     10  C   UNL     1      -2.632   4.738  -1.187  0.00  0.00    +0.098 C 
ATOM     11  C   UNL     1      -2.471   6.081  -1.129  0.00  0.00    +0.199 C 
ATOM     12  O   UNL     1      -2.196   6.715   0.024  0.00  0.00    -0.441 OA
ENDROOT
BRANCH   9  13
ATOM     13  C   UNL     1      -1.183   3.174   0.032  0.00  0.00    +0.008 A 
ATOM     14  C   UNL     1      -0.009   3.903   0.028  0.00  0.00    +0.023 A 
ATOM     15  C   UNL     1       1.211   3.251   0.016  0.00  0.00    +0.018 A 
ATOM     16  C   UNL     1       1.259   1.868   0.009  0.00  0.00    +0.019 A 
ATOM     17  C   UNL     1       0.088   1.136   0.013  0.00  0.00    +0.047 A 
ATOM     18  C   UNL     1      -1.137   1.787   0.019  0.00  0.00    +0.124 A 
ATOM     19 BR   UNL     1       2.816   4.251   0.009  0.00  0.00    -0.050 Br
BRANCH  18  20
ATOM     20  O   UNL     1      -2.290   1.068   0.018  0.00  0.00    -0.495 OA
ATOM     21  C   UNL     1      -2.167  -0.355   0.009  0.00  0.00    +0.277 C 
ENDBRANCH  18  20
ENDBRANCH   9  13
BRANCH  11  22
ATOM     22  N   UNL     1      -2.590   6.816  -2.282  0.00  0.00    -0.328 N 
ATOM     23  H   UNL     1      -2.477   7.779  -2.256  0.00  0.00    +0.145 HD
ATOM     24  H   UNL     1      -2.788   6.373  -3.122  0.00  0.00    +0.145 HD
ENDBRANCH  11  22
BRANCH  10  25
ATOM     25  C   UNL     1      -2.923   4.119  -2.445  0.00  0.00    +0.101 C 
ATOM     26  N   UNL     1      -3.154   3.627  -3.443  0.00  0.00    -0.191 NA
ENDBRANCH  10  25
BRANCH   8  27
ATOM     27  C   UNL     1      -3.224   4.281   4.921  0.00  0.00    +0.156 C 
BRANCH  27  28
ATOM     28  C   UNL     1      -1.913   3.772   5.524  0.00  0.00    +0.138 C 
ATOM     29  C   UNL     1      -2.189   2.993   6.829  0.00  0.00    +0.035 C 
ATOM     30  C   UNL     1      -1.007   3.371   7.749  0.00  0.00    +0.031 C 
ATOM     31  C   UNL     1      -0.156   4.334   6.892  0.00  0.00    +0.160 C 
ATOM     32  O   UNL     1      -1.081   4.882   5.926  0.00  0.00    -0.375 OA
ENDBRANCH  27  28
ENDBRANCH   8  27
TORSDOF 6
