REMARK  Name = ZINC39666597
REMARK  7 active torsions:
REMARK  status: ('A' for Active; 'I' for Inactive)
REMARK    1  A    between atoms: C_1  and  C_2
REMARK    2  A    between atoms: C_2  and  C_4
REMARK    3  A    between atoms: C_2  and  O_30
REMARK    4  A    between atoms: C_4  and  N_5
REMARK    5  A    between atoms: C_6  and  C_8
REMARK    6  A    between atoms: C_19  and  C_21
REMARK    7  A    between atoms: O_30  and  C_31
REMARK                            x       y       z     vdW  Elec       q    Type
REMARK                         _______ _______ _______ _____ _____    ______ ____
ROOT
ATOM      1  C   UNL     1       1.592  -4.640   2.737  0.00  0.00    +0.100 C 
ATOM      2  C   UNL     1       0.213  -5.331   2.652  0.00  0.00    +0.121 C 
ATOM      3  N   UNL     1       0.328  -6.508   3.545  0.00  0.00    -0.296 N 
ATOM      4  C   UNL     1       1.111  -6.016   4.705  0.00  0.00    +0.115 C 
ATOM      5  C   UNL     1       2.178  -5.091   4.086  0.00  0.00    -0.004 C 
ATOM      6  C   UNL     1       3.478  -5.859   3.867  0.00  0.00    -0.010 C 
ATOM      7  C   UNL     1       4.070  -6.248   5.224  0.00  0.00    -0.082 C 
ATOM      8  N   UNL     1       4.321  -5.038   6.016  0.00  0.00    +0.379 N 
ATOM      9  C   UNL     1       3.053  -4.354   6.301  0.00  0.00    -0.082 C 
ATOM     10  C   UNL     1       2.418  -3.885   4.989  0.00  0.00    -0.010 C 
ATOM     11  C   UNL     1      -0.167  -7.746   3.348  0.00  0.00    +0.248 C 
ATOM     12  O   UNL     1      -0.049  -8.593   4.214  0.00  0.00    -0.270 OA
ATOM     13  H   UNL     1       4.767  -5.292   6.885  0.00  0.00    -0.086 HD
ATOM     14  H   UNL     1       4.926  -4.418   5.498  0.00  0.00    -0.086 HD
ENDROOT
BRANCH  11  15
ATOM     15  C   UNL     1      -0.848  -8.073   2.089  0.00  0.00    +0.052 A 
ATOM     16  C   UNL     1      -1.615  -7.153   1.448  0.00  0.00    +0.059 A 
ATOM     17  S   UNL     1      -2.192  -7.929   0.079  0.00  0.00    -0.096 S 
ATOM     18  C   UNL     1      -1.444  -9.522   0.283  0.00  0.00    +0.020 A 
ATOM     19  C   UNL     1      -0.716  -9.399   1.481  0.00  0.00    +0.001 A 
ATOM     20  C   UNL     1       0.007 -10.526   1.916  0.00  0.00    +0.010 A 
ATOM     21  C   UNL     1      -0.008 -11.686   1.182  0.00  0.00    +0.001 A 
ATOM     22  C   UNL     1      -0.730 -11.780   0.002  0.00  0.00    +0.001 A 
ATOM     23  C   UNL     1      -1.457 -10.694  -0.444  0.00  0.00    +0.015 A 
ENDBRANCH  11  15
BRANCH   1  25
ATOM     24  N   UNL     1       2.397  -2.369   2.176  0.00  0.00    -0.312 N 
ATOM     25  C   UNL     1       1.431  -3.142   2.710  0.00  0.00    +0.218 C 
ATOM     26  O   UNL     1       0.432  -2.631   3.170  0.00  0.00    -0.275 OA
ATOM     27  H   UNL     1       3.197  -2.778   1.808  0.00  0.00    +0.149 HD
BRANCH  24  28
ATOM     28  C   UNL     1       2.241  -0.913   2.150  0.00  0.00    +0.148 C 
BRANCH  28  30
ATOM     29  C   UNL     1       3.364   1.244   1.579  0.00  0.00    +0.053 C 
ATOM     30  C   UNL     1       3.470  -0.280   1.494  0.00  0.00    +0.187 C 
BRANCH  30  31
ATOM     31  O   UNL     1       3.537  -0.677   0.123  0.00  0.00    -0.486 OA
BRANCH  31  32
ATOM     32  C   UNL     1       4.761  -0.654  -0.467  0.00  0.00    +0.139 A 
ATOM     33  C   UNL     1       5.888  -0.350   0.283  0.00  0.00    +0.047 A 
ATOM     34  C   UNL     1       7.131  -0.328  -0.319  0.00  0.00    +0.004 A 
ATOM     35  C   UNL     1       7.254  -0.608  -1.667  0.00  0.00    +0.002 A 
ATOM     36  C   UNL     1       6.133  -0.910  -2.417  0.00  0.00    +0.023 A 
ATOM     37  C   UNL     1       4.887  -0.940  -1.819  0.00  0.00    +0.083 A 
ATOM     38 CL   UNL     1       3.480  -1.327  -2.760  0.00  0.00    -0.080 Cl
ENDBRANCH  31  32
ENDBRANCH  30  31
ENDBRANCH  28  30
ENDBRANCH  24  28
ENDBRANCH   1  25
TORSDOF 6
