REMARK  Name = ZINC58950008
REMARK  7 active torsions:
REMARK  status: ('A' for Active; 'I' for Inactive)
REMARK    1  A    between atoms: C_1  and  C_2
REMARK    2  A    between atoms: C_2  and  C_26
REMARK    3  A    between atoms: C_6  and  C_15
REMARK    4  A    between atoms: C_8  and  C_12
REMARK    5  A    between atoms: C_9  and  N_11
REMARK    6  A    between atoms: C_20  and  O_21
REMARK    7  A    between atoms: O_21  and  C_22
REMARK                            x       y       z     vdW  Elec       q    Type
REMARK                         _______ _______ _______ _____ _____    ______ ____
ROOT
ATOM      1  C   UNL     1       0.090   1.494   0.093  0.00  0.00    +0.012 C 
ATOM      2  C   UNL     1       0.075  -0.035   0.032  0.00  0.00    -0.021 C 
ATOM      3  C   UNL     1      -1.366  -0.539   0.135  0.00  0.00    +0.081 C 
ATOM      4  C   UNL     1      -1.378  -2.050   0.117  0.00  0.00    +0.115 C 
ATOM      5  C   UNL     1      -0.351  -2.752   0.629  0.00  0.00    +0.045 C 
ATOM      6  C   UNL     1      -0.369  -4.261   0.618  0.00  0.00    +0.099 C 
ATOM      7  C   UNL     1      -1.769  -4.763   0.401  0.00  0.00    +0.083 C 
ATOM      8  C   UNL     1      -2.724  -3.942  -0.106  0.00  0.00    +0.193 C 
ATOM      9  O   UNL     1      -2.444  -2.669  -0.427  0.00  0.00    -0.446 OA
ATOM     10  C   UNL     1       0.771  -2.106   1.186  0.00  0.00    +0.164 C 
ATOM     11  O   UNL     1       1.670  -2.773   1.656  0.00  0.00    -0.292 OA
ATOM     12  C   UNL     1       0.874  -0.605   1.209  0.00  0.00    +0.086 C 
ATOM     13  C   UNL     1       0.695  -0.503  -1.286  0.00  0.00    +0.012 C 
ENDROOT
BRANCH   6  14
ATOM     14  C   UNL     1       0.515  -4.762  -0.495  0.00  0.00    +0.007 A 
ATOM     15  C   UNL     1       0.247  -4.409  -1.804  0.00  0.00    +0.008 A 
ATOM     16  C   UNL     1       1.058  -4.869  -2.825  0.00  0.00    +0.001 A 
ATOM     17  C   UNL     1       2.138  -5.683  -2.539  0.00  0.00    +0.004 A 
ATOM     18  C   UNL     1       2.410  -6.039  -1.233  0.00  0.00    +0.046 A 
ATOM     19  C   UNL     1       1.601  -5.574  -0.206  0.00  0.00    +0.124 A 
BRANCH  19  20
ATOM     20  O   UNL     1       1.870  -5.918   1.081  0.00  0.00    -0.495 OA
ATOM     21  C   UNL     1       3.005  -6.758   1.305  0.00  0.00    +0.277 C 
ENDBRANCH  19  20
ENDBRANCH   6  14
BRANCH   7  22
ATOM     22  C   UNL     1      -2.092  -6.092   0.726  0.00  0.00    +0.243 C 
ATOM     23  O   UNL     1      -2.284  -6.406   1.888  0.00  0.00    -0.271 OA
ATOM     24  N   UNL     1      -2.190  -7.019  -0.247  0.00  0.00    -0.325 N 
ATOM     25  H   UNL     1      -2.037  -6.769  -1.172  0.00  0.00    +0.145 HD
ATOM     26  H   UNL     1      -2.413  -7.936  -0.023  0.00  0.00    +0.145 HD
ENDBRANCH   7  22
BRANCH   8  27
ATOM     27  N   UNL     1      -3.994  -4.421  -0.294  0.00  0.00    -0.329 N 
ATOM     28  H   UNL     1      -4.228  -5.309   0.017  0.00  0.00    +0.145 HD
ATOM     29  H   UNL     1      -4.659  -3.871  -0.738  0.00  0.00    +0.145 HD
ENDBRANCH   8  27
TORSDOF 4
