REMARK  Name = ZINC38679470
REMARK  7 active torsions:
REMARK  status: ('A' for Active; 'I' for Inactive)
REMARK    1  A    between atoms: C_1  and  C_2
REMARK    2  A    between atoms: C_7  and  C_8
REMARK    3  A    between atoms: C_8  and  O_10
REMARK    4  A    between atoms: O_10  and  C_11
REMARK    5  A    between atoms: C_18  and  N_32
REMARK    6  A    between atoms: C_19  and  C_30
REMARK    7  A    between atoms: C_20  and  C_22
REMARK                            x       y       z     vdW  Elec       q    Type
REMARK                         _______ _______ _______ _____ _____    ______ ____
ROOT
ATOM      1  C   UNL     1       0.200  -0.296   4.996  0.00  0.00    +0.135 A 
ATOM      2  C   UNL     1       0.064   1.085   4.963  0.00  0.00    +0.047 A 
ATOM      3  C   UNL     1       0.050   1.806   6.141  0.00  0.00    +0.012 A 
ATOM      4  C   UNL     1       0.172   1.156   7.357  0.00  0.00    +0.008 A 
ATOM      5  C   UNL     1       0.308  -0.222   7.396  0.00  0.00    +0.138 A 
ATOM      6  C   UNL     1       0.316  -0.949   6.212  0.00  0.00    +0.093 A 
ATOM      7  O   UNL     1       0.429  -0.876   8.578  0.00  0.00    -0.441 OA
ATOM      8  C   UNL     1       0.801  -0.205   9.680  0.00  0.00    +0.199 C 
ATOM      9  C   UNL     1       0.697   1.142   9.768  0.00  0.00    +0.098 C 
ATOM     10  C   UNL     1       0.155   1.960   8.630  0.00  0.00    +0.101 C 
ENDROOT
BRANCH  10  11
ATOM     11  C   UNL     1      -1.261   2.372   8.941  0.00  0.00    +0.002 A 
ATOM     12  C   UNL     1      -2.233   1.409   9.144  0.00  0.00    +0.046 A 
ATOM     13  C   UNL     1      -3.533   1.788   9.429  0.00  0.00    +0.020 A 
ATOM     14  C   UNL     1      -3.860   3.129   9.511  0.00  0.00    +0.003 A 
ATOM     15  C   UNL     1      -2.889   4.091   9.308  0.00  0.00    +0.020 A 
ATOM     16  C   UNL     1      -1.588   3.714   9.029  0.00  0.00    +0.046 A 
ATOM     17 CL   UNL     1      -0.367   4.923   8.782  0.00  0.00    -0.083 Cl
ATOM     18 CL   UNL     1      -1.823  -0.274   9.040  0.00  0.00    -0.083 Cl
ENDBRANCH  10  11
BRANCH   8  19
ATOM     19  N   UNL     1       1.302  -0.905  10.749  0.00  0.00    -0.328 N 
ATOM     20  H   UNL     1       1.383  -1.871  10.701  0.00  0.00    +0.145 HD
ATOM     21  H   UNL     1       1.575  -0.435  11.552  0.00  0.00    +0.145 HD
ENDBRANCH   8  19
BRANCH   9  22
ATOM     22  C   UNL     1       1.112   1.801  10.970  0.00  0.00    +0.101 C 
ATOM     23  N   UNL     1       1.441   2.323  11.924  0.00  0.00    -0.191 NA
ENDBRANCH   9  22
BRANCH   1  24
ATOM     24  O   UNL     1       0.213  -1.007   3.838  0.00  0.00    -0.422 OA
BRANCH  24  25
ATOM     25  C   UNL     1       1.360  -1.044   3.132  0.00  0.00    +0.345 C 
ATOM     26  O   UNL     1       2.371  -0.551   3.590  0.00  0.00    -0.245 OA
BRANCH  25  33
ATOM     27  C   UNL     1       3.752  -0.876   1.513  0.00  0.00    +0.044 C 
ATOM     28  C   UNL     1       2.536  -1.610   1.010  0.00  0.00    -0.036 A 
ATOM     29  C   UNL     1       2.556  -2.215  -0.229  0.00  0.00    +0.004 A 
ATOM     30  C   UNL     1       1.440  -2.889  -0.692  0.00  0.00    +0.000 A 
ATOM     31  C   UNL     1       0.296  -2.961   0.083  0.00  0.00    +0.001 A 
ATOM     32  C   UNL     1       0.262  -2.360   1.324  0.00  0.00    +0.015 A 
ATOM     33  C   UNL     1       1.387  -1.684   1.801  0.00  0.00    +0.062 A 
ENDBRANCH  25  33
ENDBRANCH  24  25
ENDBRANCH   1  24
TORSDOF 6
