REMARK  Name = ZINC39658847
REMARK  6 active torsions:
REMARK  status: ('A' for Active; 'I' for Inactive)
REMARK    1  A    between atoms: C_1  and  C_2
REMARK    2  A    between atoms: C_2  and  C_32
REMARK    3  A    between atoms: C_5  and  C_8
REMARK    4  A    between atoms: C_8  and  N_9
REMARK    5  A    between atoms: C_10  and  C_12
REMARK    6  A    between atoms: C_23  and  C_25
REMARK                            x       y       z     vdW  Elec       q    Type
REMARK                         _______ _______ _______ _____ _____    ______ ____
ROOT
ATOM      1  C   UNL     1       3.368  -2.971   4.861  0.00  0.00    +0.100 C 
ATOM      2  C   UNL     1       3.717  -4.339   4.231  0.00  0.00    +0.121 C 
ATOM      3  N   UNL     1       4.620  -4.984   5.213  0.00  0.00    -0.296 N 
ATOM      4  C   UNL     1       4.044  -4.628   6.532  0.00  0.00    +0.115 C 
ATOM      5  C   UNL     1       3.584  -3.166   6.372  0.00  0.00    -0.004 C 
ATOM      6  C   UNL     1       2.277  -2.939   7.125  0.00  0.00    -0.010 C 
ATOM      7  C   UNL     1       2.529  -3.080   8.629  0.00  0.00    -0.082 C 
ATOM      8  N   UNL     1       3.538  -2.102   9.052  0.00  0.00    +0.379 N 
ATOM      9  C   UNL     1       4.818  -2.385   8.392  0.00  0.00    -0.082 C 
ATOM     10  C   UNL     1       4.663  -2.214   6.878  0.00  0.00    -0.010 C 
ATOM     11  C   UNL     1       5.716  -5.727   4.963  0.00  0.00    +0.248 C 
ATOM     12  O   UNL     1       6.120  -5.850   3.823  0.00  0.00    -0.270 OA
ATOM     13  H   UNL     1       3.230  -1.174   8.802  0.00  0.00    -0.086 HD
ATOM     14  H   UNL     1       3.658  -2.155  10.053  0.00  0.00    -0.086 HD
ENDROOT
BRANCH  11  15
ATOM     15  C   UNL     1       6.428  -6.391   6.075  0.00  0.00    +0.055 A 
ATOM     16  C   UNL     1       5.713  -6.897   7.162  0.00  0.00    +0.014 A 
ATOM     17  C   UNL     1       6.383  -7.517   8.196  0.00  0.00    +0.001 A 
ATOM     18  C   UNL     1       7.761  -7.637   8.159  0.00  0.00    +0.001 A 
ATOM     19  C   UNL     1       8.477  -7.138   7.086  0.00  0.00    +0.021 A 
ATOM     20  C   UNL     1       7.818  -6.521   6.040  0.00  0.00    +0.053 A 
ATOM     21 CL   UNL     1       8.717  -5.902   4.690  0.00  0.00    -0.083 Cl
ENDBRANCH  11  15
BRANCH   1  23
ATOM     22  N   UNL     1       1.530  -1.330   4.656  0.00  0.00    -0.312 N 
ATOM     23  C   UNL     1       1.932  -2.614   4.578  0.00  0.00    +0.218 C 
ATOM     24  O   UNL     1       1.139  -3.481   4.279  0.00  0.00    -0.275 OA
ATOM     25  H   UNL     1       2.164  -0.636   4.895  0.00  0.00    +0.149 HD
BRANCH  22  26
ATOM     26  C   UNL     1       0.133  -0.982   4.380  0.00  0.00    +0.138 C 
BRANCH  26  31
ATOM     27  C   UNL     1      -1.333   2.190   7.420  0.00  0.00    +0.074 C 
ATOM     28  C   UNL     1      -0.673   2.137   6.040  0.00  0.00    +0.165 C 
ATOM     29  O   UNL     1      -1.682   2.144   5.022  0.00  0.00    -0.347 OA
ATOM     30  C   UNL     1      -1.524   0.935   4.254  0.00  0.00    +0.196 C 
ATOM     31  C   UNL     1      -0.057   0.528   4.538  0.00  0.00    +0.164 C 
ATOM     32  O   UNL     1       0.097   0.929   5.920  0.00  0.00    -0.342 OA
ATOM     33  C   UNL     1       0.242   3.350   5.862  0.00  0.00    +0.074 C 
ENDBRANCH  26  31
ENDBRANCH  22  26
ENDBRANCH   1  23
TORSDOF 4
