REMARK  Name = ZINC65349312
REMARK  9 active torsions:
REMARK  status: ('A' for Active; 'I' for Inactive)
REMARK    1  A    between atoms: C_1  and  C_2
REMARK    2  A    between atoms: C_2  and  C_3
REMARK    3  A    between atoms: C_2  and  C_4
REMARK    4  A    between atoms: C_2  and  N_5
REMARK    5  A    between atoms: N_5  and  S_6
REMARK    6  A    between atoms: S_6  and  C_9
REMARK    7  A    between atoms: C_13  and  C_15
REMARK    8  A    between atoms: C_17  and  C_22
REMARK    9  A    between atoms: C_18  and  O_21
REMARK                            x       y       z     vdW  Elec       q    Type
REMARK                         _______ _______ _______ _____ _____    ______ ____
ROOT
ATOM      1  C   UNL     1       2.942  -0.207  -0.014  0.00  0.00    +0.106 A 
ATOM      2  C   UNL     1       2.884   0.506   1.170  0.00  0.00    +0.028 A 
ATOM      3  C   UNL     1       3.674   0.139   2.244  0.00  0.00    +0.002 A 
ATOM      4  C   UNL     1       4.524  -0.944   2.140  0.00  0.00    +0.008 A 
ATOM      5  C   UNL     1       4.586  -1.666   0.951  0.00  0.00    -0.015 A 
ATOM      6  C   UNL     1       3.784  -1.294  -0.127  0.00  0.00    +0.037 A 
ENDROOT
BRANCH   5   7
ATOM      7  C   UNL     1       5.498  -2.831   0.833  0.00  0.00    +0.001 A 
ATOM      8  C   UNL     1       6.294  -3.214   1.912  0.00  0.00    +0.030 A 
ATOM      9  C   UNL     1       7.138  -4.319   1.751  0.00  0.00    +0.125 A 
ATOM     10  C   UNL     1       7.148  -4.993   0.518  0.00  0.00    +0.227 A 
ATOM     11  N   UNL     1       6.373  -4.590  -0.476  0.00  0.00    -0.220 NA
ATOM     12  C   UNL     1       5.564  -3.558  -0.355  0.00  0.00    +0.123 A 
BRANCH   9  13
ATOM     13  C   UNL     1       8.001  -4.768   2.856  0.00  0.00    +0.392 C 
ATOM     14  O   UNL     1       7.985  -4.174   3.925  0.00  0.00    -0.240 OA
ATOM     15  O   UNL     1       8.735  -5.735   2.704  0.00  0.00    -0.240 OA
ENDBRANCH   9  13
BRANCH  10  16
ATOM     16  O   UNL     1       7.958  -6.063   0.345  0.00  0.00    -0.492 OA
ATOM     17  H   UNL     1       7.550  -6.907   0.581  0.00  0.00    +0.294 HD
ENDBRANCH  10  16
ENDBRANCH   5   7
BRANCH   1  18
ATOM     18  S   UNL     1       1.932   0.268  -1.377  0.00  0.00    +0.059 S 
ATOM     19  O   UNL     1       2.439  -0.415  -2.516  0.00  0.00    -0.153 OA
ATOM     20  O   UNL     1       1.820   1.684  -1.325  0.00  0.00    -0.153 OA
BRANCH  18  21
ATOM     21  N   UNL     1       0.416  -0.337  -1.098  0.00  0.00    -0.185 NA
ATOM     22  H   UNL     1      -0.321   0.267  -0.913  0.00  0.00    +0.149 HD
BRANCH  21  24
ATOM     23  C   UNL     1       1.203  -2.482  -0.226  0.00  0.00    +0.029 C 
ATOM     24  C   UNL     1       0.187  -1.783  -1.132  0.00  0.00    +0.032 C 
ATOM     25  C   UNL     1       0.348  -2.292  -2.566  0.00  0.00    +0.029 C 
ATOM     26  C   UNL     1      -1.229  -2.087  -0.639  0.00  0.00    +0.029 C 
ENDBRANCH  21  24
ENDBRANCH  18  21
ENDBRANCH   1  18
TORSDOF 6
