REMARK  Name = ZINC50815359
REMARK  8 active torsions:
REMARK  status: ('A' for Active; 'I' for Inactive)
REMARK    1  A    between atoms: C_1  and  C_2
REMARK    2  A    between atoms: C_2  and  C_4
REMARK    3  A    between atoms: C_2  and  C_19
REMARK    4  A    between atoms: C_4  and  N_5
REMARK    5  A    between atoms: N_5  and  C_6
REMARK    6  A    between atoms: N_5  and  C_7
REMARK    7  A    between atoms: C_7  and  C_8
REMARK    8  A    between atoms: N_17  and  C_18
REMARK                            x       y       z     vdW  Elec       q    Type
REMARK                         _______ _______ _______ _____ _____    ______ ____
ROOT
ATOM      1  C   UNL     1       4.199   0.287   2.421  0.00  0.00    +0.146 A 
ATOM      2  N   UNL     1       5.233  -0.398   1.966  0.00  0.00    -0.216 NA
ATOM      3  C   UNL     1       6.452   0.114   1.921  0.00  0.00    +0.130 A 
ATOM      4  C   UNL     1       6.662   1.446   2.375  0.00  0.00    +0.047 A 
ATOM      5  C   UNL     1       7.885   2.227   2.428  0.00  0.00    +0.021 A 
ATOM      6  C   UNL     1       7.841   3.481   2.902  0.00  0.00    +0.048 A 
ATOM      7  S   UNL     1       6.123   3.708   3.320  0.00  0.00    -0.077 S 
ATOM      8  C   UNL     1       5.511   2.113   2.846  0.00  0.00    +0.114 A 
ATOM      9  N   UNL     1       4.330   1.526   2.851  0.00  0.00    -0.223 NA
ATOM     10  N   UNL     1       7.509  -0.636   1.438  0.00  0.00    -0.332 N 
ATOM     11  C   UNL     1       7.282  -2.006   0.973  0.00  0.00    +0.127 C 
ATOM     12  H   UNL     1       8.400  -0.254   1.407  0.00  0.00    +0.147 HD
ENDROOT
BRANCH   1  13
ATOM     13  C   UNL     1       2.838  -0.361   2.444  0.00  0.00    +0.160 C 
BRANCH  13  14
ATOM     14  N   UNL     1       2.151  -0.103   1.171  0.00  0.00    -0.297 NA
ATOM     15  C   UNL     1       2.838  -0.770   0.057  0.00  0.00    +0.105 C 
BRANCH  14  16
ATOM     16  C   UNL     1       0.742  -0.511   1.242  0.00  0.00    +0.102 C 
BRANCH  16  18
ATOM     17  C   UNL     1      -0.019   1.526   0.010  0.00  0.00    +0.024 C 
ATOM     18  C   UNL     1       0.002  -0.004   0.002  0.00  0.00    +0.102 C 
BRANCH  18  19
ATOM     19  C   UNL     1      -1.379  -0.514   0.013  0.00  0.00    +0.067 C 
ATOM     20  N   UNL     1      -2.445  -0.907   0.021  0.00  0.00    -0.196 NA
ENDBRANCH  18  19
ENDBRANCH  16  18
ENDBRANCH  14  16
ENDBRANCH  13  14
ENDBRANCH   1  13
TORSDOF 5
