REMARK  Name = ZINC65265974
REMARK  5 active torsions:
REMARK  status: ('A' for Active; 'I' for Inactive)
REMARK    1  A    between atoms: C_1  and  C_2
REMARK    2  A    between atoms: C_2  and  C_3
REMARK    3  A    between atoms: C_2  and  C_4
REMARK    4  A    between atoms: C_2  and  N_5
REMARK    5  A    between atoms: C_21  and  C_23
REMARK                            x       y       z     vdW  Elec       q    Type
REMARK                         _______ _______ _______ _____ _____    ______ ____
ROOT
ATOM      1  N   UNL     1      -0.184  -0.321  -0.988  0.00  0.00    -0.370 N 
ATOM      2  C   UNL     1       1.078  -0.583  -1.099  0.00  0.00    +0.095 C 
ATOM      3  N   UNL     1       1.986  -0.180  -0.149  0.00  0.00    -0.303 N 
ATOM      4  C   UNL     1       2.277  -1.037   0.908  0.00  0.00    +0.037 A 
ATOM      5  C   UNL     1       2.332  -0.544   2.204  0.00  0.00    +0.023 A 
ATOM      6  C   UNL     1       2.635  -1.387   3.255  0.00  0.00    +0.002 A 
ATOM      7  C   UNL     1       2.885  -2.724   3.002  0.00  0.00    +0.000 A 
ATOM      8  C   UNL     1       2.825  -3.214   1.716  0.00  0.00    +0.007 A 
ATOM      9  C   UNL     1       2.513  -2.380   0.646  0.00  0.00    -0.012 A 
ATOM     10  C   UNL     1       2.437  -3.021  -0.716  0.00  0.00    +0.119 C 
ATOM     11  N   UNL     1       2.805  -2.097  -1.798  0.00  0.00    -0.299 NA
ATOM     12  C   UNL     1       1.622  -1.343  -2.260  0.00  0.00    +0.091 C 
ATOM     13  C   UNL     1       2.000  -0.418  -3.429  0.00  0.00    +0.050 C 
ATOM     14  C   UNL     1       1.900  -1.356  -4.654  0.00  0.00    +0.110 C 
ATOM     15  N   UNL     1       1.038  -2.486  -4.271  0.00  0.00    -0.295 N 
ATOM     16  C   UNL     1       0.582  -2.285  -2.880  0.00  0.00    +0.137 C 
ATOM     17  C   UNL     1       0.719  -3.531  -5.059  0.00  0.00    +0.247 C 
ATOM     18  O   UNL     1       0.084  -4.464  -4.604  0.00  0.00    -0.270 OA
ATOM     19  H   UNL     1      -0.816  -0.710  -1.613  0.00  0.00    +0.161 HD
ATOM     20  H   UNL     1       3.543  -1.474  -1.507  0.00  0.00    +0.123 HD
ATOM     21  H   UNL     1       2.416   0.686  -0.215  0.00  0.00    +0.153 HD
ENDROOT
BRANCH  17  22
ATOM     22  C   UNL     1       1.137  -3.544  -6.470  0.00  0.00    +0.044 A 
ATOM     23  C   UNL     1       0.651  -4.541  -7.393  0.00  0.00    +0.020 A 
ATOM     24  C   UNL     1       1.110  -4.442  -8.657  0.00  0.00    +0.046 A 
ATOM     25  S   UNL     1       2.181  -3.022  -8.587  0.00  0.00    -0.104 S 
ATOM     26  C   UNL     1       2.007  -2.602  -6.972  0.00  0.00    +0.058 A 
ENDBRANCH  17  22
BRANCH   1  28
ATOM     27  C   UNL     1       0.145   1.865   0.057  0.00  0.00    +0.033 C 
ATOM     28  C   UNL     1      -0.657   0.563   0.079  0.00  0.00    +0.031 C 
ATOM     29  C   UNL     1      -0.472  -0.127   1.432  0.00  0.00    +0.033 C 
ATOM     30  C   UNL     1      -2.140   0.874  -0.136  0.00  0.00    +0.033 C 
ENDBRANCH   1  28
TORSDOF 2
