REMARK  Name = ZINC58399974
REMARK  3 active torsions:
REMARK  status: ('A' for Active; 'I' for Inactive)
REMARK    1  A    between atoms: C_1  and  C_2
REMARK    2  A    between atoms: N_10  and  N_14
REMARK    3  A    between atoms: C_15  and  C_17
REMARK                            x       y       z     vdW  Elec       q    Type
REMARK                         _______ _______ _______ _____ _____    ______ ____
ROOT
ATOM      1  C   UNL     1      -0.019   1.526   0.010  0.00  0.00    +0.007 C 
ATOM      2  C   UNL     1       0.002  -0.004   0.002  0.00  0.00    -0.014 C 
ATOM      3  C   UNL     1       0.716  -0.497  -1.258  0.00  0.00    +0.006 C 
ATOM      4  C   UNL     1       0.727  -2.028  -1.271  0.00  0.00    +0.035 C 
ATOM      5  C   UNL     1       1.442  -2.543  -0.027  0.00  0.00    +0.114 C 
ATOM      6  C   UNL     1       0.753  -2.041   1.238  0.00  0.00    +0.035 C 
ATOM      7  C   UNL     1       0.742  -0.510   1.242  0.00  0.00    +0.006 C 
ATOM      8  C   UNL     1       1.495  -4.053  -0.035  0.00  0.00    +0.263 C 
ATOM      9  O   UNL     1       0.556  -4.821  -0.030  0.00  0.00    -0.271 OA
ATOM     10  N   UNL     1       2.807  -4.367  -0.051  0.00  0.00    -0.137 N 
ATOM     11  C   UNL     1       3.576  -3.272  -0.053  0.00  0.00    +0.326 C 
ATOM     12  O   UNL     1       4.791  -3.300  -0.065  0.00  0.00    -0.251 OA
ATOM     13  N   UNL     1       2.853  -2.136  -0.039  0.00  0.00    -0.284 N 
ATOM     14  H   UNL     1       3.196  -1.229  -0.038  0.00  0.00    +0.151 HD
ENDROOT
BRANCH  10  15
ATOM     15  N   UNL     1       3.303  -5.678  -0.062  0.00  0.00    -0.218 N 
ATOM     16  C   UNL     1       3.812  -6.196  -1.197  0.00  0.00    +0.277 C 
ATOM     17  O   UNL     1       3.841  -5.525  -2.212  0.00  0.00    -0.267 OA
ATOM     18  H   UNL     1       3.280  -6.212   0.747  0.00  0.00    +0.174 HD
BRANCH  16  19
ATOM     19  C   UNL     1       4.331  -7.568  -1.209  0.00  0.00    +0.104 A 
ATOM     20  C   UNL     1       4.882  -8.221  -2.291  0.00  0.00    +0.047 A 
ATOM     21  C   UNL     1       5.242  -9.502  -1.858  0.00  0.00    +0.036 A 
ATOM     22  C   UNL     1       4.911  -9.606  -0.549  0.00  0.00    +0.098 A 
ATOM     23  N   UNL     1       4.361  -8.435  -0.141  0.00  0.00    -0.356 N 
ATOM     24  H   UNL     1       4.040  -8.242   0.754  0.00  0.00    +0.166 HD
ATOM     25 BR   UNL     1       6.047 -10.848  -2.914  0.00  0.00    -0.049 Br
ENDBRANCH  16  19
ENDBRANCH  10  15
TORSDOF 2
