REMARK  Name = ZINC39918895
REMARK  7 active torsions:
REMARK  status: ('A' for Active; 'I' for Inactive)
REMARK    1  A    between atoms: C_1  and  C_2
REMARK    2  A    between atoms: C_11  and  N_29
REMARK    3  A    between atoms: C_12  and  C_27
REMARK    4  A    between atoms: N_20  and  C_23
REMARK    5  A    between atoms: C_23  and  C_24
REMARK    6  A    between atoms: C_24  and  C_25
REMARK    7  A    between atoms: C_24  and  C_26
REMARK                            x       y       z     vdW  Elec       q    Type
REMARK                         _______ _______ _______ _____ _____    ______ ____
ROOT
ATOM      1  C   UNL     1      -0.018   1.503   0.010  0.00  0.00    +0.063 C 
ATOM      2  C   UNL     1       0.002  -0.004   0.002  0.00  0.00    +0.034 C 
ATOM      3  N   UNL     1       0.005  -0.644  -1.147  0.00  0.00    -0.185 NA
ATOM      4  C   UNL     1       0.031  -1.966  -1.231  0.00  0.00    +0.248 C 
ATOM      5  O   UNL     1       0.006  -2.479  -2.332  0.00  0.00    -0.273 OA
ATOM      6  C   UNL     1       0.090  -2.857  -0.027  0.00  0.00    +0.167 C 
ATOM      7  C   UNL     1       0.042  -2.042   1.244  0.00  0.00    +0.122 C 
ATOM      8  C   UNL     1       0.023  -0.697   1.216  0.00  0.00    +0.063 C 
ATOM      9  O   UNL     1       0.017  -2.717   2.415  0.00  0.00    -0.445 OA
ATOM     10  C   UNL     1      -0.753  -3.826   2.466  0.00  0.00    +0.199 C 
ATOM     11  C   UNL     1      -1.294  -4.386   1.360  0.00  0.00    +0.107 C 
ATOM     12  C   UNL     1      -1.109  -3.806  -0.011  0.00  0.00    +0.131 C 
ATOM     13  C   UNL     1      -2.348  -3.109  -0.478  0.00  0.00    -0.005 A 
ATOM     14  C   UNL     1      -3.028  -2.021   0.024  0.00  0.00    +0.007 A 
ATOM     15  C   UNL     1      -4.169  -1.618  -0.662  0.00  0.00    +0.000 A 
ATOM     16  C   UNL     1      -4.598  -2.282  -1.794  0.00  0.00    +0.002 A 
ATOM     17  C   UNL     1      -3.919  -3.377  -2.305  0.00  0.00    +0.024 A 
ATOM     18  C   UNL     1      -2.771  -3.790  -1.626  0.00  0.00    +0.041 A 
ATOM     19  N   UNL     1      -1.909  -4.834  -1.912  0.00  0.00    -0.270 N 
ATOM     20  C   UNL     1      -0.902  -4.917  -1.018  0.00  0.00    +0.237 C 
ATOM     21  O   UNL     1      -0.000  -5.729  -1.022  0.00  0.00    -0.274 OA
ENDROOT
BRANCH  10  22
ATOM     22  N   UNL     1      -0.994  -4.408   3.686  0.00  0.00    -0.328 N 
ATOM     23  H   UNL     1      -0.614  -4.022   4.490  0.00  0.00    +0.145 HD
ATOM     24  H   UNL     1      -1.544  -5.205   3.743  0.00  0.00    +0.145 HD
ENDBRANCH  10  22
BRANCH  11  25
ATOM     25  C   UNL     1      -2.077  -5.576   1.505  0.00  0.00    +0.101 C 
ATOM     26  N   UNL     1      -2.698  -6.520   1.620  0.00  0.00    -0.191 NA
ENDBRANCH  11  25
BRANCH  19  27
ATOM     27  C   UNL     1      -2.072  -5.741  -3.050  0.00  0.00    +0.116 C 
BRANCH  27  28
ATOM     28  C   UNL     1      -1.330  -5.176  -4.263  0.00  0.00    +0.001 C 
ATOM     29  C   UNL     1       0.172  -5.151  -3.977  0.00  0.00    +0.009 C 
ATOM     30  C   UNL     1      -1.602  -6.058  -5.484  0.00  0.00    +0.009 C 
ENDBRANCH  27  28
ENDBRANCH  19  27
TORSDOF 4
