REMARK  Name = ZINC47577368
REMARK  10 active torsions:
REMARK  status: ('A' for Active; 'I' for Inactive)
REMARK    1  A    between atoms: C_1  and  C_2
REMARK    2  A    between atoms: C_2  and  C_3
REMARK    3  A    between atoms: C_3  and  C_5
REMARK    4  A    between atoms: C_3  and  N_6
REMARK    5  A    between atoms: N_9  and  C_10
REMARK    6  A    between atoms: C_10  and  C_12
REMARK    7  A    between atoms: C_10  and  C_13
REMARK    8  A    between atoms: C_15  and  C_21
REMARK    9  A    between atoms: C_18  and  O_19
REMARK   10  A    between atoms: O_19  and  C_20
REMARK                            x       y       z     vdW  Elec       q    Type
REMARK                         _______ _______ _______ _____ _____    ______ ____
ROOT
ATOM      1  C   UNL     1       0.634   0.470   6.012  0.00  0.00    +0.105 C 
ATOM      2  C   UNL     1       1.105   1.920   5.882  0.00  0.00    +0.033 C 
ENDROOT
BRANCH   1   3
ATOM      3  C   UNL     1      -0.363   0.365   7.137  0.00  0.00    +0.014 A 
ATOM      4  C   UNL     1      -1.715   0.477   6.876  0.00  0.00    +0.012 A 
ATOM      5  C   UNL     1      -2.630   0.381   7.907  0.00  0.00    -0.050 A 
ATOM      6  C   UNL     1      -2.195   0.172   9.203  0.00  0.00    +0.007 A 
ATOM      7  C   UNL     1      -0.845   0.059   9.470  0.00  0.00    +0.046 A 
ATOM      8  C   UNL     1       0.075   0.150   8.436  0.00  0.00    +0.125 A 
ATOM      9  C   UNL     1      -4.104   0.505   7.619  0.00  0.00    +0.044 C 
BRANCH   8  10
ATOM     10  O   UNL     1       1.405   0.033   8.695  0.00  0.00    -0.495 OA
ATOM     11  C   UNL     1       1.783  -0.188  10.055  0.00  0.00    +0.277 C 
ENDBRANCH   8  10
ENDBRANCH   1   3
BRANCH   1  15
ATOM     12  N   UNL     1       0.175  -0.858   2.615  0.00  0.00    -0.297 N 
ATOM     13  C   UNL     1       0.756  -0.468   3.767  0.00  0.00    +0.300 C 
ATOM     14  O   UNL     1       1.958  -0.582   3.911  0.00  0.00    -0.253 OA
ATOM     15  N   UNL     1       0.004   0.047   4.760  0.00  0.00    -0.293 N 
ATOM     16  H   UNL     1      -0.783  -0.767   2.500  0.00  0.00    +0.151 HD
ATOM     17  H   UNL     1      -0.955   0.137   4.645  0.00  0.00    +0.151 HD
BRANCH  12  18
ATOM     18  C   UNL     1       0.993  -1.418   1.536  0.00  0.00    +0.071 C 
ATOM     19  C   UNL     1       1.192  -2.916   1.771  0.00  0.00    +0.028 C 
BRANCH  18  21
ATOM     20  C   UNL     1       0.200   0.298  -0.099  0.00  0.00    +0.005 C 
ATOM     21  C   UNL     1       0.287  -1.201   0.196  0.00  0.00    +0.019 C 
ENDBRANCH  18  21
ENDBRANCH  12  18
ENDBRANCH   1  15
TORSDOF 5
