REMARK  Name = ZINC52679578
REMARK  11 active torsions:
REMARK  status: ('A' for Active; 'I' for Inactive)
REMARK    1  A    between atoms: C_1  and  C_2
REMARK    2  A    between atoms: C_2  and  N_3
REMARK    3  A    between atoms: C_4  and  C_6
REMARK    4  A    between atoms: C_9  and  N_13
REMARK    5  A    between atoms: C_10  and  C_12
REMARK    6  A    between atoms: C_14  and  C_16
REMARK    7  A    between atoms: N_18  and  C_19
REMARK    8  A    between atoms: C_19  and  C_20
REMARK    9  A    between atoms: C_20  and  C_22
REMARK   10  A    between atoms: C_20  and  N_23
REMARK   11  A    between atoms: C_28  and  C_30
REMARK                            x       y       z     vdW  Elec       q    Type
REMARK                         _______ _______ _______ _____ _____    ______ ____
ROOT
ATOM      1  N   UNL     1      -7.146  -3.921  -0.121  0.00  0.00    -0.278 N 
ATOM      2  C   UNL     1      -8.167  -3.046  -0.208  0.00  0.00    +0.303 C 
ATOM      3  O   UNL     1      -7.963  -1.910  -0.582  0.00  0.00    -0.265 OA
ATOM      4  H   UNL     1      -7.318  -4.846   0.113  0.00  0.00    +0.155 HD
ENDROOT
BRANCH   1   8
ATOM      5  C   UNL     1      -3.249  -2.651  -0.857  0.00  0.00    +0.037 A 
ATOM      6  C   UNL     1      -4.316  -2.078  -1.555  0.00  0.00    +0.015 A 
ATOM      7  C   UNL     1      -5.603  -2.500  -1.310  0.00  0.00    +0.024 A 
ATOM      8  C   UNL     1      -5.842  -3.496  -0.367  0.00  0.00    +0.037 A 
ATOM      9  C   UNL     1      -4.782  -4.068   0.329  0.00  0.00    -0.029 A 
ATOM     10  C   UNL     1      -3.492  -3.654   0.084  0.00  0.00    +0.018 A 
ATOM     11  C   UNL     1      -5.046  -5.146   1.349  0.00  0.00    +0.045 C 
BRANCH   5  13
ATOM     12  N   UNL     1      -1.635  -1.233  -2.027  0.00  0.00    -0.312 N 
ATOM     13  C   UNL     1      -1.868  -2.201  -1.119  0.00  0.00    +0.244 C 
ATOM     14  O   UNL     1      -0.940  -2.704  -0.515  0.00  0.00    -0.270 OA
ATOM     15  H   UNL     1      -2.375  -0.832  -2.509  0.00  0.00    +0.149 HD
BRANCH  12  17
ATOM     16  C   UNL     1      -0.278   0.312  -3.352  0.00  0.00    +0.024 C 
ATOM     17  C   UNL     1      -0.264  -0.786  -2.287  0.00  0.00    +0.101 C 
ENDBRANCH  12  17
ENDBRANCH   5  13
ENDBRANCH   1   8
BRANCH   2  18
ATOM     18  C   UNL     1      -9.551  -3.475   0.156  0.00  0.00    +0.299 C 
ATOM     19  O   UNL     1      -9.755  -4.611   0.531  0.00  0.00    -0.265 OA
ATOM     20  N   UNL     1     -10.572  -2.600   0.070  0.00  0.00    -0.309 N 
ATOM     21  H   UNL     1     -10.409  -1.692  -0.230  0.00  0.00    +0.149 HD
BRANCH  20  22
ATOM     22  C   UNL     1     -11.930  -3.021   0.427  0.00  0.00    +0.089 C 
BRANCH  22  23
ATOM     23  C   UNL     1     -12.858  -1.804   0.426  0.00  0.00    -0.054 C 
ATOM     24  C   UNL     1     -14.308  -2.269   0.570  0.00  0.00    -0.012 C 
BRANCH  23  25
ATOM     25  N   UNL     1     -12.512  -0.923   1.549  0.00  0.00    +0.384 N 
ATOM     26  C   UNL     1     -12.522  -1.696   2.797  0.00  0.00    -0.078 C 
ATOM     27  C   UNL     1     -12.242  -0.767   3.979  0.00  0.00    -0.019 C 
ATOM     28  C   UNL     1     -10.870  -0.113   3.794  0.00  0.00    -0.003 C 
ATOM     29  C   UNL     1     -10.846   0.629   2.454  0.00  0.00    -0.016 C 
ATOM     30  C   UNL     1     -11.178  -0.352   1.328  0.00  0.00    -0.071 C 
ATOM     31  C   UNL     1     -11.154   0.384  -0.013  0.00  0.00    -0.013 C 
ATOM     32  H   UNL     1     -13.189  -0.178   1.611  0.00  0.00    -0.081 HD
ENDBRANCH  23  25
ENDBRANCH  22  23
ENDBRANCH  20  22
ENDBRANCH   2  18
TORSDOF 7
