REMARK  Name = ZINC66733409
REMARK  9 active torsions:
REMARK  status: ('A' for Active; 'I' for Inactive)
REMARK    1  A    between atoms: C_1  and  C_2
REMARK    2  A    between atoms: C_4  and  N_9
REMARK    3  A    between atoms: C_6  and  C_8
REMARK    4  A    between atoms: C_13  and  O_16
REMARK    5  A    between atoms: O_16  and  C_17
REMARK    6  A    between atoms: C_17  and  C_19
REMARK    7  A    between atoms: C_19  and  C_21
REMARK    8  A    between atoms: C_19  and  N_22
REMARK    9  A    between atoms: C_23  and  C_25
REMARK                            x       y       z     vdW  Elec       q    Type
REMARK                         _______ _______ _______ _____ _____    ______ ____
ROOT
ATOM      1  N   UNL     1       0.030  -2.832  -2.322  0.00  0.00    -0.312 N 
ATOM      2  C   UNL     1       0.044  -4.300  -2.279  0.00  0.00    +0.107 C 
ATOM      3  C   UNL     1      -1.120  -4.830  -3.122  0.00  0.00    +0.023 C 
ATOM      4  C   UNL     1      -1.033  -4.241  -4.532  0.00  0.00    +0.048 C 
ATOM      5  C   UNL     1      -1.144  -2.716  -4.458  0.00  0.00    +0.194 C 
ATOM      6  C   UNL     1       0.014  -2.163  -3.630  0.00  0.00    +0.151 C 
ENDROOT
BRANCH   1  10
ATOM      7  C   UNL     1       0.416   1.476   0.029  0.00  0.00    +0.063 C 
ATOM      8  C   UNL     1       0.209  -0.017   0.011  0.00  0.00    +0.017 A 
ATOM      9  C   UNL     1       0.222  -0.710  -1.184  0.00  0.00    +0.064 A 
ATOM     10  C   UNL     1       0.026  -2.092  -1.150  0.00  0.00    +0.125 A 
ATOM     11  N   UNL     1      -0.166  -2.686   0.024  0.00  0.00    -0.220 NA
ATOM     12  C   UNL     1      -0.171  -1.986   1.139  0.00  0.00    +0.106 A 
ATOM     13  N   UNL     1       0.016  -0.681   1.142  0.00  0.00    -0.347 N 
ATOM     14  C   UNL     1      -0.392  -2.696   2.450  0.00  0.00    +0.086 C 
ATOM     15  H   UNL     1       0.010  -0.199   1.984  0.00  0.00    +0.167 HD
ENDBRANCH   1  10
BRANCH   5  16
ATOM     16  O   UNL     1      -1.095  -2.169  -5.777  0.00  0.00    -0.458 OA
BRANCH  16  17
ATOM     17  C   UNL     1      -2.264  -2.019  -6.419  0.00  0.00    +0.328 C 
ATOM     18  O   UNL     1      -3.295  -2.341  -5.878  0.00  0.00    -0.249 OA
BRANCH  17  19
ATOM     19  C   UNL     1      -2.290  -1.449  -7.813  0.00  0.00    +0.179 C 
ATOM     20  C   UNL     1      -1.469  -2.342  -8.745  0.00  0.00    +0.040 C 
BRANCH  19  21
ATOM     21  N   UNL     1      -3.674  -1.387  -8.290  0.00  0.00    -0.298 N 
ATOM     22  C   UNL     1      -4.021  -0.495  -9.239  0.00  0.00    +0.251 C 
ATOM     23  O   UNL     1      -3.184   0.259  -9.700  0.00  0.00    -0.270 OA
ATOM     24  H   UNL     1      -4.340  -1.988  -7.923  0.00  0.00    +0.150 HD
BRANCH  22  25
ATOM     25  C   UNL     1      -5.405  -0.434  -9.716  0.00  0.00    +0.074 A 
ATOM     26  C   UNL     1      -5.962   0.395 -10.678  0.00  0.00    +0.021 A 
ATOM     27  C   UNL     1      -7.305   0.218 -10.914  0.00  0.00    +0.008 A 
ATOM     28  C   UNL     1      -7.978  -0.727 -10.213  0.00  0.00    +0.046 A 
ATOM     29  S   UNL     1      -6.810  -1.411  -9.217  0.00  0.00    -0.092 S 
ENDBRANCH  22  25
ENDBRANCH  19  21
ENDBRANCH  17  19
ENDBRANCH  16  17
ENDBRANCH   5  16
TORSDOF 6
