REMARK  Name = ZINC40126966
REMARK  7 active torsions:
REMARK  status: ('A' for Active; 'I' for Inactive)
REMARK    1  A    between atoms: C_5  and  C_7
REMARK    2  A    between atoms: C_7  and  O_8
REMARK    3  A    between atoms: O_8  and  C_9
REMARK    4  A    between atoms: C_12  and  C_15
REMARK    5  A    between atoms: C_15  and  C_17
REMARK    6  A    between atoms: C_22  and  C_24
REMARK    7  A    between atoms: C_27  and  O_30
REMARK                            x       y       z     vdW  Elec       q    Type
REMARK                         _______ _______ _______ _____ _____    ______ ____
ROOT
ATOM      1  C   UNL     1      -0.771  -8.303  -0.011  0.00  0.00    +0.195 C 
ATOM      2  O   UNL     1       0.181  -9.048  -0.145  0.00  0.00    -0.287 OA
ENDROOT
BRANCH   1   3
ATOM      3  C   UNL     1      -2.126  -8.855   0.089  0.00  0.00    +0.076 C 
ATOM      4  C   UNL     1      -2.619  -9.608   1.100  0.00  0.00    +0.249 C 
ATOM      5  C   UNL     1      -4.024  -9.956   0.806  0.00  0.00    +0.285 C 
ATOM      6  O   UNL     1      -4.742 -10.625   1.523  0.00  0.00    -0.267 OA
ATOM      7  N   UNL     1      -4.392  -9.423  -0.374  0.00  0.00    -0.298 N 
ATOM      8  C   UNL     1      -3.243  -8.688  -0.915  0.00  0.00    +0.142 C 
ATOM      9  O   UNL     1      -1.933  -9.982   2.205  0.00  0.00    -0.282 OA
ATOM     10  H   UNL     1      -5.264  -9.507  -0.791  0.00  0.00    +0.150 HD
BRANCH   8  11
ATOM     11  C   UNL     1      -2.837  -9.272  -2.243  0.00  0.00    -0.022 A 
ATOM     12  C   UNL     1      -2.989 -10.627  -2.477  0.00  0.00    +0.009 A 
ATOM     13  C   UNL     1      -2.618 -11.164  -3.694  0.00  0.00    +0.046 A 
ATOM     14  C   UNL     1      -2.092 -10.344  -4.682  0.00  0.00    +0.117 A 
ATOM     15  C   UNL     1      -1.941  -8.986  -4.445  0.00  0.00    +0.046 A 
ATOM     16  C   UNL     1      -2.319  -8.452  -3.228  0.00  0.00    +0.009 A 
BRANCH  14  17
ATOM     17  O   UNL     1      -1.726 -10.871  -5.880  0.00  0.00    -0.507 OA
ATOM     18  H   UNL     1      -2.433 -10.879  -6.540  0.00  0.00    +0.292 HD
ENDBRANCH  14  17
ENDBRANCH   8  11
ENDBRANCH   1   3
BRANCH   1  22
ATOM     19  C   UNL     1      -0.172  -4.102   0.171  0.00  0.00    +0.121 A 
ATOM     20  C   UNL     1       0.923  -4.956   0.099  0.00  0.00    +0.046 A 
ATOM     21  C   UNL     1       0.733  -6.319   0.040  0.00  0.00    +0.015 A 
ATOM     22  C   UNL     1      -0.563  -6.843   0.053  0.00  0.00    +0.022 A 
ATOM     23  C   UNL     1      -1.661  -5.981   0.127  0.00  0.00    +0.015 A 
ATOM     24  C   UNL     1      -1.462  -4.620   0.190  0.00  0.00    +0.046 A 
BRANCH  19  25
ATOM     25  O   UNL     1       0.020  -2.760   0.229  0.00  0.00    -0.487 OA
BRANCH  25  26
ATOM     26  C   UNL     1       1.371  -2.296   0.205  0.00  0.00    +0.266 C 
BRANCH  26  31
ATOM     27  C   UNL     1       0.211   1.291   0.416  0.00  0.00    +0.000 A 
ATOM     28  C   UNL     1       1.415   1.971   0.408  0.00  0.00    +0.001 A 
ATOM     29  C   UNL     1       2.604   1.272   0.335  0.00  0.00    +0.020 A 
ATOM     30  C   UNL     1       2.591  -0.110   0.269  0.00  0.00    +0.047 A 
ATOM     31  C   UNL     1       1.387  -0.791   0.277  0.00  0.00    +0.008 A 
ATOM     32  C   UNL     1       0.197  -0.090   0.350  0.00  0.00    +0.008 A 
ATOM     33 CL   UNL     1       4.085  -0.990   0.176  0.00  0.00    -0.083 Cl
ENDBRANCH  26  31
ENDBRANCH  25  26
ENDBRANCH  19  25
ENDBRANCH   1  22
TORSDOF 7
