REMARK  Name = ZINC04290835
REMARK  5 active torsions:
REMARK  status: ('A' for Active; 'I' for Inactive)
REMARK    1  A    between atoms: C_1  and  C_2
REMARK    2  A    between atoms: C_5  and  N_15
REMARK    3  A    between atoms: C_7  and  C_8
REMARK    4  A    between atoms: C_11  and  C_13
REMARK    5  A    between atoms: C_13  and  O_14
REMARK                            x       y       z     vdW  Elec       q    Type
REMARK                         _______ _______ _______ _____ _____    ______ ____
ROOT
ATOM      1  C   UNL     1      -0.198  -2.145  -1.934  0.00  0.00    +0.044 C 
ATOM      2  C   UNL     1      -1.290  -1.923  -0.920  0.00  0.00    -0.040 A 
ATOM      3  C   UNL     1      -2.399  -2.745  -0.907  0.00  0.00    +0.006 A 
ATOM      4  C   UNL     1      -3.403  -2.543   0.023  0.00  0.00    +0.033 A 
ATOM      5  C   UNL     1      -3.302  -1.518   0.947  0.00  0.00    +0.127 A 
ATOM      6  C   UNL     1      -2.196  -0.693   0.949  0.00  0.00    +0.044 A 
ATOM      7  C   UNL     1      -1.183  -0.887   0.009  0.00  0.00    +0.022 A 
ENDROOT
BRANCH   7   8
ATOM      8  C   UNL     1       0.002  -0.004   0.002  0.00  0.00    +0.136 A 
ATOM      9  C   UNL     1      -0.016   1.355   0.009  0.00  0.00    +0.050 A 
ATOM     10  C   UNL     1       1.327   1.780  -0.001  0.00  0.00    +0.047 A 
ATOM     11  C   UNL     1       2.092   0.670  -0.014  0.00  0.00    +0.131 A 
ATOM     12  O   UNL     1       1.288  -0.406  -0.012  0.00  0.00    -0.457 OA
BRANCH  11  13
ATOM     13  C   UNL     1       3.598   0.641  -0.028  0.00  0.00    +0.230 C 
BRANCH  13  14
ATOM     14  O   UNL     1       4.087   0.624   1.314  0.00  0.00    -0.387 OA
ATOM     15  H   UNL     1       5.051   0.605   1.382  0.00  0.00    +0.210 HD
ENDBRANCH  13  14
ENDBRANCH  11  13
ENDBRANCH   7   8
BRANCH   5  16
ATOM     16  N   UNL     1      -4.381  -1.309   1.939  0.00  0.00    +0.056 N 
ATOM     17  O   UNL     1      -5.355  -2.040   1.942  0.00  0.00    -0.126 OA
ATOM     18  O   UNL     1      -4.294  -0.407   2.753  0.00  0.00    -0.126 OA
ENDBRANCH   5  16
TORSDOF 4
