REMARK  Name = ZINC22607970
REMARK  5 active torsions:
REMARK  status: ('A' for Active; 'I' for Inactive)
REMARK    1  A    between atoms: C_1  and  C_2
REMARK    2  A    between atoms: C_2  and  C_3
REMARK    3  A    between atoms: C_2  and  N_4
REMARK    4  A    between atoms: N_10  and  S_11
REMARK    5  A    between atoms: S_11  and  C_14
REMARK                            x       y       z     vdW  Elec       q    Type
REMARK                         _______ _______ _______ _____ _____    ______ ____
ROOT
ATOM      1  N   UNL     1       4.564  -2.453  -3.928  0.00  0.00    -0.269 NA
ATOM      2  C   UNL     1       3.279  -2.478  -4.651  0.00  0.00    +0.193 C 
ATOM      3  N   UNL     1       2.270  -3.035  -3.736  0.00  0.00    -0.303 N 
ATOM      4  C   UNL     1       2.289  -2.628  -2.420  0.00  0.00    +0.202 C 
ATOM      5  N   UNL     1       3.295  -1.968  -1.938  0.00  0.00    -0.303 N 
ATOM      6  C   UNL     1       4.461  -1.603  -2.736  0.00  0.00    +0.193 C 
ATOM      7  N   UNL     1       1.222  -2.923  -1.605  0.00  0.00    -0.097 NA
ATOM      8  H   UNL     1       1.528  -3.756  -4.109  0.00  0.00    +0.150 HD
ATOM      9  H   UNL     1       3.243  -1.681  -0.877  0.00  0.00    +0.150 HD
ENDROOT
BRANCH   1  11
ATOM     10  C   UNL     1       6.941  -1.867  -3.992  0.00  0.00    +0.024 C 
ATOM     11  C   UNL     1       5.652  -1.999  -4.805  0.00  0.00    +0.053 C 
ATOM     12  C   UNL     1       5.860  -3.017  -5.929  0.00  0.00    +0.024 C 
ENDBRANCH   1  11
BRANCH   7  13
ATOM     13  S   UNL     1       1.230  -2.441  -0.021  0.00  0.00    +0.102 S 
ATOM     14  O   UNL     1       2.486  -2.834   0.516  0.00  0.00    -0.146 OA
ATOM     15  O   UNL     1      -0.004  -2.866   0.539  0.00  0.00    -0.146 OA
BRANCH  13  16
ATOM     16  C   UNL     1       1.208  -0.679  -0.013  0.00  0.00    +0.113 A 
ATOM     17  C   UNL     1       0.002  -0.004   0.002  0.00  0.00    +0.032 A 
ATOM     18  C   UNL     1      -0.017   1.378   0.010  0.00  0.00    +0.040 A 
ATOM     19  C   UNL     1       1.173   2.086   0.002  0.00  0.00    +0.124 A 
ATOM     20  C   UNL     1       2.381   1.408  -0.013  0.00  0.00    +0.040 A 
ATOM     21  C   UNL     1       2.397   0.026  -0.020  0.00  0.00    +0.032 A 
ATOM     22  F   UNL     1       1.156   3.437   0.009  0.00  0.00    -0.205 F 
ENDBRANCH  13  16
ENDBRANCH   7  13
TORSDOF 3
