REMARK  Name = ZINC52094682
REMARK  6 active torsions:
REMARK  status: ('A' for Active; 'I' for Inactive)
REMARK    1  A    between atoms: C_1  and  C_2
REMARK    2  A    between atoms: C_2  and  C_3
REMARK    3  A    between atoms: C_3  and  N_4
REMARK    4  A    between atoms: N_4  and  C_5
REMARK    5  A    between atoms: C_5  and  C_7
REMARK    6  A    between atoms: C_5  and  C_20
REMARK                            x       y       z     vdW  Elec       q    Type
REMARK                         _______ _______ _______ _____ _____    ______ ____
ROOT
ATOM      1  C   UNL     1       1.732  -3.963   2.357  0.00  0.00    -0.045 A 
ATOM      2  C   UNL     1       0.951  -4.737   1.521  0.00  0.00    +0.031 A 
ATOM      3  C   UNL     1       1.096  -6.116   1.520  0.00  0.00    +0.067 A 
ATOM      4  C   UNL     1       2.032  -6.717   2.365  0.00  0.00    +0.068 A 
ATOM      5  C   UNL     1       2.812  -5.933   3.200  0.00  0.00    +0.043 A 
ATOM      6  C   UNL     1       2.664  -4.559   3.190  0.00  0.00    +0.022 A 
ATOM      7 BR   UNL     1       3.734  -3.488   4.324  0.00  0.00    -0.050 Br
ATOM      8  N   UNL     1       1.950  -8.090   2.144  0.00  0.00    -0.306 N 
ATOM      9  H   UNL     1       2.481  -8.769   2.589  0.00  0.00    +0.170 HD
ATOM     10  C   UNL     1       1.008  -8.313   1.209  0.00  0.00    +0.325 A 
ATOM     11  O   UNL     1       0.686  -9.408   0.786  0.00  0.00    -0.247 OA
ATOM     12  N   UNL     1       0.474  -7.142   0.813  0.00  0.00    -0.306 N 
ATOM     13  H   UNL     1      -0.224  -7.032   0.149  0.00  0.00    +0.170 HD
ENDROOT
BRANCH   1  14
ATOM     14  C   UNL     1       1.574  -2.465   2.358  0.00  0.00    -0.034 C 
BRANCH  14  15
ATOM     15  C   UNL     1       0.458  -2.070   3.327  0.00  0.00    +0.007 C 
ATOM     16  C   UNL     1       0.779  -2.554   4.767  0.00  0.00    +0.032 C 
ATOM     17  C   UNL     1       0.012  -1.504   5.609  0.00  0.00    +0.160 C 
ATOM     18  O   UNL     1       0.154  -0.269   4.888  0.00  0.00    -0.380 OA
ATOM     19  C   UNL     1       0.395  -0.537   3.498  0.00  0.00    +0.162 C 
ENDBRANCH  14  15
BRANCH  14  20
ATOM     20  N   UNL     1       1.231  -2.008   1.004  0.00  0.00    +0.384 N 
ATOM     21  H   UNL     1       0.300  -2.319   0.770  0.00  0.00    -0.085 HD
ATOM     22  H   UNL     1       1.890  -2.391   0.343  0.00  0.00    -0.085 HD
BRANCH  20  23
ATOM     23  C   UNL     1       1.284  -0.541   0.955  0.00  0.00    -0.082 C 
BRANCH  23  25
ATOM     24  C   UNL     1       1.134   1.457  -0.539  0.00  0.00    +0.002 C 
ATOM     25  C   UNL     1       1.079  -0.071  -0.487  0.00  0.00    -0.022 C 
ENDBRANCH  23  25
ENDBRANCH  20  23
ENDBRANCH  14  20
ENDBRANCH   1  14
TORSDOF 5
