REMARK  Name = ZINC06263063
REMARK  9 active torsions:
REMARK  status: ('A' for Active; 'I' for Inactive)
REMARK    1  A    between atoms: C_1  and  C_2
REMARK    2  A    between atoms: C_2  and  C_3
REMARK    3  A    between atoms: C_2  and  O_4
REMARK    4  A    between atoms: O_4  and  C_5
REMARK    5  A    between atoms: C_8  and  C_11
REMARK    6  A    between atoms: N_13  and  C_14
REMARK    7  A    between atoms: C_14  and  N_16
REMARK    8  A    between atoms: N_16  and  C_17
REMARK    9  A    between atoms: C_18  and  C_25
REMARK                            x       y       z     vdW  Elec       q    Type
REMARK                         _______ _______ _______ _____ _____    ______ ____
ROOT
ATOM      1  C   UNL     1       2.430  -4.162   0.183  0.00  0.00    +0.141 C 
ATOM      2  S   UNL     1       0.984  -5.042  -0.076  0.00  0.00    -0.018 S 
ENDROOT
BRANCH   1   5
ATOM      3  C   UNL     1       1.247  -2.159  -0.012  0.00  0.00    +0.250 C 
ATOM      4  O   UNL     1       0.221  -2.784  -0.196  0.00  0.00    -0.270 OA
ATOM      5  N   UNL     1       2.408  -2.815   0.188  0.00  0.00    -0.264 N 
ATOM      6  H   UNL     1       3.227  -2.317   0.334  0.00  0.00    +0.157 HD
BRANCH   3  10
ATOM      7  C   UNL     1       1.176   2.086   0.004  0.00  0.00    +0.121 A 
ATOM      8  C   UNL     1       0.001   1.374  -0.207  0.00  0.00    +0.046 A 
ATOM      9  C   UNL     1       0.020  -0.003  -0.213  0.00  0.00    +0.016 A 
ATOM     10  C   UNL     1       1.223  -0.684  -0.006  0.00  0.00    +0.037 A 
ATOM     11  C   UNL     1       2.402   0.035   0.205  0.00  0.00    +0.016 A 
ATOM     12  C   UNL     1       2.375   1.412   0.210  0.00  0.00    +0.046 A 
BRANCH   7  13
ATOM     13  O   UNL     1       1.154   3.443   0.009  0.00  0.00    -0.489 OA
BRANCH  13  15
ATOM     14  C   UNL     1       2.297   5.510  -0.500  0.00  0.00    +0.051 C 
ATOM     15  C   UNL     1       2.412   4.112   0.112  0.00  0.00    +0.167 C 
ATOM     16  C   UNL     1       2.808   4.231   1.585  0.00  0.00    +0.051 C 
ENDBRANCH  13  15
ENDBRANCH   7  13
ENDBRANCH   3  10
ENDBRANCH   1   5
BRANCH   1  17
ATOM     17  N   UNL     1       3.591  -4.818   0.382  0.00  0.00    -0.291 N 
ATOM     18  H   UNL     1       4.410  -4.320   0.529  0.00  0.00    +0.154 HD
BRANCH  17  19
ATOM     19  C   UNL     1       3.614  -6.203   0.377  0.00  0.00    +0.084 A 
ATOM     20  C   UNL     1       4.698  -7.046   0.556  0.00  0.00    +0.068 A 
ATOM     21  C   UNL     1       4.449  -8.487   0.508  0.00  0.00    -0.023 A 
ATOM     22  C   UNL     1       3.171  -8.839   0.282  0.00  0.00    -0.004 A 
ATOM     23  S   UNL     1       2.297  -7.300   0.139  0.00  0.00    -0.077 S 
ATOM     24  C   UNL     1       2.996 -10.333   0.244  0.00  0.00    +0.043 C 
ATOM     25  C   UNL     1       4.273 -10.892   0.909  0.00  0.00    +0.010 C 
ATOM     26  C   UNL     1       5.286  -9.760   0.644  0.00  0.00    +0.037 C 
BRANCH  20  27
ATOM     27  C   UNL     1       6.044  -6.515   0.789  0.00  0.00    +0.244 C 
ATOM     28  O   UNL     1       6.426  -6.302   1.925  0.00  0.00    -0.270 OA
ATOM     29  N   UNL     1       6.858  -6.262  -0.254  0.00  0.00    -0.325 N 
ATOM     30  H   UNL     1       6.554  -6.432  -1.160  0.00  0.00    +0.145 HD
ATOM     31  H   UNL     1       7.749  -5.910  -0.100  0.00  0.00    +0.145 HD
ENDBRANCH  20  27
ENDBRANCH  17  19
ENDBRANCH   1  17
TORSDOF 7
