REMARK  Name = ZINC62203219
REMARK  3 active torsions:
REMARK  status: ('A' for Active; 'I' for Inactive)
REMARK    1  A    between atoms: C_1  and  N_2
REMARK    2  A    between atoms: C_7  and  C_13
REMARK    3  A    between atoms: N_11  and  N_12
REMARK                            x       y       z     vdW  Elec       q    Type
REMARK                         _______ _______ _______ _____ _____    ______ ____
ROOT
ATOM      1  C   UNL     1      -0.034   1.467   0.027  0.00  0.00    +0.105 C 
ATOM      2  N   UNL     1      -0.010  -0.002   0.015  0.00  0.00    -0.301 NA
ATOM      3  C   UNL     1      -1.373  -0.550  -0.049  0.00  0.00    +0.090 C 
ATOM      4  C   UNL     1      -1.288  -2.030  -0.427  0.00  0.00    +0.071 C 
ATOM      5  C   UNL     1      -0.301  -2.730   0.469  0.00  0.00    +0.053 A 
ATOM      6  C   UNL     1       0.625  -2.028   1.215  0.00  0.00    +0.018 A 
ATOM      7  C   UNL     1       1.509  -2.737   2.017  0.00  0.00    +0.153 A 
ATOM      8  N   UNL     1       1.438  -4.057   2.045  0.00  0.00    -0.209 NA
ATOM      9  C   UNL     1       0.536  -4.701   1.319  0.00  0.00    +0.230 A 
ATOM     10  N   UNL     1      -0.320  -4.053   0.543  0.00  0.00    -0.218 NA
ATOM     11  N   UNL     1       0.487  -6.083   1.373  0.00  0.00    -0.252 N 
ATOM     12  C   UNL     1       0.698  -0.526   1.188  0.00  0.00    +0.123 C 
ATOM     13  H   UNL     1      -0.169  -6.566   0.846  0.00  0.00    +0.169 HD
ENDROOT
BRANCH   7  14
ATOM     14  C   UNL     1       2.538  -2.011   2.844  0.00  0.00    +0.435 C 
ATOM     15  F   UNL     1       1.901  -1.065   3.654  0.00  0.00    -0.164 F 
ATOM     16  F   UNL     1       3.221  -2.929   3.649  0.00  0.00    -0.164 F 
ATOM     17  F   UNL     1       3.446  -1.365   1.998  0.00  0.00    -0.164 F 
ENDBRANCH   7  14
BRANCH  11  18
ATOM     18  N   UNL     1       1.362  -6.768   2.168  0.00  0.00    -0.254 NA
ATOM     19  H   UNL     1       1.303  -6.453   3.124  0.00  0.00    +0.140 HD
ATOM     20  H   UNL     1       1.207  -7.763   2.104  0.00  0.00    +0.140 HD
ENDBRANCH  11  18
TORSDOF 2
