REMARK  Name = ZINC63160915
REMARK  6 active torsions:
REMARK  status: ('A' for Active; 'I' for Inactive)
REMARK    1  A    between atoms: C_3  and  C_24
REMARK    2  A    between atoms: C_6  and  C_7
REMARK    3  A    between atoms: C_7  and  N_8
REMARK    4  A    between atoms: N_11  and  C_12
REMARK    5  A    between atoms: C_14  and  C_20
REMARK    6  A    between atoms: N_26  and  C_27
REMARK                            x       y       z     vdW  Elec       q    Type
REMARK                         _______ _______ _______ _____ _____    ______ ____
ROOT
ATOM      1  N   UNL     1      -1.827  -0.875  -1.359  0.00  0.00    -0.295 N 
ATOM      2  C   UNL     1      -2.967  -1.547  -1.613  0.00  0.00    +0.304 C 
ATOM      3  O   UNL     1      -3.724  -1.825  -0.703  0.00  0.00    -0.252 OA
ATOM      4  N   UNL     1      -3.269  -1.909  -2.875  0.00  0.00    -0.265 N 
ATOM      5  H   UNL     1      -1.223  -0.653  -2.085  0.00  0.00    +0.151 HD
ATOM      6  H   UNL     1      -2.704  -1.624  -3.610  0.00  0.00    +0.157 HD
ENDROOT
BRANCH   4   7
ATOM      7  C   UNL     1      -4.400  -2.699  -3.127  0.00  0.00    +0.100 A 
ATOM      8  C   UNL     1      -5.387  -2.250  -3.961  0.00  0.00    +0.042 A 
ATOM      9  C   UNL     1      -6.507  -3.060  -4.195  0.00  0.00    +0.073 A 
ATOM     10  C   UNL     1      -6.604  -4.271  -3.599  0.00  0.00    +0.098 A 
ATOM     11  N   UNL     1      -5.624  -4.719  -2.770  0.00  0.00    -0.327 N 
ATOM     12  H   UNL     1      -5.712  -5.590  -2.352  0.00  0.00    +0.168 HD
ATOM     13  C   UNL     1      -4.532  -3.970  -2.526  0.00  0.00    +0.270 A 
ATOM     14  O   UNL     1      -3.658  -4.388  -1.783  0.00  0.00    -0.266 OA
BRANCH   9  15
ATOM     15  C   UNL     1      -7.604  -2.582  -5.111  0.00  0.00    +0.419 C 
ATOM     16  F   UNL     1      -8.606  -3.555  -5.186  0.00  0.00    -0.166 F 
ATOM     17  F   UNL     1      -8.145  -1.393  -4.609  0.00  0.00    -0.166 F 
ATOM     18  F   UNL     1      -7.079  -2.353  -6.387  0.00  0.00    -0.166 F 
ENDBRANCH   9  15
ENDBRANCH   4   7
BRANCH   1  19
ATOM     19  C   UNL     1      -1.499  -0.481   0.013  0.00  0.00    +0.141 C 
BRANCH  19  25
ATOM     20  C   UNL     1      -0.156   1.625  -0.131  0.00  0.00    +0.006 A 
ATOM     21  C   UNL     1       1.047   2.301  -0.122  0.00  0.00    +0.013 A 
ATOM     22  C   UNL     1       2.240   1.595   0.045  0.00  0.00    +0.037 A 
ATOM     23  C   UNL     1       2.207   0.209   0.202  0.00  0.00    +0.013 A 
ATOM     24  C   UNL     1       0.997  -0.455   0.191  0.00  0.00    +0.006 A 
ATOM     25  C   UNL     1      -0.181   0.251   0.025  0.00  0.00    -0.030 A 
BRANCH  22  26
ATOM     26  C   UNL     1       3.532   2.313   0.056  0.00  0.00    +0.244 C 
ATOM     27  O   UNL     1       3.558   3.521  -0.082  0.00  0.00    -0.270 OA
ATOM     28  N   UNL     1       4.682   1.629   0.217  0.00  0.00    -0.308 N 
ATOM     29  H   UNL     1       4.661   0.665   0.327  0.00  0.00    +0.149 HD
BRANCH  28  30
ATOM     30  C   UNL     1       5.962   2.340   0.228  0.00  0.00    +0.073 C 
ATOM     31  C   UNL     1       7.119   1.725  -0.563  0.00  0.00    +0.024 C 
ATOM     32  C   UNL     1       7.130   1.682   0.966  0.00  0.00    +0.024 C 
ENDBRANCH  28  30
ENDBRANCH  22  26
ENDBRANCH  19  25
ENDBRANCH   1  19
TORSDOF 6
