REMARK  Name = ZINC40731999
REMARK  3 active torsions:
REMARK  status: ('A' for Active; 'I' for Inactive)
REMARK    1  A    between atoms: C_1  and  C_2
REMARK    2  A    between atoms: C_10  and  N_25
REMARK    3  A    between atoms: C_11  and  N_15
REMARK                            x       y       z     vdW  Elec       q    Type
REMARK                         _______ _______ _______ _____ _____    ______ ____
ROOT
ATOM      1  C   UNL     1       2.599  -0.232  -0.202  0.00  0.00    +0.028 C 
ATOM      2  C   UNL     1       1.280  -0.976   0.015  0.00  0.00    +0.072 C 
ATOM      3  C   UNL     1       0.296  -0.614  -1.101  0.00  0.00    +0.022 C 
ATOM      4  C   UNL     1      -1.063  -1.250  -0.803  0.00  0.00    +0.003 C 
ATOM      5  C   UNL     1      -1.608  -0.701   0.517  0.00  0.00    +0.019 C 
ATOM      6  C   UNL     1      -0.645  -1.065   1.652  0.00  0.00    +0.107 C 
ATOM      7  N   UNL     1       0.700  -0.584   1.307  0.00  0.00    -0.311 N 
ATOM      8  C   UNL     1       1.409   0.229   2.183  0.00  0.00    +0.147 A 
ATOM      9  C   UNL     1       2.209  -0.332   3.181  0.00  0.00    +0.106 A 
ATOM     10  C   UNL     1       2.900   0.530   4.034  0.00  0.00    +0.148 A 
ATOM     11  N   UNL     1       2.770   1.845   3.866  0.00  0.00    -0.219 NA
ATOM     12  C   UNL     1       2.004   2.333   2.912  0.00  0.00    +0.225 A 
ATOM     13  N   UNL     1       1.340   1.554   2.082  0.00  0.00    -0.219 NA
ENDROOT
BRANCH  10  14
ATOM     14  N   UNL     1       3.709   0.025   5.044  0.00  0.00    -0.309 N 
ATOM     15  C   UNL     1       5.116  -0.329   4.792  0.00  0.00    +0.111 C 
ATOM     16  C   UNL     1       5.992   0.598   5.634  0.00  0.00    +0.054 C 
ATOM     17  C   UNL     1       5.489   0.669   7.052  0.00  0.00    -0.041 A 
ATOM     18  C   UNL     1       6.377   1.102   8.030  0.00  0.00    +0.004 A 
ATOM     19  C   UNL     1       5.978   1.199   9.346  0.00  0.00    +0.000 A 
ATOM     20  C   UNL     1       4.683   0.865   9.699  0.00  0.00    +0.000 A 
ATOM     21  C   UNL     1       3.801   0.432   8.731  0.00  0.00    +0.005 A 
ATOM     22  C   UNL     1       4.203   0.328   7.406  0.00  0.00    -0.027 A 
ATOM     23  C   UNL     1       3.198  -0.172   6.405  0.00  0.00    +0.142 C 
ENDBRANCH  10  14
BRANCH   9  24
ATOM     24  N   UNL     1       2.316  -1.725   3.322  0.00  0.00    -0.353 N 
ATOM     25  H   UNL     1       1.894  -2.312   2.675  0.00  0.00    +0.143 HD
ATOM     26  H   UNL     1       2.811  -2.100   4.066  0.00  0.00    +0.143 HD
ENDBRANCH   9  24
TORSDOF 2
