REMARK  Name = ZINC40349996
REMARK  8 active torsions:
REMARK  status: ('A' for Active; 'I' for Inactive)
REMARK    1  A    between atoms: C_1  and  C_2
REMARK    2  A    between atoms: C_6  and  C_9
REMARK    3  A    between atoms: C_7  and  O_8
REMARK    4  A    between atoms: N_11  and  C_12
REMARK    5  A    between atoms: C_12  and  C_13
REMARK    6  A    between atoms: C_12  and  C_14
REMARK    7  A    between atoms: C_12  and  C_15
REMARK    8  A    between atoms: C_15  and  N_17
REMARK                            x       y       z     vdW  Elec       q    Type
REMARK                         _______ _______ _______ _____ _____    ______ ____
ROOT
ATOM      1  C   UNL     1       0.054  -2.859   2.453  0.00  0.00    +0.248 C 
ATOM      2  O   UNL     1       0.051  -2.265   3.514  0.00  0.00    -0.270 OA
ATOM      3  N   UNL     1       0.072  -4.207   2.435  0.00  0.00    -0.301 N 
ATOM      4  H   UNL     1       0.075  -4.680   1.589  0.00  0.00    +0.150 HD
ENDROOT
BRANCH   1  10
ATOM      5  C   UNL     1      -0.018   1.503   0.010  0.00  0.00    +0.047 C 
ATOM      6  C   UNL     1       0.002  -0.004   0.002  0.00  0.00    -0.008 A 
ATOM      7  C   UNL     1       0.006  -0.687  -1.198  0.00  0.00    +0.007 A 
ATOM      8  C   UNL     1       0.025  -2.072  -1.216  0.00  0.00    +0.001 A 
ATOM      9  C   UNL     1       0.041  -2.783  -0.035  0.00  0.00    +0.017 A 
ATOM     10  C   UNL     1       0.037  -2.104   1.185  0.00  0.00    +0.078 A 
ATOM     11  C   UNL     1       0.023  -0.703   1.200  0.00  0.00    +0.132 A 
BRANCH  11  12
ATOM     12  O   UNL     1       0.025  -0.033   2.379  0.00  0.00    -0.506 OA
ATOM     13  H   UNL     1      -0.858   0.149   2.729  0.00  0.00    +0.292 HD
ENDBRANCH  11  12
ENDBRANCH   1  10
BRANCH   3  14
ATOM     14  C   UNL     1       0.089  -4.956   3.694  0.00  0.00    +0.074 C 
ATOM     15  C   UNL     1       1.337  -4.579   4.495  0.00  0.00    +0.038 C 
ATOM     16  C   UNL     1      -1.161  -4.614   4.507  0.00  0.00    +0.038 C 
BRANCH  14  17
ATOM     17  C   UNL     1       0.108  -6.434   3.399  0.00  0.00    +0.069 C 
ATOM     18  S   UNL     1       0.108  -6.946   1.885  0.00  0.00    -0.038 S 
BRANCH  17  19
ATOM     19  N   UNL     1       0.126  -7.323   4.412  0.00  0.00    -0.354 N 
ATOM     20  H   UNL     1       0.126  -7.012   5.330  0.00  0.00    +0.143 HD
ATOM     21  H   UNL     1       0.138  -8.274   4.222  0.00  0.00    +0.143 HD
ENDBRANCH  17  19
ENDBRANCH  14  17
ENDBRANCH   3  14
TORSDOF 5
