REMARK  Name = ZINC40051280
REMARK  7 active torsions:
REMARK  status: ('A' for Active; 'I' for Inactive)
REMARK    1  A    between atoms: C_4  and  C_7
REMARK    2  A    between atoms: C_7  and  C_9
REMARK    3  A    between atoms: C_7  and  N_24
REMARK    4  A    between atoms: N_11  and  N_12
REMARK    5  A    between atoms: C_13  and  C_15
REMARK    6  A    between atoms: C_19  and  N_21
REMARK    7  A    between atoms: C_25  and  C_27
REMARK                            x       y       z     vdW  Elec       q    Type
REMARK                         _______ _______ _______ _____ _____    ______ ____
ROOT
ATOM      1  C   UNL     1       4.044  -1.175   1.356  0.00  0.00    +0.254 C 
ATOM      2  O   UNL     1       4.184  -2.358   1.581  0.00  0.00    -0.272 OA
ATOM      3  N   UNL     1       4.186  -0.278   2.352  0.00  0.00    -0.232 N 
ATOM      4  H   UNL     1       4.074   0.669   2.172  0.00  0.00    +0.173 HD
ENDROOT
BRANCH   3   5
ATOM      5  N   UNL     1       4.495  -0.712   3.647  0.00  0.00    -0.230 N 
ATOM      6  C   UNL     1       4.637   0.185   4.643  0.00  0.00    +0.260 C 
ATOM      7  O   UNL     1       4.496   1.371   4.417  0.00  0.00    -0.269 OA
ATOM      8  H   UNL     1       4.607  -1.659   3.828  0.00  0.00    +0.173 HD
BRANCH   6   9
ATOM      9  C   UNL     1       4.963  -0.274   6.010  0.00  0.00    +0.040 A 
ATOM     10  C   UNL     1       5.130  -1.635   6.272  0.00  0.00    +0.013 A 
ATOM     11  C   UNL     1       5.435  -2.056   7.549  0.00  0.00    +0.003 A 
ATOM     12  C   UNL     1       5.575  -1.133   8.571  0.00  0.00    +0.033 A 
ATOM     13  C   UNL     1       5.410   0.217   8.318  0.00  0.00    +0.127 A 
ATOM     14  C   UNL     1       5.111   0.652   7.044  0.00  0.00    +0.045 A 
BRANCH  13  15
ATOM     15  N   UNL     1       5.561   1.198   9.417  0.00  0.00    +0.056 N 
ATOM     16  O   UNL     1       5.828   0.818  10.533  0.00  0.00    -0.126 OA
ATOM     17  O   UNL     1       5.418   2.378   9.198  0.00  0.00    -0.126 OA
ENDBRANCH  13  15
ENDBRANCH   6   9
ENDBRANCH   3   5
BRANCH   1  18
ATOM     18  C   UNL     1       3.711  -0.707  -0.038  0.00  0.00    +0.191 C 
BRANCH  18  22
ATOM     19  C   UNL     1      -0.017   1.378   0.010  0.00  0.00    +0.000 A 
ATOM     20  C   UNL     1       1.171   2.086   0.002  0.00  0.00    +0.000 A 
ATOM     21  C   UNL     1       2.377   1.411  -0.013  0.00  0.00    +0.006 A 
ATOM     22  C   UNL     1       2.396   0.029  -0.020  0.00  0.00    -0.018 A 
ATOM     23  C   UNL     1       1.208  -0.679  -0.012  0.00  0.00    +0.006 A 
ATOM     24  C   UNL     1       0.002  -0.004   0.002  0.00  0.00    +0.000 A 
ENDBRANCH  18  22
BRANCH  18  25
ATOM     25  N   UNL     1       3.611  -1.865  -0.930  0.00  0.00    -0.296 N 
ATOM     26  C   UNL     1       3.825  -1.716  -2.253  0.00  0.00    +0.252 C 
ATOM     27  O   UNL     1       4.100  -0.620  -2.705  0.00  0.00    -0.270 OA
ATOM     28  H   UNL     1       3.392  -2.738  -0.569  0.00  0.00    +0.150 HD
BRANCH  26  29
ATOM     29  C   UNL     1       3.725  -2.874  -3.146  0.00  0.00    +0.074 A 
ATOM     30  C   UNL     1       3.910  -2.937  -4.519  0.00  0.00    +0.021 A 
ATOM     31  C   UNL     1       3.747  -4.178  -5.086  0.00  0.00    +0.008 A 
ATOM     32  C   UNL     1       3.425  -5.229  -4.292  0.00  0.00    +0.046 A 
ATOM     33  S   UNL     1       3.342  -4.569  -2.749  0.00  0.00    -0.092 S 
ENDBRANCH  26  29
ENDBRANCH  18  25
ENDBRANCH   1  18
TORSDOF 7
