REMARK  Name = ZINC06240022
REMARK  5 active torsions:
REMARK  status: ('A' for Active; 'I' for Inactive)
REMARK    1  A    between atoms: C_5  and  O_21
REMARK    2  A    between atoms: C_6  and  C_7
REMARK    3  A    between atoms: N_8  and  N_9
REMARK    4  A    between atoms: C_14  and  C_17
REMARK    5  A    between atoms: C_17  and  C_18
REMARK                            x       y       z     vdW  Elec       q    Type
REMARK                         _______ _______ _______ _____ _____    ______ ____
ROOT
ATOM      1  C   UNL     1      -1.259  -0.761   0.010  0.00  0.00    +0.146 C 
ATOM      2  N   UNL     1      -1.237  -2.066   0.003  0.00  0.00    -0.155 NA
ENDROOT
BRANCH   1   8
ATOM      3  C   UNL     1      -0.017   1.394   0.010  0.00  0.00    +0.033 A 
ATOM      4  C   UNL     1       1.170   2.098   0.002  0.00  0.00    +0.043 A 
ATOM      5  C   UNL     1       2.381   1.425  -0.013  0.00  0.00    +0.043 A 
ATOM      6  C   UNL     1       2.413   0.042  -0.021  0.00  0.00    +0.084 A 
ATOM      7  C   UNL     1       1.231  -0.681  -0.014  0.00  0.00    +0.144 A 
ATOM      8  C   UNL     1       0.002  -0.004   0.002  0.00  0.00    +0.039 A 
ATOM      9 CL   UNL     1       3.937  -0.790  -0.041  0.00  0.00    -0.080 Cl
ATOM     10 CL   UNL     1       1.146   3.833   0.011  0.00  0.00    -0.083 Cl
BRANCH   7  11
ATOM     11  O   UNL     1       1.261  -2.039  -0.022  0.00  0.00    -0.505 OA
ATOM     12  H   UNL     1       1.279  -2.438   0.859  0.00  0.00    +0.292 HD
ENDBRANCH   7  11
ENDBRANCH   1   8
BRANCH   2  13
ATOM     13  N   UNL     1      -2.343  -2.730   0.010  0.00  0.00    -0.127 NA
ATOM     14  C   UNL     1      -2.321  -4.046   0.003  0.00  0.00    +0.183 C 
ATOM     15  N   UNL     1      -1.222  -4.879  -0.007  0.00  0.00    -0.263 N 
ATOM     16  C   UNL     1      -1.331  -6.197  -0.013  0.00  0.00    +0.233 C 
ATOM     17  O   UNL     1      -0.360  -6.923  -0.021  0.00  0.00    -0.274 OA
ATOM     18  C   UNL     1      -2.749  -6.744  -0.009  0.00  0.00    +0.151 C 
ATOM     19  S   UNL     1      -3.707  -5.173   0.010  0.00  0.00    -0.075 S 
ATOM     20  H   UNL     1      -0.337  -4.484  -0.009  0.00  0.00    +0.157 HD
BRANCH  18  21
ATOM     21  C   UNL     1      -3.021  -7.571   1.249  0.00  0.00    +0.149 C 
BRANCH  21  22
ATOM     22  C   UNL     1      -4.390  -8.194   1.155  0.00  0.00    +0.358 C 
ATOM     23  O   UNL     1      -5.084  -7.995   0.172  0.00  0.00    -0.246 OA
ATOM     24  O   UNL     1      -4.804  -8.896   2.061  0.00  0.00    -0.246 OA
ENDBRANCH  21  22
ENDBRANCH  18  21
ENDBRANCH   2  13
TORSDOF 5
