REMARK  Name = ZINC12554788
REMARK  5 active torsions:
REMARK  status: ('A' for Active; 'I' for Inactive)
REMARK    1  A    between atoms: C_1  and  N_2
REMARK    2  A    between atoms: C_15  and  S_16
REMARK    3  A    between atoms: S_16  and  C_17
REMARK    4  A    between atoms: C_17  and  C_18
REMARK    5  A    between atoms: C_21  and  C_24
REMARK                            x       y       z     vdW  Elec       q    Type
REMARK                         _______ _______ _______ _____ _____    ______ ____
ROOT
ATOM      1  C   UNL     1      -1.024  -4.555  -0.011  0.00  0.00    +0.155 C 
ATOM      2  N   UNL     1      -1.542  -3.185   0.001  0.00  0.00    -0.280 N 
ATOM      3  C   UNL     1      -2.875  -2.980   0.015  0.00  0.00    +0.263 A 
ATOM      4  O   UNL     1      -3.646  -3.920   0.018  0.00  0.00    -0.267 OA
ATOM      5  C   UNL     1      -3.381  -1.595   0.026  0.00  0.00    +0.064 A 
ATOM      6  C   UNL     1      -4.749  -1.324   0.042  0.00  0.00    +0.015 A 
ATOM      7  C   UNL     1      -5.184  -0.016   0.053  0.00  0.00    +0.001 A 
ATOM      8  C   UNL     1      -4.270   1.026   0.049  0.00  0.00    +0.002 A 
ATOM      9  C   UNL     1      -2.913   0.771   0.034  0.00  0.00    +0.027 A 
ATOM     10  C   UNL     1      -2.458  -0.538   0.023  0.00  0.00    +0.064 A 
ATOM     11  N   UNL     1      -1.094  -0.824   0.014  0.00  0.00    -0.256 N 
ATOM     12  C   UNL     1      -0.655  -2.119  -0.003  0.00  0.00    +0.240 A 
ATOM     13  N   UNL     1       0.659  -2.098  -0.015  0.00  0.00    -0.109 NA
ATOM     14  N   UNL     1       1.073  -0.760  -0.012  0.00  0.00    -0.120 NA
ATOM     15  C   UNL     1       0.002  -0.004   0.002  0.00  0.00    +0.198 A 
ENDROOT
BRANCH  15  16
ATOM     16  S   UNL     1      -0.022   1.758   0.012  0.00  0.00    -0.081 S 
BRANCH  16  17
ATOM     17  C   UNL     1       1.732   2.220  -0.003  0.00  0.00    +0.112 C 
BRANCH  17  18
ATOM     18  C   UNL     1       1.855   3.722   0.004  0.00  0.00    -0.037 A 
ATOM     19  C   UNL     1       1.906   4.415  -1.192  0.00  0.00    +0.005 A 
ATOM     20  C   UNL     1       2.014   5.790  -1.193  0.00  0.00    +0.013 A 
ATOM     21  C   UNL     1       2.083   6.482   0.017  0.00  0.00    +0.037 A 
ATOM     22  C   UNL     1       2.037   5.777   1.221  0.00  0.00    +0.013 A 
ATOM     23  C   UNL     1       1.923   4.402   1.207  0.00  0.00    +0.005 A 
BRANCH  21  24
ATOM     24  C   UNL     1       2.204   7.956   0.024  0.00  0.00    +0.242 C 
ATOM     25  O   UNL     1       2.263   8.556   1.079  0.00  0.00    -0.270 OA
ATOM     26  N   UNL     1       2.248   8.634  -1.140  0.00  0.00    -0.325 N 
ATOM     27  H   UNL     1       2.201   8.155  -1.982  0.00  0.00    +0.145 HD
ATOM     28  H   UNL     1       2.328   9.600  -1.136  0.00  0.00    +0.145 HD
ENDBRANCH  21  24
ENDBRANCH  17  18
ENDBRANCH  16  17
ENDBRANCH  15  16
TORSDOF 4
