REMARK  Name = ZINC36612890
REMARK  8 active torsions:
REMARK  status: ('A' for Active; 'I' for Inactive)
REMARK    1  A    between atoms: C_1  and  O_2
REMARK    2  A    between atoms: O_2  and  C_3
REMARK    3  A    between atoms: C_5  and  C_15
REMARK    4  A    between atoms: C_8  and  O_9
REMARK    5  A    between atoms: O_9  and  C_10
REMARK    6  A    between atoms: C_10  and  C_11
REMARK    7  A    between atoms: C_15  and  N_16
REMARK    8  A    between atoms: N_16  and  C_17
REMARK                            x       y       z     vdW  Elec       q    Type
REMARK                         _______ _______ _______ _____ _____    ______ ____
ROOT
ATOM      1  C   UNL     1       0.606  -0.608  -1.056  0.00  0.00    +0.163 A 
ATOM      2  C   UNL     1       1.173   0.159  -2.062  0.00  0.00    +0.051 A 
ATOM      3  C   UNL     1       1.787  -0.456  -3.138  0.00  0.00    -0.060 A 
ATOM      4  C   UNL     1       1.837  -1.835  -3.213  0.00  0.00    +0.020 A 
ATOM      5  C   UNL     1       1.273  -2.606  -2.213  0.00  0.00    +0.059 A 
ATOM      6  C   UNL     1       0.662  -1.996  -1.129  0.00  0.00    +0.176 A 
ATOM      7  I   UNL     1       1.350  -4.696  -2.332  0.00  0.00    -0.040 I 
ENDROOT
BRANCH   1   9
ATOM      8  C   UNL     1      -0.017   1.425   0.010  0.00  0.00    +0.277 C 
ATOM      9  O   UNL     1       0.002  -0.004   0.002  0.00  0.00    -0.491 OA
ENDBRANCH   1   9
BRANCH   6  10
ATOM     10  O   UNL     1       0.112  -2.752  -0.141  0.00  0.00    -0.478 OA
BRANCH  10  11
ATOM     11  C   UNL     1      -1.259  -3.125  -0.296  0.00  0.00    +0.324 C 
BRANCH  11  12
ATOM     12  C   UNL     1      -1.691  -3.954   0.885  0.00  0.00    +0.248 C 
ATOM     13  O   UNL     1      -0.902  -4.202   1.773  0.00  0.00    -0.272 OA
ATOM     14  N   UNL     1      -2.953  -4.421   0.956  0.00  0.00    -0.327 N 
ATOM     15  H   UNL     1      -3.584  -4.223   0.246  0.00  0.00    +0.145 HD
ATOM     16  H   UNL     1      -3.231  -4.955   1.717  0.00  0.00    +0.145 HD
ENDBRANCH  11  12
ENDBRANCH  10  11
ENDBRANCH   6  10
BRANCH   3  17
ATOM     17  C   UNL     1       2.402   0.380  -4.230  0.00  0.00    -0.046 C 
BRANCH  17  18
ATOM     18  N   UNL     1       3.807   0.658  -3.902  0.00  0.00    +0.385 N 
ATOM     19  H   UNL     1       3.855   1.159  -3.027  0.00  0.00    -0.085 HD
ATOM     20  H   UNL     1       4.311  -0.212  -3.819  0.00  0.00    -0.085 HD
BRANCH  18  21
ATOM     21  C   UNL     1       4.407   1.473  -4.967  0.00  0.00    -0.067 C 
ATOM     22  C   UNL     1       3.642   2.792  -5.093  0.00  0.00    -0.009 C 
ATOM     23  C   UNL     1       4.267   3.640  -6.202  0.00  0.00    -0.012 C 
ATOM     24  C   UNL     1       5.729   3.929  -5.860  0.00  0.00    +0.007 C 
ATOM     25  C   UNL     1       6.495   2.611  -5.734  0.00  0.00    -0.012 C 
ATOM     26  C   UNL     1       5.870   1.762  -4.625  0.00  0.00    -0.009 C 
ATOM     27  C   UNL     1       6.422   1.850  -7.060  0.00  0.00    +0.007 C 
ATOM     28  C   UNL     1       4.959   1.560  -7.402  0.00  0.00    -0.012 C 
ATOM     29  C   UNL     1       4.194   2.880  -7.528  0.00  0.00    +0.007 C 
ATOM     30  C   UNL     1       4.334   0.712  -6.293  0.00  0.00    -0.009 C 
ENDBRANCH  18  21
ENDBRANCH  17  18
ENDBRANCH   3  17
TORSDOF 7
