REMARK  Name = ZINC00371418
REMARK  7 active torsions:
REMARK  status: ('A' for Active; 'I' for Inactive)
REMARK    1  A    between atoms: C_1  and  C_2
REMARK    2  A    between atoms: C_5  and  C_9
REMARK    3  A    between atoms: C_6  and  C_8
REMARK    4  A    between atoms: C_9  and  C_11
REMARK    5  A    between atoms: C_9  and  N_12
REMARK    6  A    between atoms: C_13  and  C_15
REMARK    7  A    between atoms: C_20  and  N_21
REMARK                            x       y       z     vdW  Elec       q    Type
REMARK                         _______ _______ _______ _____ _____    ______ ____
ROOT
ATOM      1  N   UNL     1       0.003   1.454   2.783  0.00  0.00    -0.305 N 
ATOM      2  C   UNL     1       1.127   2.140   3.072  0.00  0.00    +0.247 C 
ATOM      3  O   UNL     1       1.553   2.966   2.288  0.00  0.00    -0.270 OA
ATOM      4  H   UNL     1      -0.338   0.795   3.408  0.00  0.00    +0.150 HD
ENDROOT
BRANCH   2   5
ATOM      5  C   UNL     1       1.840   1.888   4.341  0.00  0.00    +0.067 A 
ATOM      6  C   UNL     1       1.165   1.996   5.558  0.00  0.00    +0.017 A 
ATOM      7  C   UNL     1       1.836   1.758   6.739  0.00  0.00    +0.021 A 
ATOM      8  C   UNL     1       3.177   1.413   6.720  0.00  0.00    +0.043 A 
ATOM      9  C   UNL     1       3.853   1.305   5.515  0.00  0.00    +0.053 A 
ATOM     10  C   UNL     1       3.191   1.535   4.327  0.00  0.00    +0.140 A 
ATOM     11 CL   UNL     1       4.015   1.116   8.211  0.00  0.00    -0.083 Cl
BRANCH  10  12
ATOM     12  N   UNL     1       3.912   1.412   3.041  0.00  0.00    +0.057 N 
ATOM     13  O   UNL     1       5.116   1.225   3.033  0.00  0.00    -0.126 OA
ATOM     14  O   UNL     1       3.302   1.499   1.990  0.00  0.00    -0.126 OA
ENDBRANCH  10  12
ENDBRANCH   2   5
BRANCH   1  15
ATOM     15  C   UNL     1      -0.705   1.705   1.524  0.00  0.00    +0.101 C 
ATOM     16  C   UNL     1      -0.027   0.927   0.395  0.00  0.00    +0.033 C 
BRANCH  15  21
ATOM     17  C   UNL     1      -6.197  -0.021   2.026  0.00  0.00    +0.044 C 
ATOM     18  C   UNL     1      -4.764   0.429   1.895  0.00  0.00    -0.050 A 
ATOM     19  C   UNL     1      -3.781  -0.162   2.667  0.00  0.00    +0.004 A 
ATOM     20  C   UNL     1      -2.467   0.251   2.547  0.00  0.00    +0.006 A 
ATOM     21  C   UNL     1      -2.137   1.255   1.655  0.00  0.00    -0.025 A 
ATOM     22  C   UNL     1      -3.121   1.849   0.888  0.00  0.00    -0.045 A 
ATOM     23  C   UNL     1      -4.434   1.433   1.005  0.00  0.00    +0.007 A 
ATOM     24  C   UNL     1      -2.761   2.947  -0.080  0.00  0.00    +0.044 C 
ENDBRANCH  15  21
ENDBRANCH   1  15
TORSDOF 4
