REMARK  Name = ZINC35059601
REMARK  6 active torsions:
REMARK  status: ('A' for Active; 'I' for Inactive)
REMARK    1  A    between atoms: C_3  and  N_12
REMARK    2  A    between atoms: C_10  and  N_11
REMARK    3  A    between atoms: N_12  and  C_13
REMARK    4  A    between atoms: N_12  and  C_16
REMARK    5  A    between atoms: C_13  and  C_14
REMARK    6  A    between atoms: C_16  and  C_17
REMARK                            x       y       z     vdW  Elec       q    Type
REMARK                         _______ _______ _______ _____ _____    ______ ____
ROOT
ATOM      1  C   UNL     1      -0.017   1.375   0.010  0.00  0.00    +0.025 A 
ATOM      2  C   UNL     1       1.167   2.106   0.002  0.00  0.00    +0.025 A 
ATOM      3  C   UNL     1       2.391   1.471  -0.013  0.00  0.00    +0.039 A 
ATOM      4  C   UNL     1       2.443   0.065  -0.021  0.00  0.00    +0.008 A 
ATOM      5  C   UNL     1       3.662  -0.637  -0.037  0.00  0.00    +0.030 A 
ATOM      6  C   UNL     1       3.631  -1.999  -0.043  0.00  0.00    +0.111 A 
ATOM      7  N   UNL     1       2.488  -2.673  -0.036  0.00  0.00    -0.263 NA
ATOM      8  C   UNL     1       1.316  -2.082  -0.021  0.00  0.00    +0.121 A 
ATOM      9  C   UNL     1       1.238  -0.682  -0.013  0.00  0.00    +0.023 A 
ATOM     10  C   UNL     1       0.002  -0.004   0.002  0.00  0.00    +0.034 A 
ENDROOT
BRANCH  10  11
ATOM     11  N   UNL     1      -1.194  -0.723   0.010  0.00  0.00    -0.357 N 
ATOM     12  H   UNL     1      -2.043  -0.253   0.021  0.00  0.00    +0.142 HD
ATOM     13  H   UNL     1      -1.177  -1.693   0.005  0.00  0.00    +0.142 HD
ENDBRANCH  10  11
BRANCH   3  14
ATOM     14  N   UNL     1       3.572   2.220  -0.021  0.00  0.00    -0.303 N 
BRANCH  14  15
ATOM     15  C   UNL     1       4.204   2.606   1.243  0.00  0.00    +0.225 C 
BRANCH  15  16
ATOM     16  C   UNL     1       5.158   1.563   1.653  0.00  0.00    +0.082 C 
ATOM     17  N   UNL     1       5.894   0.758   1.969  0.00  0.00    -0.195 NA
ENDBRANCH  15  16
ENDBRANCH  14  15
BRANCH  14  18
ATOM     18  C   UNL     1       4.178   2.618  -1.294  0.00  0.00    +0.225 C 
BRANCH  18  19
ATOM     19  C   UNL     1       3.638   3.924  -1.707  0.00  0.00    +0.082 C 
ATOM     20  N   UNL     1       3.221   4.931  -2.026  0.00  0.00    -0.195 NA
ENDBRANCH  18  19
ENDBRANCH  14  18
ENDBRANCH   3  14
TORSDOF 6
