REMARK  Name = ZINC29482823
REMARK  8 active torsions:
REMARK  status: ('A' for Active; 'I' for Inactive)
REMARK    1  A    between atoms: C_1  and  C_2
REMARK    2  A    between atoms: C_6  and  N_8
REMARK    3  A    between atoms: C_9  and  C_11
REMARK    4  A    between atoms: C_11  and  C_13
REMARK    5  A    between atoms: C_11  and  N_16
REMARK    6  A    between atoms: C_13  and  C_14
REMARK    7  A    between atoms: C_13  and  C_15
REMARK    8  A    between atoms: C_17  and  C_19
REMARK                            x       y       z     vdW  Elec       q    Type
REMARK                         _______ _______ _______ _____ _____    ______ ____
ROOT
ATOM      1  C   UNL     1       1.155   1.965  -0.280  0.00  0.00    +0.162 C 
ENDROOT
BRANCH   1   3
ATOM      2  N   UNL     1      -0.384   0.050   0.010  0.00  0.00    -0.282 N 
ATOM      3  C   UNL     1      -0.173   1.285  -0.488  0.00  0.00    +0.238 C 
ATOM      4  O   UNL     1      -1.052   1.847  -1.107  0.00  0.00    -0.273 OA
ATOM      5  H   UNL     1       0.438  -0.493   0.498  0.00  0.00    +0.155 HD
BRANCH   2  11
ATOM      6  C   UNL     1      -4.654  -0.415  -2.383  0.00  0.00    +0.044 C 
ATOM      7  C   UNL     1      -3.740  -0.784  -1.243  0.00  0.00    -0.049 A 
ATOM      8  C   UNL     1      -4.151  -1.708  -0.300  0.00  0.00    +0.006 A 
ATOM      9  C   UNL     1      -3.316  -2.050   0.747  0.00  0.00    +0.040 A 
ATOM     10  C   UNL     1      -2.063  -1.473   0.851  0.00  0.00    +0.145 A 
ATOM     11  C   UNL     1      -1.650  -0.540  -0.094  0.00  0.00    +0.069 A 
ATOM     12  C   UNL     1      -2.492  -0.200  -1.143  0.00  0.00    +0.029 A 
ATOM     13  F   UNL     1      -1.244  -1.811   1.871  0.00  0.00    -0.204 F 
ENDBRANCH   2  11
ENDBRANCH   1   3
BRANCH   1  14
ATOM     14  N   UNL     1       0.980   3.417  -0.365  0.00  0.00    -0.299 N 
ATOM     15  C   UNL     1       1.848   4.238   0.257  0.00  0.00    +0.251 C 
ATOM     16  O   UNL     1       2.778   3.774   0.890  0.00  0.00    -0.270 OA
ATOM     17  H   UNL     1       0.139   3.836  -0.937  0.00  0.00    +0.150 HD
BRANCH  15  18
ATOM     18  C   UNL     1       1.672   5.691   0.172  0.00  0.00    +0.074 A 
ATOM     19  C   UNL     1       2.443   6.698   0.732  0.00  0.00    +0.021 A 
ATOM     20  C   UNL     1       2.050   7.992   0.491  0.00  0.00    +0.008 A 
ATOM     21  C   UNL     1       0.947   8.220  -0.269  0.00  0.00    +0.046 A 
ATOM     22  S   UNL     1       0.416   6.623  -0.685  0.00  0.00    -0.092 S 
ENDBRANCH  15  18
ENDBRANCH   1  14
BRANCH   1  23
ATOM     23  C   UNL     1       2.137   1.506  -1.360  0.00  0.00    +0.012 C 
ATOM     24  C   UNL     1       3.473   2.229  -1.175  0.00  0.00    +0.009 C 
ATOM     25  C   UNL     1       2.354  -0.004  -1.243  0.00  0.00    +0.009 C 
ENDBRANCH   1  23
TORSDOF 5
