REMARK  Name = ZINC51927663
REMARK  6 active torsions:
REMARK  status: ('A' for Active; 'I' for Inactive)
REMARK    1  A    between atoms: C_1  and  C_2
REMARK    2  A    between atoms: C_3  and  C_21
REMARK    3  A    between atoms: N_4  and  C_7
REMARK    4  A    between atoms: C_7  and  C_8
REMARK    5  A    between atoms: C_7  and  C_9
REMARK    6  A    between atoms: C_7  and  C_18
REMARK                            x       y       z     vdW  Elec       q    Type
REMARK                         _______ _______ _______ _____ _____    ______ ____
ROOT
ATOM      1  C   UNL     1      -0.008  -3.166  -1.442  0.00  0.00    +0.171 C 
ATOM      2  C   UNL     1      -1.216  -2.980  -2.363  0.00  0.00    +0.052 C 
ENDROOT
BRANCH   1   3
ATOM      3  C   UNL     1      -0.192  -4.415  -0.619  0.00  0.00    +0.010 A 
ATOM      4  C   UNL     1      -0.170  -4.341   0.762  0.00  0.00    +0.047 A 
ATOM      5  C   UNL     1      -0.339  -5.488   1.518  0.00  0.00    +0.142 A 
ATOM      6  C   UNL     1      -0.531  -6.709   0.892  0.00  0.00    +0.077 A 
ATOM      7  C   UNL     1      -0.553  -6.781  -0.489  0.00  0.00    +0.043 A 
ATOM      8  C   UNL     1      -0.389  -5.633  -1.244  0.00  0.00    +0.048 A 
ATOM      9 CL   UNL     1      -0.424  -5.723  -2.977  0.00  0.00    -0.083 Cl
ATOM     10 CL   UNL     1      -0.742  -8.148   1.840  0.00  0.00    -0.081 Cl
ATOM     11  F   UNL     1      -0.316  -5.417   2.867  0.00  0.00    -0.204 F 
ENDBRANCH   1   3
BRANCH   1  15
ATOM     12  C   UNL     1       1.677   0.077   1.997  0.00  0.00    +0.065 C 
ATOM     13  C   UNL     1       0.841  -0.598   0.940  0.00  0.00    +0.033 A 
ATOM     14  C   UNL     1       1.127  -1.764   0.331  0.00  0.00    +0.037 A 
ATOM     15  N   UNL     1       0.111  -2.008  -0.553  0.00  0.00    -0.315 N 
ATOM     16  C   UNL     1      -0.761  -0.982  -0.453  0.00  0.00    +0.175 A 
ATOM     17  N   UNL     1      -0.320  -0.145   0.446  0.00  0.00    -0.350 N 
ATOM     18  C   UNL     1       2.334  -2.632   0.574  0.00  0.00    +0.065 C 
ATOM     19  H   UNL     1      -0.762   0.676   0.713  0.00  0.00    +0.166 HD
ENDBRANCH   1  15
BRANCH   1  20
ATOM     20  C   UNL     1       1.242  -3.293  -2.273  0.00  0.00    +0.386 C 
ATOM     21  O   UNL     1       1.617  -4.391  -2.649  0.00  0.00    -0.243 OA
ATOM     22  O   UNL     1       1.880  -2.297  -2.571  0.00  0.00    -0.243 OA
ENDBRANCH   1  20
TORSDOF 3
