REMARK  Name = ZINC12279901
REMARK  13 active torsions:
REMARK  status: ('A' for Active; 'I' for Inactive)
REMARK    1  A    between atoms: C_1  and  C_2
REMARK    2  A    between atoms: C_2  and  C_3
REMARK    3  A    between atoms: C_2  and  C_4
REMARK    4  A    between atoms: C_4  and  C_6
REMARK    5  A    between atoms: C_4  and  N_26
REMARK    6  A    between atoms: C_15  and  C_16
REMARK    7  A    between atoms: C_15  and  N_61
REMARK    8  A    between atoms: C_18  and  O_24
REMARK    9  A    between atoms: C_20  and  O_22
REMARK   10  A    between atoms: O_22  and  C_23
REMARK   11  A    between atoms: O_24  and  C_25
REMARK   12  A    between atoms: N_26  and  S_27
REMARK   13  A    between atoms: S_27  and  C_30
REMARK                            x       y       z     vdW  Elec       q    Type
REMARK                         _______ _______ _______ _____ _____    ______ ____
ROOT
ATOM      1  C   UNL     1       2.471   0.281  -3.007  0.00  0.00    +0.152 A 
ATOM      2  N   UNL     1       2.057  -0.388  -4.051  0.00  0.00    -0.133 NA
ATOM      3  N   UNL     1       2.456   0.196  -5.127  0.00  0.00    -0.134 NA
ATOM      4  C   UNL     1       3.143   1.256  -4.817  0.00  0.00    +0.132 A 
ATOM      5  N   UNL     1       3.184   1.331  -3.465  0.00  0.00    -0.315 N 
ATOM      6  C   UNL     1       3.882   2.349  -2.680  0.00  0.00    +0.106 C 
ATOM      7  C   UNL     1       3.964   3.644  -3.495  0.00  0.00    -0.056 C 
ATOM      8  C   UNL     1       5.202   2.542  -5.277  0.00  0.00    -0.071 C 
ATOM      9  C   UNL     1       3.777   2.250  -5.756  0.00  0.00    +0.058 C 
ATOM     10  N   UNL     1       5.189   3.676  -4.327  0.00  0.00    +0.384 N 
ATOM     11  H   UNL     1       5.203   4.553  -4.861  0.00  0.00    -0.081 HD
ENDROOT
BRANCH   1  12
ATOM     12  C   UNL     1       2.207  -0.061  -1.563  0.00  0.00    +0.146 C 
BRANCH  12  14
ATOM     13  C   UNL     1       2.835  -2.417  -2.110  0.00  0.00    +0.009 C 
ATOM     14  C   UNL     1       3.080  -1.249  -1.153  0.00  0.00    +0.009 C 
ATOM     15  C   UNL     1       4.554  -0.843  -1.210  0.00  0.00    +0.009 C 
ENDBRANCH  12  14
BRANCH  12  16
ATOM     16  N   UNL     1       0.795  -0.411  -1.394  0.00  0.00    -0.184 NA
ATOM     17  H   UNL     1       0.324  -0.881  -2.099  0.00  0.00    +0.148 HD
BRANCH  16  18
ATOM     18  S   UNL     1       0.002  -0.004   0.002  0.00  0.00    +0.027 S 
ATOM     19  O   UNL     1       0.835  -0.488   1.046  0.00  0.00    -0.158 OA
ATOM     20  O   UNL     1      -1.315  -0.510  -0.168  0.00  0.00    -0.158 OA
ATOM     21  C   UNL     1      -0.022   1.810   0.012  0.00  0.00    +0.214 C 
ENDBRANCH  16  18
ENDBRANCH  12  16
ENDBRANCH   1  12
BRANCH  10  22
ATOM     22  C   UNL     1       6.384   3.622  -3.465  0.00  0.00    -0.043 C 
BRANCH  22  23
ATOM     23  C   UNL     1       7.598   3.908  -4.310  0.00  0.00    -0.057 A 
ATOM     24  C   UNL     1       8.286   2.866  -4.903  0.00  0.00    +0.047 A 
ATOM     25  C   UNL     1       9.402   3.127  -5.686  0.00  0.00    +0.124 A 
ATOM     26  C   UNL     1       9.833   4.433  -5.864  0.00  0.00    +0.091 A 
ATOM     27  C   UNL     1       9.144   5.476  -5.263  0.00  0.00    +0.124 A 
ATOM     28  C   UNL     1       8.026   5.210  -4.485  0.00  0.00    +0.047 A 
BRANCH  27  29
ATOM     29  O   UNL     1       9.563   6.757  -5.436  0.00  0.00    -0.495 OA
ATOM     30  C   UNL     1      10.721   6.956  -6.249  0.00  0.00    +0.277 C 
ENDBRANCH  27  29
BRANCH  25  31
ATOM     31  O   UNL     1      10.075   2.103  -6.274  0.00  0.00    -0.495 OA
ATOM     32  C   UNL     1      11.217   2.445  -7.062  0.00  0.00    +0.277 C 
ENDBRANCH  25  31
ENDBRANCH  22  23
ENDBRANCH  10  22
TORSDOF 8
