REMARK  Name = ZINC57440112
REMARK  8 active torsions:
REMARK  status: ('A' for Active; 'I' for Inactive)
REMARK    1  A    between atoms: C_1  and  C_2
REMARK    2  A    between atoms: C_2  and  C_4
REMARK    3  A    between atoms: C_2  and  N_16
REMARK    4  A    between atoms: N_9  and  C_10
REMARK    5  A    between atoms: N_19  and  C_22
REMARK    6  A    between atoms: C_22  and  C_24
REMARK    7  A    between atoms: C_22  and  C_25
REMARK    8  A    between atoms: N_30  and  C_31
REMARK                            x       y       z     vdW  Elec       q    Type
REMARK                         _______ _______ _______ _____ _____    ______ ____
ROOT
ATOM      1  N   UNL     1       0.315  -0.018  -1.491  0.00  0.00    -0.289 NA
ATOM      2  C   UNL     1       1.695   0.485  -1.467  0.00  0.00    +0.100 C 
ATOM      3  C   UNL     1       2.518  -0.242  -2.533  0.00  0.00    +0.100 C 
ATOM      4  N   UNL     1       1.906  -0.029  -3.852  0.00  0.00    -0.289 NA
ATOM      5  C   UNL     1       0.525  -0.531  -3.875  0.00  0.00    +0.100 C 
ATOM      6  C   UNL     1      -0.298   0.196  -2.809  0.00  0.00    +0.100 C 
ENDROOT
BRANCH   1   8
ATOM      7  C   UNL     1      -0.492   2.122  -0.613  0.00  0.00    +0.034 C 
ATOM      8  C   UNL     1      -0.490   0.603  -0.430  0.00  0.00    +0.140 C 
BRANCH   8   9
ATOM      9  C   UNL     1       0.101   0.260   0.914  0.00  0.00    +0.237 C 
ATOM     10  O   UNL     1       1.093  -0.433   0.981  0.00  0.00    -0.274 OA
ATOM     11  N   UNL     1      -0.475   0.723   2.041  0.00  0.00    -0.239 N 
ATOM     12  C   UNL     1       0.053   0.417   3.242  0.00  0.00    +0.306 C 
ATOM     13  O   UNL     1       1.048  -0.278   3.309  0.00  0.00    -0.252 OA
ATOM     14  N   UNL     1      -0.523   0.880   4.370  0.00  0.00    -0.296 N 
ATOM     15  H   UNL     1      -1.269   1.278   1.987  0.00  0.00    +0.159 HD
ATOM     16  H   UNL     1      -1.317   1.435   4.316  0.00  0.00    +0.151 HD
BRANCH  14  17
ATOM     17  C   UNL     1       0.051   0.547   5.676  0.00  0.00    +0.074 C 
ATOM     18  C   UNL     1      -0.483  -0.811   6.136  0.00  0.00    +0.022 C 
ATOM     19  C   UNL     1       0.117  -1.159   7.500  0.00  0.00    +0.002 C 
ATOM     20  C   UNL     1      -0.274  -0.085   8.518  0.00  0.00    +0.000 C 
ATOM     21  C   UNL     1       0.260   1.273   8.057  0.00  0.00    +0.002 C 
ATOM     22  C   UNL     1      -0.340   1.621   6.693  0.00  0.00    +0.022 C 
ENDBRANCH  14  17
ENDBRANCH   8   9
ENDBRANCH   1   8
BRANCH   4  23
ATOM     23  C   UNL     1       2.710  -0.649  -4.913  0.00  0.00    +0.140 C 
ATOM     24  C   UNL     1       3.072  -2.080  -4.508  0.00  0.00    +0.034 C 
BRANCH  23  25
ATOM     25  C   UNL     1       3.972   0.149  -5.118  0.00  0.00    +0.237 C 
ATOM     26  O   UNL     1       4.316   0.963  -4.288  0.00  0.00    -0.274 OA
ATOM     27  N   UNL     1       4.717  -0.042  -6.225  0.00  0.00    -0.239 N 
ATOM     28  C   UNL     1       5.846   0.672  -6.409  0.00  0.00    +0.306 C 
ATOM     29  O   UNL     1       6.191   1.488  -5.577  0.00  0.00    -0.252 OA
ATOM     30  N   UNL     1       6.591   0.480  -7.515  0.00  0.00    -0.296 N 
ATOM     31  H   UNL     1       4.442  -0.693  -6.889  0.00  0.00    +0.159 HD
ATOM     32  H   UNL     1       6.316  -0.171  -8.179  0.00  0.00    +0.151 HD
BRANCH  30  33
ATOM     33  C   UNL     1       7.818   1.256  -7.715  0.00  0.00    +0.074 C 
ATOM     34  C   UNL     1       7.472   2.601  -8.358  0.00  0.00    +0.022 C 
ATOM     35  C   UNL     1       8.752   3.411  -8.567  0.00  0.00    +0.002 C 
ATOM     36  C   UNL     1       9.702   2.637  -9.483  0.00  0.00    +0.000 C 
ATOM     37  C   UNL     1      10.048   1.292  -8.840  0.00  0.00    +0.002 C 
ATOM     38  C   UNL     1       8.767   0.482  -8.631  0.00  0.00    +0.022 C 
ENDBRANCH  30  33
ENDBRANCH  23  25
ENDBRANCH   4  23
TORSDOF 6
