REMARK  Name = ZINC59916344
REMARK  9 active torsions:
REMARK  status: ('A' for Active; 'I' for Inactive)
REMARK    1  A    between atoms: C_1  and  C_2
REMARK    2  A    between atoms: C_7  and  O_8
REMARK    3  A    between atoms: O_8  and  C_9
REMARK    4  A    between atoms: C_9  and  C_10
REMARK    5  A    between atoms: C_13  and  C_15
REMARK    6  A    between atoms: N_16  and  N_17
REMARK    7  A    between atoms: C_18  and  C_20
REMARK    8  A    between atoms: C_20  and  C_21
REMARK    9  A    between atoms: C_20  and  C_22
REMARK                            x       y       z     vdW  Elec       q    Type
REMARK                         _______ _______ _______ _____ _____    ______ ____
ROOT
ATOM      1  C   UNL     1      -1.047   1.011   4.254  0.00  0.00    +0.143 A 
ATOM      2  C   UNL     1      -0.967   2.351   4.389  0.00  0.00    +0.049 A 
ATOM      3  C   UNL     1      -0.781   2.618   5.758  0.00  0.00    +0.051 A 
ATOM      4  C   UNL     1      -0.758   1.411   6.394  0.00  0.00    +0.148 A 
ATOM      5  O   UNL     1      -0.926   0.447   5.466  0.00  0.00    -0.455 OA
ENDROOT
BRANCH   4   6
ATOM      6  C   UNL     1      -0.585   1.199   7.834  0.00  0.00    +0.176 C 
ATOM      7  N   UNL     1      -0.581  -0.008   8.318  0.00  0.00    -0.185 NA
BRANCH   7   8
ATOM      8  N   UNL     1      -0.416  -0.211   9.694  0.00  0.00    -0.207 N 
ATOM      9  C   UNL     1      -0.412  -1.462  10.196  0.00  0.00    +0.235 C 
ATOM     10  O   UNL     1      -0.551  -2.413   9.456  0.00  0.00    -0.274 OA
ATOM     11  H   UNL     1      -0.305   0.550  10.287  0.00  0.00    +0.177 HD
BRANCH   9  12
ATOM     12  C   UNL     1      -0.235  -1.679  11.677  0.00  0.00    +0.070 C 
ATOM     13  C   UNL     1      -1.366  -0.981  12.434  0.00  0.00    +0.017 C 
ATOM     14  C   UNL     1      -0.268  -3.179  11.979  0.00  0.00    +0.017 C 
ENDBRANCH   9  12
ENDBRANCH   7   8
ENDBRANCH   4   6
BRANCH   1  15
ATOM     15  C   UNL     1      -1.247   0.271   2.957  0.00  0.00    +0.303 C 
BRANCH  15  16
ATOM     16  O   UNL     1       0.025  -0.033   2.381  0.00  0.00    -0.483 OA
BRANCH  16  23
ATOM     17  C   UNL     1      -0.018   1.503   0.010  0.00  0.00    +0.047 C 
ATOM     18  C   UNL     1       0.002  -0.004   0.002  0.00  0.00    -0.007 A 
ATOM     19  C   UNL     1       0.006  -0.689  -1.198  0.00  0.00    +0.007 A 
ATOM     20  C   UNL     1       0.025  -2.071  -1.207  0.00  0.00    +0.002 A 
ATOM     21  C   UNL     1       0.040  -2.773  -0.016  0.00  0.00    +0.024 A 
ATOM     22  C   UNL     1       0.036  -2.093   1.188  0.00  0.00    +0.083 A 
ATOM     23  C   UNL     1       0.023  -0.704   1.199  0.00  0.00    +0.142 A 
ATOM     24 CL   UNL     1       0.056  -2.973   2.684  0.00  0.00    -0.080 Cl
ENDBRANCH  16  23
ENDBRANCH  15  16
ENDBRANCH   1  15
TORSDOF 6
