REMARK  Name = ZINC32906253
REMARK  15 active torsions:
REMARK  status: ('A' for Active; 'I' for Inactive)
REMARK    1  A    between atoms: C_1  and  C_2
REMARK    2  A    between atoms: C_2  and  O_3
REMARK    3  A    between atoms: O_3  and  C_4
REMARK    4  A    between atoms: C_4  and  C_6
REMARK    5  A    between atoms: C_7  and  C_33
REMARK    6  A    between atoms: C_8  and  C_32
REMARK    7  A    between atoms: C_10  and  N_11
REMARK    8  A    between atoms: C_12  and  C_14
REMARK    9  A    between atoms: C_14  and  O_15
REMARK   10  A    between atoms: O_15  and  C_16
REMARK   11  A    between atoms: C_16  and  C_18
REMARK   12  A    between atoms: C_22  and  O_30
REMARK   13  A    between atoms: C_24  and  O_28
REMARK   14  A    between atoms: O_28  and  C_29
REMARK   15  A    between atoms: O_30  and  C_31
REMARK                            x       y       z     vdW  Elec       q    Type
REMARK                         _______ _______ _______ _____ _____    ______ ____
ROOT
ATOM      1  C   UNL     1      -3.274   6.101   0.063  0.00  0.00    +0.328 C 
ENDROOT
BRANCH   1   3
ATOM      2  N   UNL     1      -5.605   6.929   0.088  0.00  0.00    -0.277 N 
ATOM      3  C   UNL     1      -4.764   5.876   0.075  0.00  0.00    +0.255 C 
ATOM      4  O   UNL     1      -5.207   4.747   0.074  0.00  0.00    -0.272 OA
ATOM      5  H   UNL     1      -5.203   7.953   0.089  0.00  0.00    +0.155 HD
BRANCH   2  10
ATOM      6  C   UNL     1      -7.992   7.671   0.113  0.00  0.00    +0.091 A 
ATOM      7  C   UNL     1      -9.347   7.171   0.123  0.00  0.00    -0.025 A 
ATOM      8  C   UNL     1      -9.508   5.836   0.118  0.00  0.00    -0.008 A 
ATOM      9  S   UNL     1      -7.837   5.221   0.092  0.00  0.00    -0.078 S 
ATOM     10  C   UNL     1      -6.975   6.723   0.099  0.00  0.00    +0.086 A 
ATOM     11  C   UNL     1     -10.793   5.049   0.125  0.00  0.00    +0.052 C 
ATOM     12  C   UNL     1     -10.529   8.105   0.139  0.00  0.00    +0.045 C 
BRANCH   6  13
ATOM     13  C   UNL     1      -7.704   9.107   0.118  0.00  0.00    +0.342 C 
ATOM     14  O   UNL     1      -7.593   9.709  -0.933  0.00  0.00    -0.245 OA
BRANCH  13  15
ATOM     15  O   UNL     1      -7.560   9.762   1.288  0.00  0.00    -0.461 OA
BRANCH  15  17
ATOM     16  C   UNL     1      -7.147  11.750   2.633  0.00  0.00    +0.048 C 
ATOM     17  C   UNL     1      -7.275  11.184   1.217  0.00  0.00    +0.229 C 
ENDBRANCH  15  17
ENDBRANCH  13  15
ENDBRANCH   6  13
ENDBRANCH   2  10
ENDBRANCH   1   3
BRANCH   1  18
ATOM     18  O   UNL     1      -2.592   4.819   0.050  0.00  0.00    -0.451 OA
BRANCH  18  19
ATOM     19  C   UNL     1      -1.244   4.844   0.038  0.00  0.00    +0.356 C 
ATOM     20  O   UNL     1      -0.655   5.907   0.038  0.00  0.00    -0.243 OA
BRANCH  19  21
ATOM     21  C   UNL     1      -0.486   3.585   0.025  0.00  0.00    +0.125 A 
ATOM     22  C   UNL     1       0.870   3.481   0.012  0.00  0.00    +0.043 A 
ATOM     23  C   UNL     1       1.197   2.104   0.002  0.00  0.00    +0.008 A 
ATOM     24  C   UNL     1       2.413   1.405  -0.013  0.00  0.00    +0.056 A 
ATOM     25  C   UNL     1       2.410   0.027  -0.021  0.00  0.00    +0.124 A 
ATOM     26  C   UNL     1       1.207  -0.676  -0.013  0.00  0.00    +0.093 A 
ATOM     27  C   UNL     1       0.002  -0.004   0.002  0.00  0.00    +0.147 A 
ATOM     28  C   UNL     1      -0.017   1.393   0.010  0.00  0.00    +0.090 A 
ATOM     29  N   UNL     1      -1.037   2.319   0.019  0.00  0.00    -0.346 N 
ATOM     30  H   UNL     1      -2.130   2.194   0.022  0.00  0.00    +0.166 HD
BRANCH  27  31
ATOM     31  O   UNL     1      -1.165  -0.701   0.009  0.00  0.00    -0.493 OA
ATOM     32  C   UNL     1      -1.071  -2.126   0.001  0.00  0.00    +0.277 C 
ENDBRANCH  27  31
BRANCH  25  33
ATOM     33  O   UNL     1       3.589  -0.651  -0.037  0.00  0.00    -0.495 OA
ATOM     34  C   UNL     1       3.517  -2.078  -0.044  0.00  0.00    +0.277 C 
ENDBRANCH  25  33
ENDBRANCH  19  21
ENDBRANCH  18  19
ENDBRANCH   1  18
TORSDOF 10
