REMARK  Name = ZINC48488962
REMARK  5 active torsions:
REMARK  status: ('A' for Active; 'I' for Inactive)
REMARK    1  A    between atoms: C_1  and  C_2
REMARK    2  A    between atoms: C_2  and  C_3
REMARK    3  A    between atoms: C_2  and  N_4
REMARK    4  A    between atoms: C_5  and  C_7
REMARK    5  A    between atoms: N_9  and  C_10
REMARK                            x       y       z     vdW  Elec       q    Type
REMARK                         _______ _______ _______ _____ _____    ______ ____
ROOT
ATOM      1  C   UNL     1      -3.046  -2.249  -0.479  0.00  0.00    +0.303 C 
ATOM      2  O   UNL     1      -3.940  -1.569  -0.019  0.00  0.00    -0.265 OA
ATOM      3  N   UNL     1      -3.315  -3.474  -0.972  0.00  0.00    -0.276 N 
ATOM      4  H   UNL     1      -2.613  -3.991  -1.398  0.00  0.00    +0.155 HD
ENDROOT
BRANCH   3   5
ATOM      5  C   UNL     1      -4.606  -4.001  -0.867  0.00  0.00    +0.054 A 
ATOM      6  C   UNL     1      -5.709  -3.162  -0.960  0.00  0.00    +0.046 A 
ATOM      7  C   UNL     1      -6.984  -3.686  -0.858  0.00  0.00    +0.061 A 
ATOM      8  C   UNL     1      -7.162  -5.046  -0.662  0.00  0.00    +0.061 A 
ATOM      9  C   UNL     1      -6.065  -5.883  -0.568  0.00  0.00    +0.043 A 
ATOM     10  C   UNL     1      -4.788  -5.366  -0.676  0.00  0.00    +0.064 A 
ATOM     11 CL   UNL     1      -3.412  -6.419  -0.567  0.00  0.00    -0.082 Cl
ATOM     12 CL   UNL     1      -8.765  -5.700  -0.533  0.00  0.00    -0.082 Cl
ATOM     13 CL   UNL     1      -8.364  -2.639  -0.973  0.00  0.00    -0.082 Cl
ENDBRANCH   3   5
BRANCH   1  15
ATOM     14  N   UNL     1      -1.377  -0.501  -0.008  0.00  0.00    -0.305 N 
ATOM     15  C   UNL     1      -1.647  -1.727  -0.500  0.00  0.00    +0.299 C 
ATOM     16  O   UNL     1      -0.752  -2.406  -0.960  0.00  0.00    -0.265 OA
ATOM     17  H   UNL     1      -2.092   0.042   0.360  0.00  0.00    +0.149 HD
BRANCH  14  19
ATOM     18  C   UNL     1      -0.031   1.540  -0.024  0.00  0.00    +0.027 C 
ATOM     19  C   UNL     1      -0.005   0.011  -0.028  0.00  0.00    +0.067 C 
ATOM     20  C   UNL     1       0.745  -0.490   1.208  0.00  0.00    +0.027 C 
ENDBRANCH  14  19
ENDBRANCH   1  15
TORSDOF 3
