REMARK  Name = ZINC40701989
REMARK  7 active torsions:
REMARK  status: ('A' for Active; 'I' for Inactive)
REMARK    1  A    between atoms: C_1  and  C_2
REMARK    2  A    between atoms: C_2  and  N_3
REMARK    3  A    between atoms: N_3  and  C_4
REMARK    4  A    between atoms: C_15  and  N_27
REMARK    5  A    between atoms: C_16  and  N_20
REMARK    6  A    between atoms: N_20  and  C_21
REMARK    7  A    between atoms: C_21  and  C_22
REMARK                            x       y       z     vdW  Elec       q    Type
REMARK                         _______ _______ _______ _____ _____    ______ ____
ROOT
ATOM      1  N   UNL     1      -1.440  -0.541  -0.029  0.00  0.00    -0.285 N 
ATOM      2  C   UNL     1      -2.010  -0.872   1.196  0.00  0.00    +0.129 A 
ATOM      3  C   UNL     1      -1.781  -2.123   1.770  0.00  0.00    +0.104 A 
ATOM      4  C   UNL     1      -2.378  -2.403   3.000  0.00  0.00    +0.145 A 
ATOM      5  N   UNL     1      -3.137  -1.474   3.575  0.00  0.00    -0.221 NA
ATOM      6  C   UNL     1      -3.328  -0.304   2.999  0.00  0.00    +0.200 A 
ATOM      7  N   UNL     1      -2.779   0.003   1.841  0.00  0.00    -0.332 N 
ATOM      8  H   UNL     1      -2.941   0.876   1.452  0.00  0.00    +0.168 HD
ENDROOT
BRANCH   1   9
ATOM      9  C   UNL     1      -2.174  -0.695  -1.204  0.00  0.00    +0.043 A 
ATOM     10  C   UNL     1      -2.136  -1.886  -1.897  0.00  0.00    +0.024 A 
ATOM     11  C   UNL     1      -2.865  -2.049  -3.071  0.00  0.00    +0.002 A 
ATOM     12  C   UNL     1      -3.635  -1.041  -3.567  0.00  0.00    +0.008 A 
ATOM     13  C   UNL     1      -3.701   0.189  -2.891  0.00  0.00    -0.016 A 
ATOM     14  C   UNL     1      -2.968   0.366  -1.691  0.00  0.00    +0.003 A 
ATOM     15  C   UNL     1      -3.039   1.593  -1.014  0.00  0.00    +0.010 A 
ATOM     16  C   UNL     1      -3.815   2.595  -1.514  0.00  0.00    +0.001 A 
ATOM     17  C   UNL     1      -4.541   2.420  -2.690  0.00  0.00    +0.001 A 
ATOM     18  C   UNL     1      -4.487   1.247  -3.380  0.00  0.00    +0.008 A 
ENDBRANCH   1   9
BRANCH   3  19
ATOM     19  N   UNL     1      -0.973  -3.075   1.127  0.00  0.00    -0.353 N 
ATOM     20  H   UNL     1      -0.483  -2.833   0.325  0.00  0.00    +0.143 HD
ATOM     21  H   UNL     1      -0.904  -3.973   1.484  0.00  0.00    +0.143 HD
ENDBRANCH   3  19
BRANCH   1  23
ATOM     22  C   UNL     1      -0.088   1.496  -0.005  0.00  0.00    +0.025 C 
ATOM     23  C   UNL     1      -0.068  -0.031  -0.084  0.00  0.00    +0.109 C 
ENDBRANCH   1  23
BRANCH   4  24
ATOM     24  N   UNL     1      -2.183  -3.634   3.615  0.00  0.00    -0.320 N 
ATOM     25  H   UNL     1      -1.628  -4.307   3.189  0.00  0.00    +0.148 HD
BRANCH  24  26
ATOM     26  C   UNL     1      -2.814  -3.916   4.907  0.00  0.00    +0.177 C 
BRANCH  26  27
ATOM     27  C   UNL     1      -2.447  -5.308   5.353  0.00  0.00    +0.122 A 
ATOM     28  C   UNL     1      -1.381  -5.638   6.105  0.00  0.00    +0.046 A 
ATOM     29  C   UNL     1      -1.423  -7.040   6.282  0.00  0.00    +0.041 A 
ATOM     30  C   UNL     1      -2.511  -7.483   5.627  0.00  0.00    +0.195 A 
ATOM     31  O   UNL     1      -3.130  -6.429   5.071  0.00  0.00    -0.466 OA
ENDBRANCH  26  27
ENDBRANCH  24  26
ENDBRANCH   4  24
TORSDOF 6
