REMARK  Name = ZINC16848118
REMARK  5 active torsions:
REMARK  status: ('A' for Active; 'I' for Inactive)
REMARK    1  A    between atoms: C_1  and  C_2
REMARK    2  A    between atoms: C_2  and  N_3
REMARK    3  A    between atoms: N_3  and  C_4
REMARK    4  A    between atoms: C_4  and  C_5
REMARK    5  A    between atoms: C_8  and  N_18
REMARK                            x       y       z     vdW  Elec       q    Type
REMARK                         _______ _______ _______ _____ _____    ______ ____
ROOT
ATOM      1  N   UNL     1       0.688  -0.476  -1.203  0.00  0.00    -0.302 N 
ATOM      2  C   UNL     1      -0.030  -0.710  -2.359  0.00  0.00    +0.197 C 
ATOM      3  N   UNL     1      -1.312  -0.492  -2.334  0.00  0.00    -0.216 NA
ATOM      4  C   UNL     1      -2.153  -0.614  -3.533  0.00  0.00    +0.270 C 
ATOM      5  N   UNL     1      -1.424  -1.422  -4.511  0.00  0.00    -0.232 N 
ATOM      6  C   UNL     1      -1.938  -2.234  -5.613  0.00  0.00    +0.210 C 
ATOM      7  C   UNL     1      -0.658  -2.886  -6.189  0.00  0.00    +0.271 C 
ATOM      8  O   UNL     1       0.397  -2.069  -5.643  0.00  0.00    -0.463 OA
ATOM      9  C   UNL     1      -0.053  -1.527  -4.503  0.00  0.00    +0.269 C 
ATOM     10  N   UNL     1       0.643  -1.144  -3.444  0.00  0.00    -0.286 N 
ATOM     11 CL   UNL     1      -2.741  -1.196  -6.849  0.00  0.00    -0.097 Cl
ATOM     12  H   UNL     1       1.613  -1.178  -3.446  0.00  0.00    +0.173 HD
ENDROOT
BRANCH   4  13
ATOM     13  N   UNL     1      -2.422   0.719  -4.088  0.00  0.00    -0.294 NA
ATOM     14  H   UNL     1      -2.902   1.300  -3.417  0.00  0.00    +0.122 HD
ATOM     15  H   UNL     1      -1.571   1.158  -4.404  0.00  0.00    +0.122 HD
ENDBRANCH   4  13
BRANCH   1  17
ATOM     16  C   UNL     1      -0.019   1.526   0.010  0.00  0.00    +0.024 C 
ATOM     17  C   UNL     1       0.002  -0.004   0.002  0.00  0.00    +0.104 C 
ENDBRANCH   1  17
BRANCH   1  18
ATOM     18  C   UNL     1       2.135  -0.701  -1.182  0.00  0.00    +0.104 C 
ATOM     19  C   UNL     1       2.421  -2.145  -0.763  0.00  0.00    +0.024 C 
ENDBRANCH   1  18
TORSDOF 3
