REMARK  Name = ZINC39659504
REMARK  6 active torsions:
REMARK  status: ('A' for Active; 'I' for Inactive)
REMARK    1  A    between atoms: C_1  and  C_2
REMARK    2  A    between atoms: C_2  and  C_33
REMARK    3  A    between atoms: C_5  and  C_8
REMARK    4  A    between atoms: C_8  and  N_9
REMARK    5  A    between atoms: C_10  and  C_12
REMARK    6  A    between atoms: C_23  and  C_25
REMARK                            x       y       z     vdW  Elec       q    Type
REMARK                         _______ _______ _______ _____ _____    ______ ____
ROOT
ATOM      1  C   UNL     1       3.771  -2.668   5.376  0.00  0.00    +0.100 C 
ATOM      2  C   UNL     1       2.627  -1.819   5.974  0.00  0.00    +0.121 C 
ATOM      3  N   UNL     1       3.034  -1.579   7.379  0.00  0.00    -0.296 N 
ATOM      4  C   UNL     1       4.495  -1.344   7.304  0.00  0.00    +0.115 C 
ATOM      5  C   UNL     1       4.996  -2.352   6.251  0.00  0.00    -0.004 C 
ATOM      6  C   UNL     1       6.102  -1.727   5.406  0.00  0.00    -0.010 C 
ATOM      7  C   UNL     1       7.330  -1.476   6.286  0.00  0.00    -0.082 C 
ATOM      8  N   UNL     1       7.787  -2.745   6.865  0.00  0.00    +0.379 N 
ATOM      9  C   UNL     1       6.752  -3.293   7.750  0.00  0.00    -0.082 C 
ATOM     10  C   UNL     1       5.500  -3.621   6.932  0.00  0.00    -0.010 C 
ATOM     11  C   UNL     1       2.252  -1.576   8.476  0.00  0.00    +0.249 C 
ATOM     12  O   UNL     1       2.720  -1.268   9.555  0.00  0.00    -0.270 OA
ATOM     13  H   UNL     1       7.976  -3.403   6.124  0.00  0.00    -0.086 HD
ATOM     14  H   UNL     1       8.631  -2.587   7.394  0.00  0.00    -0.086 HD
ENDROOT
BRANCH  11  15
ATOM     15  C   UNL     1       0.826  -1.946   8.368  0.00  0.00    +0.073 A 
ATOM     16  C   UNL     1       0.097  -1.605   7.226  0.00  0.00    +0.036 A 
ATOM     17  C   UNL     1      -1.234  -1.954   7.132  0.00  0.00    +0.042 A 
ATOM     18  C   UNL     1      -1.850  -2.642   8.166  0.00  0.00    +0.023 A 
ATOM     19  C   UNL     1      -1.136  -2.983   9.299  0.00  0.00    +0.040 A 
ATOM     20  C   UNL     1       0.201  -2.644   9.406  0.00  0.00    +0.136 A 
ATOM     21  F   UNL     1       0.899  -2.983  10.511  0.00  0.00    -0.205 F 
ATOM     22 CL   UNL     1      -2.141  -1.531   5.713  0.00  0.00    -0.084 Cl
ENDBRANCH  11  15
BRANCH   1  24
ATOM     23  N   UNL     1       4.513  -3.170   3.070  0.00  0.00    -0.312 N 
ATOM     24  C   UNL     1       4.030  -2.267   3.947  0.00  0.00    +0.218 C 
ATOM     25  O   UNL     1       3.804  -1.131   3.585  0.00  0.00    -0.275 OA
ATOM     26  H   UNL     1       4.694  -4.077   3.360  0.00  0.00    +0.149 HD
BRANCH  23  27
ATOM     27  C   UNL     1       4.765  -2.780   1.681  0.00  0.00    +0.138 C 
BRANCH  27  32
ATOM     28  C   UNL     1       3.172  -5.175  -1.457  0.00  0.00    +0.074 C 
ATOM     29  C   UNL     1       4.432  -5.469  -0.641  0.00  0.00    +0.165 C 
ATOM     30  O   UNL     1       5.563  -4.823  -1.249  0.00  0.00    -0.347 OA
ATOM     31  C   UNL     1       5.700  -3.570  -0.537  0.00  0.00    +0.196 C 
ATOM     32  C   UNL     1       5.306  -3.981   0.904  0.00  0.00    +0.164 C 
ATOM     33  O   UNL     1       4.272  -4.963   0.691  0.00  0.00    -0.342 OA
ATOM     34  C   UNL     1       4.672  -6.979  -0.592  0.00  0.00    +0.074 C 
ENDBRANCH  27  32
ENDBRANCH  23  27
ENDBRANCH   1  24
TORSDOF 4
