REMARK  Name = ZINC41153293
REMARK  3 active torsions:
REMARK  status: ('A' for Active; 'I' for Inactive)
REMARK    1  A    between atoms: C_4  and  C_8
REMARK    2  A    between atoms: C_10  and  C_13
REMARK    3  A    between atoms: C_13  and  N_19
REMARK                            x       y       z     vdW  Elec       q    Type
REMARK                         _______ _______ _______ _____ _____    ______ ____
ROOT
ATOM      1  C   UNL     1       3.695  -0.686  -0.038  0.00  0.00    +0.260 A 
ATOM      2  N   UNL     1       3.853  -1.990  -0.052  0.00  0.00    -0.193 NA
ATOM      3  C   UNL     1       5.154  -2.292  -0.066  0.00  0.00    +0.161 A 
ATOM      4  N   UNL     1       5.848  -1.189  -0.060  0.00  0.00    -0.062 NA
ATOM      5  O   UNL     1       4.915  -0.119  -0.048  0.00  0.00    -0.333 OA
ENDROOT
BRANCH   1   9
ATOM      6  C   UNL     1      -0.017   1.380   0.010  0.00  0.00    +0.017 A 
ATOM      7  C   UNL     1       1.168   2.094   0.002  0.00  0.00    +0.022 A 
ATOM      8  C   UNL     1       2.378   1.430  -0.013  0.00  0.00    +0.053 A 
ATOM      9  C   UNL     1       2.404   0.033  -0.021  0.00  0.00    +0.059 A 
ATOM     10  C   UNL     1       1.205  -0.681  -0.013  0.00  0.00    +0.030 A 
ATOM     11  C   UNL     1       0.002  -0.004   0.002  0.00  0.00    +0.019 A 
ATOM     12 BR   UNL     1      -1.624  -0.970   0.012  0.00  0.00    -0.050 Br
ATOM     13 CL   UNL     1       3.864   2.328  -0.024  0.00  0.00    -0.083 Cl
ENDBRANCH   1   9
BRANCH   3  14
ATOM     14  C   UNL     1       5.727  -3.686  -0.084  0.00  0.00    -0.006 C 
ATOM     15  C   UNL     1       5.264  -4.444   1.162  0.00  0.00    -0.005 C 
ATOM     16  C   UNL     1       5.847  -5.859   1.144  0.00  0.00    -0.001 C 
ATOM     17  C   UNL     1       7.375  -5.781   1.132  0.00  0.00    -0.000 C 
ATOM     18  C   UNL     1       7.838  -5.023  -0.113  0.00  0.00    -0.001 C 
ATOM     19  C   UNL     1       7.255  -3.608  -0.095  0.00  0.00    -0.005 C 
BRANCH  14  20
ATOM     20  N   UNL     1       5.264  -4.390  -1.286  0.00  0.00    +0.387 N 
ATOM     21  H   UNL     1       5.569  -3.890  -2.108  0.00  0.00    -0.089 HD
ATOM     22  H   UNL     1       5.648  -5.323  -1.298  0.00  0.00    -0.089 HD
ATOM     23  H   UNL     1       4.256  -4.441  -1.279  0.00  0.00    -0.089 HD
ENDBRANCH  14  20
ENDBRANCH   3  14
TORSDOF 3
