REMARK  Name = ZINC42610679
REMARK  4 active torsions:
REMARK  status: ('A' for Active; 'I' for Inactive)
REMARK    1  A    between atoms: C_1  and  C_2
REMARK    2  A    between atoms: C_8  and  N_10
REMARK    3  A    between atoms: N_10  and  C_11
REMARK    4  A    between atoms: C_15  and  C_18
REMARK                            x       y       z     vdW  Elec       q    Type
REMARK                         _______ _______ _______ _____ _____    ______ ____
ROOT
ATOM      1  N   UNL     1       2.116  -0.004   1.231  0.00  0.00    -0.314 N 
ATOM      2  C   UNL     1       3.051  -0.444   0.193  0.00  0.00    +0.131 C 
ATOM      3  C   UNL     1       2.537   0.875   2.213  0.00  0.00    +0.142 A 
ATOM      4  C   UNL     1       1.730   1.118   3.326  0.00  0.00    +0.048 A 
ATOM      5  C   UNL     1       2.190   2.004   4.283  0.00  0.00    +0.038 A 
ATOM      6  C   UNL     1       3.440   2.604   4.076  0.00  0.00    +0.145 A 
ATOM      7  N   UNL     1       4.140   2.312   2.985  0.00  0.00    -0.269 N 
ATOM      8  N   UNL     1       3.713   1.485   2.102  0.00  0.00    -0.158 NA
ATOM      9  H   UNL     1       5.004   2.735   2.855  0.00  0.00    +0.189 HD
ENDROOT
BRANCH   1  16
ATOM     10  C   UNL     1       0.102   1.293  -0.397  0.00  0.00    +0.009 C 
ATOM     11  C   UNL     1       0.097  -0.214  -0.132  0.00  0.00    +0.006 C 
ATOM     12  C   UNL     1      -1.345  -0.727  -0.133  0.00  0.00    +0.005 C 
ATOM     13  C   UNL     1      -1.351  -2.234   0.132  0.00  0.00    +0.000 C 
ATOM     14  C   UNL     1      -0.711  -2.514   1.493  0.00  0.00    +0.002 C 
ATOM     15  C   UNL     1       0.731  -2.002   1.495  0.00  0.00    +0.023 C 
ATOM     16  C   UNL     1       0.736  -0.495   1.230  0.00  0.00    +0.077 C 
ENDBRANCH   1  16
BRANCH   6  17
ATOM     17  C   UNL     1       3.976   3.557   5.067  0.00  0.00    +0.404 C 
ATOM     18  O   UNL     1       5.067   4.079   4.885  0.00  0.00    -0.239 OA
ATOM     19  O   UNL     1       3.330   3.824   6.070  0.00  0.00    -0.239 OA
ENDBRANCH   6  17
TORSDOF 2
