REMARK  Name = ZINC20220960
REMARK  8 active torsions:
REMARK  status: ('A' for Active; 'I' for Inactive)
REMARK    1  A    between atoms: C_1  and  O_2
REMARK    2  A    between atoms: O_2  and  C_3
REMARK    3  A    between atoms: C_3  and  C_5
REMARK    4  A    between atoms: C_9  and  N_10
REMARK    5  A    between atoms: C_11  and  C_13
REMARK    6  A    between atoms: C_17  and  N_18
REMARK    7  A    between atoms: C_19  and  C_21
REMARK    8  A    between atoms: C_29  and  C_31
REMARK                            x       y       z     vdW  Elec       q    Type
REMARK                         _______ _______ _______ _____ _____    ______ ____
ROOT
ATOM      1  C   UNL     1       2.564   0.772   0.188  0.00  0.00    +0.065 A 
ATOM      2  C   UNL     1       1.707  -0.385   0.083  0.00  0.00    +0.022 A 
ATOM      3  C   UNL     1       0.405  -0.165  -0.170  0.00  0.00    +0.048 A 
ATOM      4  S   UNL     1       0.302   1.610  -0.272  0.00  0.00    -0.081 S 
ATOM      5  C   UNL     1       1.961   2.013   0.018  0.00  0.00    +0.084 A 
ENDROOT
BRANCH   1   7
ATOM      6  N   UNL     1       4.548  -0.575   0.620  0.00  0.00    -0.275 N 
ATOM      7  C   UNL     1       3.998   0.645   0.461  0.00  0.00    +0.251 C 
ATOM      8  O   UNL     1       4.693   1.641   0.543  0.00  0.00    -0.270 OA
ATOM      9  H   UNL     1       3.921  -1.475   0.545  0.00  0.00    +0.156 HD
BRANCH   6  14
ATOM     10  C   UNL     1       6.648  -1.855   1.069  0.00  0.00    +0.087 A 
ATOM     11  C   UNL     1       8.059  -1.685   1.324  0.00  0.00    +0.024 A 
ATOM     12  C   UNL     1       8.531  -0.427   1.352  0.00  0.00    +0.048 A 
ATOM     13  S   UNL     1       7.085   0.561   1.030  0.00  0.00    -0.081 S 
ATOM     14  C   UNL     1       5.904  -0.695   0.877  0.00  0.00    +0.086 A 
BRANCH  10  15
ATOM     15  C   UNL     1       6.030  -3.181   1.017  0.00  0.00    +0.341 C 
ATOM     16  O   UNL     1       4.838  -3.289   0.801  0.00  0.00    -0.245 OA
BRANCH  15  18
ATOM     17  C   UNL     1       6.104  -5.566   1.143  0.00  0.00    +0.280 C 
ATOM     18  O   UNL     1       6.783  -4.284   1.209  0.00  0.00    -0.464 OA
ENDBRANCH  15  18
ENDBRANCH  10  15
ENDBRANCH   6  14
ENDBRANCH   1   7
BRANCH   5  19
ATOM     19  N   UNL     1       2.546   3.269   0.068  0.00  0.00    -0.279 N 
ATOM     20  C   UNL     1       1.794   4.371  -0.123  0.00  0.00    +0.224 C 
ATOM     21  O   UNL     1       0.605   4.264  -0.339  0.00  0.00    -0.275 OA
ATOM     22  H   UNL     1       3.624   3.366   0.264  0.00  0.00    +0.155 HD
BRANCH  20  23
ATOM     23  C   UNL     1       2.430   5.736  -0.069  0.00  0.00    +0.120 C 
ATOM     24  C   UNL     1       1.978   6.505   1.209  0.00  0.00    +0.131 C 
ATOM     25  C   UNL     1       0.439   6.281   1.302  0.00  0.00    +0.035 C 
ATOM     26  C   UNL     1      -0.107   7.170   0.155  0.00  0.00    +0.035 C 
ATOM     27  C   UNL     1       1.189   7.790  -0.448  0.00  0.00    +0.133 C 
ATOM     28  C   UNL     1       1.901   6.635  -1.215  0.00  0.00    +0.145 C 
ATOM     29  O   UNL     1       2.054   7.894   0.748  0.00  0.00    -0.372 OA
BRANCH  28  30
ATOM     30  C   UNL     1       0.900   5.889  -2.060  0.00  0.00    +0.362 C 
ATOM     31  O   UNL     1      -0.166   6.394  -2.321  0.00  0.00    -0.246 OA
ATOM     32  O   UNL     1       1.193   4.663  -2.522  0.00  0.00    -0.246 OA
ENDBRANCH  28  30
ENDBRANCH  20  23
ENDBRANCH   5  19
TORSDOF 7
