REMARK  Name = ZINC67447283
REMARK  3 active torsions:
REMARK  status: ('A' for Active; 'I' for Inactive)
REMARK    1  A    between atoms: C_1  and  C_2
REMARK    2  A    between atoms: C_4  and  C_24
REMARK    3  A    between atoms: C_6  and  N_8
REMARK                            x       y       z     vdW  Elec       q    Type
REMARK                         _______ _______ _______ _____ _____    ______ ____
ROOT
ATOM      1  N   UNL     1       0.050  -2.657   2.389  0.00  0.00    -0.315 N 
ATOM      2  C   UNL     1       0.040  -1.919   3.659  0.00  0.00    +0.109 C 
ATOM      3  C   UNL     1      -1.116  -2.437   4.521  0.00  0.00    +0.054 C 
ATOM      4  C   UNL     1      -0.995  -3.953   4.673  0.00  0.00    +0.112 C 
ATOM      5  C   UNL     1      -1.081  -4.618   3.298  0.00  0.00    +0.054 C 
ATOM      6  C   UNL     1       0.070  -4.125   2.424  0.00  0.00    +0.109 C 
ATOM      7  C   UNL     1      -2.105  -4.466   5.552  0.00  0.00    +0.241 C 
ATOM      8  O   UNL     1      -3.164  -3.877   5.588  0.00  0.00    -0.273 OA
ATOM      9  N   UNL     1      -1.933  -5.573   6.299  0.00  0.00    -0.282 N 
ATOM     10  C   UNL     1      -0.679  -6.190   6.387  0.00  0.00    +0.055 A 
ATOM     11  C   UNL     1      -0.547  -7.436   6.980  0.00  0.00    +0.025 A 
ATOM     12  C   UNL     1       0.697  -8.036   7.051  0.00  0.00    +0.002 A 
ATOM     13  C   UNL     1       1.811  -7.401   6.534  0.00  0.00    +0.002 A 
ATOM     14  C   UNL     1       1.688  -6.156   5.942  0.00  0.00    +0.025 A 
ATOM     15  C   UNL     1       0.447  -5.549   5.870  0.00  0.00    +0.049 A 
ATOM     16  N   UNL     1       0.298  -4.281   5.291  0.00  0.00    -0.329 N 
ATOM     17  H   UNL     1      -2.686  -5.948   6.782  0.00  0.00    +0.155 HD
ATOM     18  H   UNL     1       1.025  -3.639   5.298  0.00  0.00    +0.147 HD
ENDROOT
BRANCH   1  24
ATOM     19  C   UNL     1      -0.461   1.462  -0.007  0.00  0.00    +0.088 C 
ATOM     20  C   UNL     1      -0.204  -0.023  -0.006  0.00  0.00    +0.128 A 
ATOM     21  N   UNL     1      -0.000  -0.639  -1.153  0.00  0.00    -0.237 NA
ATOM     22  C   UNL     1       0.230  -1.944  -1.197  0.00  0.00    +0.048 A 
ATOM     23  C   UNL     1       0.255  -2.663  -0.018  0.00  0.00    +0.067 A 
ATOM     24  C   UNL     1       0.035  -1.980   1.180  0.00  0.00    +0.125 A 
ATOM     25  N   UNL     1      -0.184  -0.669   1.142  0.00  0.00    -0.218 NA
BRANCH  22  26
ATOM     26  C   UNL     1       0.460  -2.634  -2.517  0.00  0.00    +0.021 C 
ATOM     27  C   UNL     1       1.482  -3.760  -2.333  0.00  0.00    +0.006 C 
ATOM     28  C   UNL     1       1.650  -4.505  -3.661  0.00  0.00    -0.018 C 
ATOM     29  C   UNL     1       0.288  -5.027  -4.123  0.00  0.00    -0.083 C 
ATOM     30  N   UNL     1      -0.636  -3.900  -4.306  0.00  0.00    +0.379 N 
ATOM     31  C   UNL     1      -0.858  -3.224  -3.022  0.00  0.00    -0.073 C 
ATOM     32  H   UNL     1      -0.240  -3.246  -4.964  0.00  0.00    -0.086 HD
ATOM     33  H   UNL     1      -1.516  -4.242  -4.661  0.00  0.00    -0.086 HD
ENDBRANCH  22  26
ENDBRANCH   1  24
TORSDOF 2
