REMARK  Name = ZINC60992888
REMARK  7 active torsions:
REMARK  status: ('A' for Active; 'I' for Inactive)
REMARK    1  A    between atoms: C_1  and  C_2
REMARK    2  A    between atoms: C_2  and  O_3
REMARK    3  A    between atoms: O_3  and  C_4
REMARK    4  A    between atoms: C_9  and  N_10
REMARK    5  A    between atoms: N_10  and  C_11
REMARK    6  A    between atoms: C_11  and  C_12
REMARK    7  A    between atoms: C_14  and  C_17
REMARK                            x       y       z     vdW  Elec       q    Type
REMARK                         _______ _______ _______ _____ _____    ______ ____
ROOT
ATOM      1  C   UNL     1       2.624  -2.017  -4.604  0.00  0.00    +0.200 C 
ENDROOT
BRANCH   1   2
ATOM      2  C   UNL     1       3.105  -0.888  -5.478  0.00  0.00    +0.245 A 
ATOM      3  N   UNL     1       4.271  -0.311  -5.403  0.00  0.00    -0.190 NA
ATOM      4  C   UNL     1       4.366   0.657  -6.332  0.00  0.00    +0.202 A 
ATOM      5  N   UNL     1       3.245   0.699  -7.010  0.00  0.00    -0.056 NA
ATOM      6  O   UNL     1       2.409  -0.312  -6.467  0.00  0.00    -0.336 OA
BRANCH   4   7
ATOM      7  C   UNL     1       5.544   1.533  -6.553  0.00  0.00    +0.024 A 
ATOM      8  C   UNL     1       6.683   1.385  -5.764  0.00  0.00    +0.012 A 
ATOM      9  C   UNL     1       7.775   2.201  -5.972  0.00  0.00    +0.002 A 
ATOM     10  C   UNL     1       7.742   3.167  -6.962  0.00  0.00    +0.020 A 
ATOM     11  C   UNL     1       6.613   3.319  -7.749  0.00  0.00    +0.042 A 
ATOM     12  C   UNL     1       5.516   2.502  -7.553  0.00  0.00    +0.031 A 
ATOM     13 CL   UNL     1       6.579   4.534  -8.989  0.00  0.00    -0.084 Cl
ENDBRANCH   4   7
ENDBRANCH   1   2
BRANCH   1  14
ATOM     14  N   UNL     1       1.952  -1.469  -3.424  0.00  0.00    -0.332 N 
ATOM     15  H   UNL     1       1.877  -0.508  -3.310  0.00  0.00    +0.147 HD
BRANCH  14  21
ATOM     16  C   UNL     1       0.777  -1.811  -1.336  0.00  0.00    +0.141 A 
ATOM     17  C   UNL     1       0.244  -2.669  -0.388  0.00  0.00    +0.047 A 
ATOM     18  C   UNL     1       0.353  -4.037  -0.555  0.00  0.00    +0.004 A 
ATOM     19  C   UNL     1       0.993  -4.554  -1.666  0.00  0.00    +0.002 A 
ATOM     20  C   UNL     1       1.527  -3.704  -2.617  0.00  0.00    +0.026 A 
ATOM     21  C   UNL     1       1.417  -2.331  -2.459  0.00  0.00    +0.070 A 
BRANCH  16  22
ATOM     22  O   UNL     1       0.671  -0.465  -1.174  0.00  0.00    -0.490 OA
BRANCH  22  24
ATOM     23  C   UNL     1      -0.019   1.526   0.010  0.00  0.00    +0.048 C 
ATOM     24  C   UNL     1       0.002  -0.004   0.002  0.00  0.00    +0.226 C 
ENDBRANCH  22  24
ENDBRANCH  16  22
ENDBRANCH  14  21
ENDBRANCH   1  14
TORSDOF 6
