REMARK  Name = ZINC25018388
REMARK  13 active torsions:
REMARK  status: ('A' for Active; 'I' for Inactive)
REMARK    1  A    between atoms: C_1  and  C_2
REMARK    2  A    between atoms: C_2  and  C_3
REMARK    3  A    between atoms: C_2  and  C_4
REMARK    4  A    between atoms: C_4  and  N_5
REMARK    5  A    between atoms: C_6  and  N_30
REMARK    6  A    between atoms: C_7  and  C_14
REMARK    7  A    between atoms: N_10  and  C_13
REMARK    8  A    between atoms: C_14  and  C_16
REMARK    9  A    between atoms: C_16  and  O_17
REMARK   10  A    between atoms: O_17  and  C_18
REMARK   11  A    between atoms: C_18  and  C_20
REMARK   12  A    between atoms: C_23  and  N_27
REMARK   13  A    between atoms: C_25  and  N_26
REMARK                            x       y       z     vdW  Elec       q    Type
REMARK                         _______ _______ _______ _____ _____    ______ ____
ROOT
ATOM      1  C   UNL     1      -1.907  -5.223  -2.742  0.00  0.00    +0.209 C 
ATOM      2  O   UNL     1      -2.766  -4.611  -3.344  0.00  0.00    -0.288 OA
ENDROOT
BRANCH   1   5
ATOM      3  N   UNL     1      -0.186  -2.519  -0.921  0.00  0.00    -0.281 N 
ATOM      4  C   UNL     1      -1.053  -3.136  -1.777  0.00  0.00    +0.116 A 
ATOM      5  C   UNL     1      -1.032  -4.538  -1.872  0.00  0.00    +0.123 A 
ATOM      6  C   UNL     1      -0.070  -5.268  -1.036  0.00  0.00    +0.269 A 
ATOM      7  O   UNL     1      -0.007  -6.483  -1.078  0.00  0.00    -0.267 OA
ATOM      8  N   UNL     1       0.744  -4.564  -0.222  0.00  0.00    -0.263 N 
ATOM      9  C   UNL     1       0.681  -3.224  -0.178  0.00  0.00    +0.333 A 
ATOM     10  O   UNL     1       1.435  -2.627   0.565  0.00  0.00    -0.246 OA
ATOM     11  C   UNL     1       1.712  -5.271   0.620  0.00  0.00    +0.157 C 
BRANCH   4  12
ATOM     12  N   UNL     1      -1.922  -2.406  -2.527  0.00  0.00    -0.344 N 
ATOM     13  H   UNL     1      -2.616  -2.912  -3.214  0.00  0.00    +0.144 HD
ATOM     14  H   UNL     1      -1.931  -1.309  -2.446  0.00  0.00    +0.144 HD
ENDBRANCH   4  12
BRANCH   3  15
ATOM     15  C   UNL     1      -0.201  -1.058  -0.815  0.00  0.00    +0.131 C 
BRANCH  15  17
ATOM     16  C   UNL     1      -1.295   0.891   0.302  0.00  0.00    +0.009 C 
ATOM     17  C   UNL     1      -1.187  -0.635   0.276  0.00  0.00    +0.003 C 
ATOM     18  C   UNL     1      -0.689  -1.134   1.634  0.00  0.00    +0.009 C 
ENDBRANCH  15  17
ENDBRANCH   3  15
ENDBRANCH   1   5
BRANCH   1  19
ATOM     19  C   UNL     1      -1.774  -6.713  -2.925  0.00  0.00    +0.312 C 
BRANCH  19  20
ATOM     20  O   UNL     1      -2.781  -7.177  -3.863  0.00  0.00    -0.453 OA
BRANCH  20  21
ATOM     21  C   UNL     1      -2.799  -8.496  -4.138  0.00  0.00    +0.341 C 
ATOM     22  O   UNL     1      -1.996  -9.238  -3.609  0.00  0.00    -0.245 OA
BRANCH  21  23
ATOM     23  C   UNL     1      -3.793  -9.038  -5.081  0.00  0.00    +0.080 A 
ATOM     24  C   UNL     1      -4.641  -8.175  -5.782  0.00  0.00    +0.019 A 
ATOM     25  C   UNL     1      -5.568  -8.689  -6.662  0.00  0.00    +0.033 A 
ATOM     26  C   UNL     1      -5.666 -10.058  -6.856  0.00  0.00    +0.128 A 
ATOM     27  C   UNL     1      -4.837 -10.922  -6.172  0.00  0.00    +0.056 A 
ATOM     28  C   UNL     1      -3.891 -10.424  -5.285  0.00  0.00    +0.041 A 
BRANCH  28  29
ATOM     29  N   UNL     1      -3.051 -11.291  -4.600  0.00  0.00    -0.357 N 
ATOM     30  H   UNL     1      -3.131 -12.376  -4.762  0.00  0.00    +0.142 HD
ATOM     31  H   UNL     1      -2.306 -10.893  -3.895  0.00  0.00    +0.142 HD
ENDBRANCH  28  29
BRANCH  26  32
ATOM     32  N   UNL     1      -6.667 -10.596  -7.805  0.00  0.00    +0.056 N 
ATOM     33  O   UNL     1      -7.401  -9.836  -8.412  0.00  0.00    -0.126 OA
ATOM     34  O   UNL     1      -6.757 -11.798  -7.979  0.00  0.00    -0.126 OA
ENDBRANCH  26  32
ENDBRANCH  21  23
ENDBRANCH  20  21
ENDBRANCH  19  20
ENDBRANCH   1  19
TORSDOF 10
