REMARK  Name = ZINC40811578
REMARK  10 active torsions:
REMARK  status: ('A' for Active; 'I' for Inactive)
REMARK    1  A    between atoms: C_1  and  C_2
REMARK    2  A    between atoms: C_7  and  C_8
REMARK    3  A    between atoms: N_10  and  N_11
REMARK    4  A    between atoms: C_18  and  C_29
REMARK    5  A    between atoms: C_19  and  C_21
REMARK    6  A    between atoms: N_23  and  N_24
REMARK    7  A    between atoms: N_24  and  C_25
REMARK    8  A    between atoms: C_25  and  C_26
REMARK    9  A    between atoms: C_25  and  C_27
REMARK   10  A    between atoms: C_25  and  C_28
REMARK                            x       y       z     vdW  Elec       q    Type
REMARK                         _______ _______ _______ _____ _____    ______ ____
ROOT
ATOM      1  N   UNL     1       0.573   0.035   4.838  0.00  0.00    -0.184 NA
ATOM      2  C   UNL     1       0.788  -0.617   5.939  0.00  0.00    +0.070 C 
ATOM      3  C   UNL     1       0.937  -2.131   5.975  0.00  0.00    +0.058 C 
ATOM      4  C   UNL     1       0.164  -2.661   7.188  0.00  0.00    +0.014 C 
ATOM      5  C   UNL     1       0.785  -2.150   8.490  0.00  0.00    +0.075 C 
ATOM      6  C   UNL     1       0.906  -0.648   8.432  0.00  0.00    +0.115 A 
ATOM      7  C   UNL     1       0.911   0.058   7.250  0.00  0.00    +0.042 A 
ATOM      8  C   UNL     1       1.041   1.415   7.570  0.00  0.00    +0.009 A 
ATOM      9  C   UNL     1       1.119   1.480   8.934  0.00  0.00    +0.194 A 
ATOM     10  O   UNL     1       1.029   0.223   9.431  0.00  0.00    -0.454 OA
ATOM     11  C   UNL     1       1.087   2.571   6.605  0.00  0.00    +0.048 C 
ENDROOT
BRANCH   1  14
ATOM     12  C   UNL     1       0.242   0.021   2.481  0.00  0.00    +0.264 C 
ATOM     13  O   UNL     1       0.135   1.232   2.502  0.00  0.00    -0.268 OA
ATOM     14  N   UNL     1       0.465  -0.656   3.624  0.00  0.00    -0.203 N 
ATOM     15  H   UNL     1       0.550  -1.622   3.607  0.00  0.00    +0.178 HD
BRANCH  12  22
ATOM     16  C   UNL     1      -0.514   1.452   0.082  0.00  0.00    +0.044 C 
ATOM     17  C   UNL     1      -0.236  -0.029   0.036  0.00  0.00    -0.038 A 
ATOM     18  C   UNL     1      -0.335  -0.714  -1.157  0.00  0.00    +0.004 A 
ATOM     19  C   UNL     1      -0.080  -2.073  -1.200  0.00  0.00    +0.000 A 
ATOM     20  C   UNL     1       0.276  -2.754  -0.049  0.00  0.00    +0.001 A 
ATOM     21  C   UNL     1       0.378  -2.081   1.150  0.00  0.00    +0.013 A 
ATOM     22  C   UNL     1       0.128  -0.708   1.200  0.00  0.00    +0.041 A 
ENDBRANCH  12  22
ENDBRANCH   1  14
BRANCH   9  23
ATOM     23  C   UNL     1       1.263   2.707   9.726  0.00  0.00    +0.293 C 
ATOM     24  O   UNL     1       1.323   3.787   9.169  0.00  0.00    -0.266 OA
ATOM     25  N   UNL     1       1.328   2.637  11.070  0.00  0.00    -0.244 N 
ATOM     26  H   UNL     1       1.280   1.776  11.514  0.00  0.00    +0.169 HD
BRANCH  25  27
ATOM     27  N   UNL     1       1.462   3.779  11.807  0.00  0.00    -0.235 NA
ATOM     28  H   UNL     1       2.276   4.302  11.520  0.00  0.00    +0.145 HD
BRANCH  27  29
ATOM     29  C   UNL     1       1.513   3.475  13.244  0.00  0.00    +0.028 C 
ATOM     30  C   UNL     1       2.707   2.563  13.530  0.00  0.00    +0.029 C 
ATOM     31  C   UNL     1       1.663   4.776  14.035  0.00  0.00    +0.029 C 
ATOM     32  C   UNL     1       0.221   2.770  13.662  0.00  0.00    +0.029 C 
ENDBRANCH  27  29
ENDBRANCH  25  27
ENDBRANCH   9  23
TORSDOF 5
