REMARK  Name = ZINC17604023
REMARK  9 active torsions:
REMARK  status: ('A' for Active; 'I' for Inactive)
REMARK    1  A    between atoms: C_1  and  C_2
REMARK    2  A    between atoms: C_5  and  C_8
REMARK    3  A    between atoms: C_8  and  C_10
REMARK    4  A    between atoms: C_8  and  N_27
REMARK    5  A    between atoms: C_10  and  C_11
REMARK    6  A    between atoms: N_13  and  N_14
REMARK    7  A    between atoms: C_15  and  C_17
REMARK    8  A    between atoms: C_18  and  C_26
REMARK    9  A    between atoms: C_28  and  C_30
REMARK                            x       y       z     vdW  Elec       q    Type
REMARK                         _______ _______ _______ _____ _____    ______ ____
ROOT
ATOM      1  C   UNL     1       1.689  -6.139   0.125  0.00  0.00    +0.231 C 
ATOM      2  O   UNL     1       0.717  -6.845  -0.043  0.00  0.00    -0.274 OA
ATOM      3  N   UNL     1       2.908  -6.694   0.273  0.00  0.00    -0.234 N 
ATOM      4  H   UNL     1       3.685  -6.130   0.407  0.00  0.00    +0.173 HD
ENDROOT
BRANCH   3   5
ATOM      5  N   UNL     1       3.053  -8.087   0.231  0.00  0.00    -0.228 N 
ATOM      6  C   UNL     1       4.272  -8.643   0.378  0.00  0.00    +0.296 C 
ATOM      7  O   UNL     1       5.246  -7.935   0.547  0.00  0.00    -0.265 OA
ATOM      8  H   UNL     1       2.275  -8.652   0.097  0.00  0.00    +0.173 HD
BRANCH   6   9
ATOM      9  C   UNL     1       4.424 -10.104   0.335  0.00  0.00    +0.195 A 
ATOM     10  C   UNL     1       5.597 -10.772   0.476  0.00  0.00    +0.008 A 
ATOM     11  C   UNL     1       5.271 -12.193   0.365  0.00  0.00    +0.024 A 
ATOM     12  C   UNL     1       6.019 -13.372   0.420  0.00  0.00    +0.012 A 
ATOM     13  C   UNL     1       5.394 -14.578   0.275  0.00  0.00    +0.001 A 
ATOM     14  C   UNL     1       4.022 -14.639   0.072  0.00  0.00    +0.004 A 
ATOM     15  C   UNL     1       3.266 -13.489   0.013  0.00  0.00    +0.047 A 
ATOM     16  C   UNL     1       3.880 -12.250   0.159  0.00  0.00    +0.136 A 
ATOM     17  O   UNL     1       3.417 -10.985   0.154  0.00  0.00    -0.450 OA
ATOM     18  C   UNL     1       6.961 -10.171   0.702  0.00  0.00    +0.048 C 
ENDBRANCH   6   9
ENDBRANCH   3   5
BRANCH   1  19
ATOM     19  C   UNL     1       1.533  -4.641   0.170  0.00  0.00    +0.124 C 
BRANCH  19  20
ATOM     20  C   UNL     1       0.059  -4.275  -0.021  0.00  0.00    +0.112 C 
BRANCH  20  25
ATOM     21  C   UNL     1      -0.480   1.470  -0.322  0.00  0.00    +0.044 C 
ATOM     22  C   UNL     1      -0.339  -0.028  -0.243  0.00  0.00    -0.050 A 
ATOM     23  C   UNL     1      -0.384  -0.788  -1.397  0.00  0.00    +0.004 A 
ATOM     24  C   UNL     1      -0.255  -2.162  -1.326  0.00  0.00    +0.006 A 
ATOM     25  C   UNL     1      -0.080  -2.777  -0.100  0.00  0.00    -0.027 A 
ATOM     26  C   UNL     1      -0.035  -2.017   1.054  0.00  0.00    +0.006 A 
ATOM     27  C   UNL     1      -0.160  -0.642   0.982  0.00  0.00    +0.004 A 
ENDBRANCH  20  25
BRANCH  20  28
ATOM     28  N   UNL     1      -0.720  -4.780   1.112  0.00  0.00    -0.308 N 
ATOM     29  C   UNL     1      -2.038  -5.021   0.969  0.00  0.00    +0.210 C 
ATOM     30  O   UNL     1      -2.561  -4.907  -0.120  0.00  0.00    -0.276 OA
ATOM     31  C   UNL     1      -2.863  -5.432   2.161  0.00  0.00    +0.109 C 
ATOM     32  H   UNL     1      -0.287  -4.941   1.965  0.00  0.00    +0.149 HD
ENDBRANCH  20  28
ENDBRANCH  19  20
ENDBRANCH   1  19
TORSDOF 6
