REMARK  Name = ZINC00845161
REMARK  10 active torsions:
REMARK  status: ('A' for Active; 'I' for Inactive)
REMARK    1  A    between atoms: C_1  and  C_2
REMARK    2  A    between atoms: C_4  and  C_28
REMARK    3  A    between atoms: N_6  and  C_7
REMARK    4  A    between atoms: C_7  and  C_8
REMARK    5  A    between atoms: N_10  and  C_11
REMARK    6  A    between atoms: C_12  and  C_25
REMARK    7  A    between atoms: C_17  and  C_21
REMARK    8  A    between atoms: C_21  and  C_22
REMARK    9  A    between atoms: C_21  and  C_23
REMARK   10  A    between atoms: C_21  and  C_24
REMARK                            x       y       z     vdW  Elec       q    Type
REMARK                         _______ _______ _______ _____ _____    ______ ____
ROOT
ATOM      1  C   UNL     1      -1.865  -1.129   1.200  0.00  0.00    +0.084 A 
ATOM      2  C   UNL     1      -1.258  -0.754   0.010  0.00  0.00    +0.068 A 
ATOM      3  C   UNL     1      -1.920  -1.129  -1.228  0.00  0.00    -0.023 A 
ATOM      4  C   UNL     1      -3.069  -1.821  -1.079  0.00  0.00    -0.004 A 
ATOM      5  S   UNL     1      -3.285  -1.969   0.672  0.00  0.00    -0.077 S 
ATOM      6  C   UNL     1      -3.960  -2.339  -2.166  0.00  0.00    +0.046 C 
ATOM      7  C   UNL     1      -3.567  -1.651  -3.482  0.00  0.00    -0.000 C 
ATOM      8  C   UNL     1      -2.045  -1.717  -3.638  0.00  0.00    +0.009 C 
ATOM      9  C   UNL     1      -1.376  -0.799  -2.613  0.00  0.00    +0.037 C 
ENDROOT
BRANCH   2  10
ATOM     10  C   UNL     1       0.002  -0.004   0.002  0.00  0.00    +0.244 C 
ATOM     11  O   UNL     1       1.064  -0.598  -0.011  0.00  0.00    -0.270 OA
ATOM     12  N   UNL     1      -0.016   1.344   0.009  0.00  0.00    -0.325 N 
ATOM     13  H   UNL     1       0.817   1.840   0.004  0.00  0.00    +0.145 HD
ATOM     14  H   UNL     1      -0.863   1.817   0.016  0.00  0.00    +0.145 HD
ENDBRANCH   2  10
BRANCH   1  17
ATOM     15  C   UNL     1      -2.167  -1.334   3.540  0.00  0.00    +0.239 C 
ATOM     16  O   UNL     1      -3.197  -1.944   3.343  0.00  0.00    -0.273 OA
ATOM     17  N   UNL     1      -1.438  -0.888   2.498  0.00  0.00    -0.278 N 
ATOM     18  H   UNL     1      -0.615  -0.400   2.655  0.00  0.00    +0.155 HD
BRANCH  15  19
ATOM     19  C   UNL     1      -1.704  -1.073   4.950  0.00  0.00    +0.239 C 
BRANCH  19  25
ATOM     20  C   UNL     1      -1.587  -3.955   6.085  0.00  0.00    +0.065 C 
ATOM     21  C   UNL     1      -2.623  -2.905   6.396  0.00  0.00    +0.037 A 
ATOM     22  C   UNL     1      -3.680  -3.049   7.229  0.00  0.00    +0.056 A 
ATOM     23  C   UNL     1      -4.389  -1.844   7.236  0.00  0.00    +0.165 A 
ATOM     24  N   UNL     1      -3.777  -1.004   6.441  0.00  0.00    -0.167 NA
ATOM     25  N   UNL     1      -2.662  -1.653   5.894  0.00  0.00    -0.259 N 
BRANCH  23  26
ATOM     26  C   UNL     1      -5.640  -1.559   8.027  0.00  0.00    +0.436 C 
ATOM     27  F   UNL     1      -5.291  -1.044   9.280  0.00  0.00    -0.164 F 
ATOM     28  F   UNL     1      -6.424  -0.625   7.341  0.00  0.00    -0.164 F 
ATOM     29  F   UNL     1      -6.365  -2.743   8.195  0.00  0.00    -0.164 F 
ENDBRANCH  23  26
ENDBRANCH  19  25
ENDBRANCH  15  19
ENDBRANCH   1  17
BRANCH   7  30
ATOM     30  C   UNL     1      -4.234  -2.369  -4.656  0.00  0.00    -0.035 C 
ATOM     31  C   UNL     1      -5.754  -2.316  -4.489  0.00  0.00    +0.011 C 
ATOM     32  C   UNL     1      -3.841  -1.682  -5.965  0.00  0.00    +0.011 C 
ATOM     33  C   UNL     1      -3.776  -3.828  -4.688  0.00  0.00    +0.011 C 
ENDBRANCH   7  30
TORSDOF 6
