REMARK  Name = ZINC64733836
REMARK  9 active torsions:
REMARK  status: ('A' for Active; 'I' for Inactive)
REMARK    1  A    between atoms: C_1  and  C_2
REMARK    2  A    between atoms: C_2  and  C_3
REMARK    3  A    between atoms: C_2  and  C_4
REMARK    4  A    between atoms: C_4  and  C_6
REMARK    5  A    between atoms: C_4  and  N_17
REMARK    6  A    between atoms: C_18  and  C_20
REMARK    7  A    between atoms: C_20  and  N_21
REMARK    8  A    between atoms: C_24  and  C_29
REMARK    9  A    between atoms: C_29  and  C_30
REMARK                            x       y       z     vdW  Elec       q    Type
REMARK                         _______ _______ _______ _____ _____    ______ ____
ROOT
ATOM      1  C   UNL     1      -1.271  -4.184   1.155  0.00  0.00    +0.213 C 
ENDROOT
BRANCH   1   2
ATOM      2  N   UNL     1      -1.131  -4.678   2.527  0.00  0.00    -0.216 N 
ATOM      3  C   UNL     1       0.051  -4.913   3.130  0.00  0.00    +0.244 C 
ATOM      4  O   UNL     1       1.157  -4.761   2.657  0.00  0.00    -0.273 OA
ATOM      5  C   UNL     1      -0.290  -5.405   4.522  0.00  0.00    +0.165 C 
ATOM      6  N   UNL     1      -1.763  -5.390   4.544  0.00  0.00    -0.287 N 
ATOM      7  C   UNL     1      -2.161  -4.947   3.338  0.00  0.00    +0.310 C 
ATOM      8  O   UNL     1      -3.325  -4.809   3.019  0.00  0.00    -0.252 OA
ATOM      9  H   UNL     1      -2.334  -5.646   5.284  0.00  0.00    +0.151 HD
BRANCH   5  10
ATOM     10  C   UNL     1       0.240  -6.825   4.736  0.00  0.00    +0.065 C 
BRANCH  10  11
ATOM     11  C   UNL     1      -0.004  -7.243   6.163  0.00  0.00    -0.039 C 
ATOM     12  C   UNL     1      -1.052  -7.957   6.633  0.00  0.00    -0.001 A 
ATOM     13  C   UNL     1      -2.234  -8.534   5.983  0.00  0.00    +0.010 A 
ATOM     14  C   UNL     1      -3.131  -9.212   6.734  0.00  0.00    +0.001 A 
ATOM     15  C   UNL     1      -2.961  -9.375   8.116  0.00  0.00    +0.002 A 
ATOM     16  C   UNL     1      -1.902  -8.873   8.785  0.00  0.00    +0.026 A 
ATOM     17  C   UNL     1      -0.895  -8.143   8.094  0.00  0.00    +0.043 A 
ATOM     18  N   UNL     1       0.206  -7.567   8.509  0.00  0.00    -0.380 N 
ATOM     19  C   UNL     1       0.877  -6.954   7.358  0.00  0.00    +0.144 C 
ATOM     20  H   UNL     1       0.526  -7.552   9.425  0.00  0.00    +0.160 HD
ENDBRANCH  10  11
ENDBRANCH   5  10
ENDBRANCH   1   2
BRANCH   1  22
ATOM     21  N   UNL     1      -1.413  -1.998   0.005  0.00  0.00    -0.307 N 
ATOM     22  C   UNL     1      -1.292  -2.677   1.163  0.00  0.00    +0.231 C 
ATOM     23  O   UNL     1      -1.198  -2.075   2.212  0.00  0.00    -0.274 OA
ATOM     24  H   UNL     1      -1.488  -2.480  -0.834  0.00  0.00    +0.149 HD
BRANCH  21  25
ATOM     25  C   UNL     1      -1.433  -0.534   0.013  0.00  0.00    +0.106 C 
BRANCH  25  26
ATOM     26  C   UNL     1      -2.162  -0.034  -1.208  0.00  0.00    -0.023 A 
ATOM     27  C   UNL     1      -1.980  -0.665  -2.425  0.00  0.00    +0.009 A 
ATOM     28  C   UNL     1      -2.646  -0.212  -3.550  0.00  0.00    +0.050 A 
ATOM     29  C   UNL     1      -3.497   0.875  -3.453  0.00  0.00    +0.162 A 
ATOM     30  C   UNL     1      -3.680   1.508  -2.231  0.00  0.00    +0.162 A 
ATOM     31  C   UNL     1      -3.016   1.050  -1.106  0.00  0.00    +0.055 A 
ATOM     32  O   UNL     1      -4.522   2.578  -2.146  0.00  0.00    -0.488 OA
ATOM     33  C   UNL     1      -4.093   3.766  -2.816  0.00  0.00    +0.232 C 
ATOM     34  C   UNL     1      -4.476   3.724  -4.286  0.00  0.00    +0.082 C 
ATOM     35  C   UNL     1      -3.760   2.614  -5.040  0.00  0.00    +0.232 C 
ATOM     36  O   UNL     1      -4.162   1.331  -4.554  0.00  0.00    -0.488 OA
ENDBRANCH  25  26
BRANCH  25  38
ATOM     37  C   UNL     1      -0.019   1.526   0.010  0.00  0.00    +0.009 C 
ATOM     38  C   UNL     1       0.002  -0.004   0.002  0.00  0.00    +0.008 C 
ATOM     39  C   UNL     1       0.742  -0.511   1.242  0.00  0.00    +0.009 C 
ENDBRANCH  25  38
ENDBRANCH  21  25
ENDBRANCH   1  22
TORSDOF 7
