REMARK  Name = ZINC31297002
REMARK  7 active torsions:
REMARK  status: ('A' for Active; 'I' for Inactive)
REMARK    1  A    between atoms: C_1  and  N_2
REMARK    2  A    between atoms: N_11  and  C_12
REMARK    3  A    between atoms: C_12  and  C_14
REMARK    4  A    between atoms: C_14  and  C_15
REMARK    5  A    between atoms: C_15  and  C_16
REMARK    6  A    between atoms: C_16  and  N_17
REMARK    7  A    between atoms: C_18  and  C_20
REMARK                            x       y       z     vdW  Elec       q    Type
REMARK                         _______ _______ _______ _____ _____    ______ ____
ROOT
ATOM      1  C   UNL     1      -2.862   7.524   0.067  0.00  0.00    +0.238 C 
ATOM      2  O   UNL     1      -1.691   7.850   0.058  0.00  0.00    -0.274 OA
ENDROOT
BRANCH   1  13
ATOM      3  C   UNL     1      -3.727   3.361   0.055  0.00  0.00    +0.151 C 
ATOM      4  N   UNL     1      -2.387   3.953   0.045  0.00  0.00    -0.324 N 
ATOM      5  C   UNL     1      -1.272   3.137   0.030  0.00  0.00    +0.057 A 
ATOM      6  C   UNL     1      -1.219   1.734   0.017  0.00  0.00    +0.027 A 
ATOM      7  C   UNL     1      -0.013   1.076   0.008  0.00  0.00    +0.002 A 
ATOM      8  C   UNL     1       1.185   1.772   0.000  0.00  0.00    +0.001 A 
ATOM      9  C   UNL     1       1.163   3.155   0.007  0.00  0.00    +0.017 A 
ATOM     10  C   UNL     1      -0.044   3.814   0.022  0.00  0.00    +0.039 A 
ATOM     11  S   UNL     1      -0.522   5.524   0.035  0.00  0.00    -0.052 S 
ATOM     12  C   UNL     1      -2.243   5.305   0.050  0.00  0.00    +0.166 A 
ATOM     13  N   UNL     1      -3.193   6.237   0.063  0.00  0.00    -0.156 NA
ENDBRANCH   1  13
BRANCH   1  14
ATOM     14  C   UNL     1      -3.938   8.579   0.081  0.00  0.00    +0.099 C 
BRANCH  14  15
ATOM     15  C   UNL     1      -3.293   9.966   0.083  0.00  0.00    +0.028 C 
BRANCH  15  16
ATOM     16  C   UNL     1      -4.385  11.037   0.097  0.00  0.00    +0.105 C 
BRANCH  16  17
ATOM     17  N   UNL     1      -3.767  12.365   0.099  0.00  0.00    -0.311 N 
ATOM     18  C   UNL     1      -4.541  13.468   0.111  0.00  0.00    +0.244 C 
ATOM     19  O   UNL     1      -5.752  13.361   0.121  0.00  0.00    -0.270 OA
ATOM     20  H   UNL     1      -2.671  12.461   0.089  0.00  0.00    +0.149 HD
BRANCH  18  21
ATOM     21  C   UNL     1      -3.917  14.809   0.112  0.00  0.00    +0.037 A 
ATOM     22  C   UNL     1      -2.527  14.935   0.106  0.00  0.00    +0.013 A 
ATOM     23  C   UNL     1      -1.952  16.189   0.103  0.00  0.00    +0.001 A 
ATOM     24  C   UNL     1      -2.749  17.319   0.116  0.00  0.00    +0.000 A 
ATOM     25  C   UNL     1      -4.127  17.201   0.126  0.00  0.00    +0.001 A 
ATOM     26  C   UNL     1      -4.716  15.953   0.125  0.00  0.00    +0.013 A 
ENDBRANCH  18  21
ENDBRANCH  16  17
ENDBRANCH  15  16
ENDBRANCH  14  15
ENDBRANCH   1  14
TORSDOF 6
