REMARK  Name = ZINC12408022
REMARK  3 active torsions:
REMARK  status: ('A' for Active; 'I' for Inactive)
REMARK    1  A    between atoms: C_4  and  C_7
REMARK    2  A    between atoms: C_8  and  C_13
REMARK    3  A    between atoms: N_15  and  C_16
REMARK                            x       y       z     vdW  Elec       q    Type
REMARK                         _______ _______ _______ _____ _____    ______ ____
ROOT
ATOM      1  C   UNL     1       1.750   2.029  -0.217  0.00  0.00    +0.062 C 
ATOM      2  C   UNL     1       2.498   1.438   0.742  0.00  0.00    +0.196 C 
ATOM      3  O   UNL     1       2.185   0.301   1.395  0.00  0.00    -0.485 OA
ATOM      4  C   UNL     1       0.842  -0.173   1.408  0.00  0.00    +0.240 C 
ATOM      5  C   UNL     1       0.346  -0.303  -0.039  0.00  0.00    +0.115 C 
ATOM      6  S   UNL     1       0.201   1.366  -0.732  0.00  0.00    -0.118 S 
ENDROOT
BRANCH   1  10
ATOM      7  C   UNL     1       3.179   5.585  -2.044  0.00  0.00    +0.000 A 
ATOM      8  C   UNL     1       3.794   4.376  -2.316  0.00  0.00    +0.001 A 
ATOM      9  C   UNL     1       3.336   3.217  -1.726  0.00  0.00    +0.009 A 
ATOM     10  C   UNL     1       2.247   3.265  -0.852  0.00  0.00    -0.008 A 
ATOM     11  C   UNL     1       1.628   4.488  -0.586  0.00  0.00    +0.009 A 
ATOM     12  C   UNL     1       2.100   5.641  -1.179  0.00  0.00    +0.001 A 
ENDBRANCH   1  10
BRANCH   2  13
ATOM     13  C   UNL     1       3.713   2.067   1.090  0.00  0.00    +0.284 C 
ATOM     14  O   UNL     1       3.991   3.157   0.620  0.00  0.00    -0.266 OA
ATOM     15  N   UNL     1       4.565   1.463   1.942  0.00  0.00    -0.278 N 
ATOM     16  H   UNL     1       4.384   0.561   2.250  0.00  0.00    +0.155 HD
BRANCH  15  17
ATOM     17  C   UNL     1       5.710   2.137   2.381  0.00  0.00    +0.052 A 
ATOM     18  C   UNL     1       5.741   3.525   2.387  0.00  0.00    +0.026 A 
ATOM     19  C   UNL     1       6.873   4.188   2.821  0.00  0.00    +0.022 A 
ATOM     20  C   UNL     1       7.975   3.470   3.252  0.00  0.00    +0.042 A 
ATOM     21  C   UNL     1       7.947   2.086   3.248  0.00  0.00    +0.041 A 
ATOM     22  C   UNL     1       6.816   1.418   2.819  0.00  0.00    +0.064 A 
ATOM     23 CL   UNL     1       6.778  -0.318   2.821  0.00  0.00    -0.082 Cl
ATOM     24 CL   UNL     1       9.395   4.306   3.797  0.00  0.00    -0.083 Cl
ENDBRANCH  15  17
ENDBRANCH   2  13
TORSDOF 3
