REMARK  Name = ZINC05130148
REMARK  6 active torsions:
REMARK  status: ('A' for Active; 'I' for Inactive)
REMARK    1  A    between atoms: C_1  and  C_2
REMARK    2  A    between atoms: C_4  and  C_8
REMARK    3  A    between atoms: C_5  and  C_7
REMARK    4  A    between atoms: C_15  and  N_28
REMARK    5  A    between atoms: C_16  and  C_26
REMARK    6  A    between atoms: C_17  and  C_19
REMARK                            x       y       z     vdW  Elec       q    Type
REMARK                         _______ _______ _______ _____ _____    ______ ____
ROOT
ATOM      1  C   UNL     1      -1.923  -3.252   0.011  0.00  0.00    +0.101 A 
ATOM      2  C   UNL     1      -3.280  -2.927   0.102  0.00  0.00    +0.054 A 
ATOM      3  C   UNL     1      -3.996  -4.088   0.061  0.00  0.00    +0.223 A 
ATOM      4  N   UNL     1      -3.119  -5.107  -0.050  0.00  0.00    -0.246 N 
ATOM      5  H   UNL     1      -3.343  -6.050  -0.100  0.00  0.00    +0.192 HD
ATOM      6  N   UNL     1      -1.825  -4.564  -0.085  0.00  0.00    -0.171 NA
ATOM      7  O   UNL     1      -5.350  -4.116   0.125  0.00  0.00    -0.423 OA
ATOM      8  C   UNL     1      -6.008  -2.951  -0.045  0.00  0.00    +0.200 C 
ATOM      9  C   UNL     1      -5.410  -1.739  -0.013  0.00  0.00    +0.098 C 
ATOM     10  C   UNL     1      -3.930  -1.573   0.226  0.00  0.00    +0.103 C 
ENDROOT
BRANCH   1  14
ATOM     11  C   UNL     1       0.470   0.932  -1.590  0.00  0.00    +0.051 C 
ATOM     12  C   UNL     1       0.248  -0.325  -0.789  0.00  0.00    -0.012 A 
ATOM     13  C   UNL     1      -0.800  -1.179  -0.822  0.00  0.00    +0.021 A 
ATOM     14  C   UNL     1      -0.792  -2.289   0.016  0.00  0.00    +0.013 A 
ATOM     15  C   UNL     1       0.278  -2.474   0.845  0.00  0.00    -0.004 A 
ATOM     16  S   UNL     1       1.304  -1.070   0.442  0.00  0.00    -0.098 S 
ATOM     17  C   UNL     1       0.530  -3.579   1.838  0.00  0.00    +0.052 C 
ENDBRANCH   1  14
BRANCH  10  18
ATOM     18  C   UNL     1      -3.696  -1.021   1.608  0.00  0.00    -0.016 A 
ATOM     19  C   UNL     1      -4.041  -1.768   2.719  0.00  0.00    +0.006 A 
ATOM     20  C   UNL     1      -3.826  -1.261   3.987  0.00  0.00    +0.000 A 
ATOM     21  C   UNL     1      -3.265  -0.007   4.145  0.00  0.00    +0.001 A 
ATOM     22  C   UNL     1      -2.919   0.740   3.035  0.00  0.00    +0.020 A 
ATOM     23  C   UNL     1      -3.129   0.231   1.766  0.00  0.00    +0.045 A 
ATOM     24 CL   UNL     1      -2.688   1.167   0.371  0.00  0.00    -0.083 Cl
ENDBRANCH  10  18
BRANCH   8  25
ATOM     25  N   UNL     1      -7.362  -2.998  -0.264  0.00  0.00    -0.328 N 
ATOM     26  H   UNL     1      -7.819  -3.853  -0.292  0.00  0.00    +0.145 HD
ATOM     27  H   UNL     1      -7.862  -2.177  -0.389  0.00  0.00    +0.145 HD
ENDBRANCH   8  25
BRANCH   9  28
ATOM     28  C   UNL     1      -6.212  -0.569  -0.212  0.00  0.00    +0.101 C 
ATOM     29  N   UNL     1      -6.848   0.359  -0.370  0.00  0.00    -0.191 NA
ENDBRANCH   9  28
TORSDOF 4
