REMARK  Name = ZINC39933473
REMARK  4 active torsions:
REMARK  status: ('A' for Active; 'I' for Inactive)
REMARK    1  A    between atoms: C_2  and  O_16
REMARK    2  A    between atoms: C_8  and  N_11
REMARK    3  A    between atoms: O_16  and  C_17
REMARK    4  A    between atoms: C_17  and  C_18
REMARK                            x       y       z     vdW  Elec       q    Type
REMARK                         _______ _______ _______ _____ _____    ______ ____
ROOT
ATOM      1  C   UNL     1      -0.017   1.377   0.010  0.00  0.00    +0.064 A 
ATOM      2  C   UNL     1       1.149   2.109   0.002  0.00  0.00    +0.155 A 
ATOM      3  C   UNL     1       2.400   1.438  -0.013  0.00  0.00    +0.124 A 
ATOM      4  C   UNL     1       2.368   0.034  -0.020  0.00  0.00    +0.066 A 
ATOM      5  C   UNL     1       1.196  -0.727  -0.013  0.00  0.00    +0.056 A 
ATOM      6  C   UNL     1       0.002  -0.004   0.002  0.00  0.00    +0.033 A 
ATOM      7  S   UNL     1      -1.288  -1.227   0.007  0.00  0.00    -0.121 S 
ATOM      8  C   UNL     1      -0.226  -2.727  -0.012  0.00  0.00    +0.074 C 
ATOM      9  N   UNL     1       1.113  -2.126  -0.020  0.00  0.00    -0.347 N 
ATOM     10  S   UNL     1       4.094  -0.391  -0.040  0.00  0.00    -0.051 S 
ATOM     11  C   UNL     1       4.733   1.279  -0.037  0.00  0.00    +0.157 A 
ATOM     12  N   UNL     1       6.048   1.704  -0.049  0.00  0.00    -0.337 N 
ATOM     13  N   UNL     1       3.635   1.998  -0.022  0.00  0.00    -0.221 NA
ATOM     14  H   UNL     1       1.912  -2.677  -0.031  0.00  0.00    +0.145 HD
ATOM     15  H   UNL     1       6.768   1.053  -0.060  0.00  0.00    +0.144 HD
ATOM     16  H   UNL     1       6.251   2.652  -0.045  0.00  0.00    +0.144 HD
ENDROOT
BRANCH   8  17
ATOM     17  N   UNL     1      -0.458  -3.523  -1.225  0.00  0.00    +0.396 N 
ATOM     18  H   UNL     1      -0.267  -2.958  -2.039  0.00  0.00    -0.086 HD
ATOM     19  H   UNL     1       0.153  -4.326  -1.221  0.00  0.00    -0.086 HD
ATOM     20  H   UNL     1      -1.418  -3.831  -1.247  0.00  0.00    -0.086 HD
ENDBRANCH   8  17
BRANCH   2  21
ATOM     21  O   UNL     1       1.103   3.469   0.010  0.00  0.00    -0.426 OA
BRANCH  21  22
ATOM     22  C   UNL     1      -0.192   4.073   0.025  0.00  0.00    +0.463 C 
ATOM     23  F   UNL     1      -0.904   3.679  -1.113  0.00  0.00    -0.158 F 
ATOM     24  F   UNL     1      -0.883   3.667   1.172  0.00  0.00    -0.158 F 
BRANCH  22  25
ATOM     25  C   UNL     1      -0.043   5.596   0.031  0.00  0.00    +0.453 C 
ATOM     26  F   UNL     1       0.647   6.002  -1.115  0.00  0.00    -0.198 F 
ATOM     27  F   UNL     1      -1.311   6.188   0.046  0.00  0.00    -0.198 F 
ENDBRANCH  22  25
ENDBRANCH  21  22
ENDBRANCH   2  21
TORSDOF 4
