REMARK  Name = ZINC03188701
REMARK  7 active torsions:
REMARK  status: ('A' for Active; 'I' for Inactive)
REMARK    1  A    between atoms: C_1  and  C_2
REMARK    2  A    between atoms: C_2  and  N_3
REMARK    3  A    between atoms: N_3  and  C_4
REMARK    4  A    between atoms: C_4  and  C_5
REMARK    5  A    between atoms: P_8  and  C_21
REMARK    6  A    between atoms: C_11  and  C_15
REMARK    7  A    between atoms: C_12  and  C_13
REMARK                            x       y       z     vdW  Elec       q    Type
REMARK                         _______ _______ _______ _____ _____    ______ ____
ROOT
ATOM      1  N   UNL     1       0.891  -0.423   1.319  0.00  0.00    -0.315 N 
ATOM      2  C   UNL     1       2.223  -0.670   1.054  0.00  0.00    +0.145 C 
ATOM      3  N   UNL     1       2.706  -0.326  -0.108  0.00  0.00    -0.189 NA
ATOM      4  P   UNL     1       4.282  -0.657  -0.448  0.00  0.00    +0.304 P 
ATOM      5  O   UNL     1       4.857   0.426  -1.278  0.00  0.00    -0.270 OA
ATOM      6  N   UNL     1       5.084  -0.748   0.990  0.00  0.00    -0.273 N 
ATOM      7  C   UNL     1       4.420  -1.352   2.038  0.00  0.00    +0.062 C 
ATOM      8  C   UNL     1       3.038  -1.304   2.091  0.00  0.00    +0.113 C 
ATOM      9  H   UNL     1       5.981  -0.392   1.095  0.00  0.00    +0.155 HD
ENDROOT
BRANCH   7  10
ATOM     10  C   UNL     1       5.180  -2.040   3.098  0.00  0.00    -0.002 A 
ATOM     11  C   UNL     1       6.276  -1.413   3.697  0.00  0.00    +0.010 A 
ATOM     12  C   UNL     1       6.981  -2.063   4.688  0.00  0.00    +0.001 A 
ATOM     13  C   UNL     1       6.606  -3.333   5.089  0.00  0.00    +0.000 A 
ATOM     14  C   UNL     1       5.522  -3.960   4.501  0.00  0.00    +0.001 A 
ATOM     15  C   UNL     1       4.803  -3.320   3.513  0.00  0.00    +0.010 A 
ENDBRANCH   7  10
BRANCH   4  16
ATOM     16  C   UNL     1       4.406  -2.239  -1.327  0.00  0.00    +0.050 A 
ATOM     17  C   UNL     1       5.533  -3.025  -1.180  0.00  0.00    +0.015 A 
ATOM     18  C   UNL     1       5.627  -4.231  -1.849  0.00  0.00    +0.001 A 
ATOM     19  C   UNL     1       4.593  -4.651  -2.666  0.00  0.00    +0.000 A 
ATOM     20  C   UNL     1       3.465  -3.865  -2.812  0.00  0.00    +0.001 A 
ATOM     21  C   UNL     1       3.370  -2.662  -2.139  0.00  0.00    +0.015 A 
ENDBRANCH   4  16
BRANCH   1  23
ATOM     22  C   UNL     1       0.034   1.606   0.255  0.00  0.00    +0.024 C 
ATOM     23  C   UNL     1       0.014   0.076   0.256  0.00  0.00    +0.103 C 
ENDBRANCH   1  23
BRANCH   1  24
ATOM     24  C   UNL     1       0.355  -0.658   2.661  0.00  0.00    +0.103 C 
ATOM     25  C   UNL     1      -0.219  -2.075   2.740  0.00  0.00    +0.024 C 
ENDBRANCH   1  24
BRANCH   8  26
ATOM     26  C   UNL     1       2.377  -1.906   3.209  0.00  0.00    +0.104 C 
ATOM     27  N   UNL     1       1.852  -2.384   4.096  0.00  0.00    -0.191 NA
ENDBRANCH   8  26
TORSDOF 5
