REMARK  Name = ZINC67285647
REMARK  11 active torsions:
REMARK  status: ('A' for Active; 'I' for Inactive)
REMARK    1  A    between atoms: C_1  and  C_2
REMARK    2  A    between atoms: C_2  and  O_3
REMARK    3  A    between atoms: O_3  and  C_4
REMARK    4  A    between atoms: C_6  and  C_11
REMARK    5  A    between atoms: C_9  and  O_10
REMARK    6  A    between atoms: C_13  and  C_29
REMARK    7  A    between atoms: C_14  and  C_19
REMARK    8  A    between atoms: C_19  and  N_20
REMARK    9  A    between atoms: C_23  and  C_26
REMARK   10  A    between atoms: C_29  and  O_31
REMARK   11  A    between atoms: O_31  and  C_32
REMARK                            x       y       z     vdW  Elec       q    Type
REMARK                         _______ _______ _______ _____ _____    ______ ____
ROOT
ATOM      1  C   UNL     1      -0.219  -4.979   0.515  0.00  0.00    +0.144 C 
ATOM      2  C   UNL     1      -1.558  -5.373  -0.075  0.00  0.00    +0.079 C 
ATOM      3  C   UNL     1      -1.801  -6.689  -0.258  0.00  0.00    +0.038 C 
ATOM      4  N   UNL     1      -0.871  -7.631   0.077  0.00  0.00    -0.271 N 
ATOM      5  C   UNL     1       0.327  -7.338   0.601  0.00  0.00    +0.304 C 
ATOM      6  O   UNL     1       1.089  -8.247   0.867  0.00  0.00    -0.252 OA
ATOM      7  N   UNL     1       0.713  -6.071   0.842  0.00  0.00    -0.288 N 
ATOM      8  H   UNL     1      -1.090  -8.564  -0.073  0.00  0.00    +0.156 HD
ATOM      9  H   UNL     1       1.586  -5.882   1.221  0.00  0.00    +0.151 HD
ENDROOT
BRANCH   1  12
ATOM     10  C   UNL     1       1.006  -1.842  -1.198  0.00  0.00    +0.162 A 
ATOM     11  C   UNL     1       0.376  -2.689  -0.300  0.00  0.00    +0.055 A 
ATOM     12  C   UNL     1       0.467  -4.059  -0.462  0.00  0.00    -0.019 A 
ATOM     13  C   UNL     1       1.186  -4.587  -1.518  0.00  0.00    +0.009 A 
ATOM     14  C   UNL     1       1.817  -3.748  -2.417  0.00  0.00    +0.049 A 
ATOM     15  C   UNL     1       1.725  -2.374  -2.264  0.00  0.00    +0.158 A 
BRANCH  15  16
ATOM     16  O   UNL     1       2.340  -1.547  -3.151  0.00  0.00    -0.503 OA
ATOM     17  H   UNL     1       3.248  -1.317  -2.910  0.00  0.00    +0.292 HD
ENDBRANCH  15  16
BRANCH  10  18
ATOM     18  O   UNL     1       0.917  -0.494  -1.040  0.00  0.00    -0.489 OA
BRANCH  18  20
ATOM     19  C   UNL     1       0.176   1.510   0.088  0.00  0.00    +0.048 C 
ATOM     20  C   UNL     1       0.163  -0.020   0.077  0.00  0.00    +0.226 C 
ENDBRANCH  18  20
ENDBRANCH  10  18
ENDBRANCH   1  12
BRANCH   2  21
ATOM     21  C   UNL     1      -2.521  -4.396  -0.421  0.00  0.00    +0.339 C 
ATOM     22  O   UNL     1      -2.421  -3.789  -1.471  0.00  0.00    -0.245 OA
BRANCH  21  23
ATOM     23  O   UNL     1      -3.550  -4.138   0.412  0.00  0.00    -0.465 OA
ATOM     24  C   UNL     1      -4.485  -3.139  -0.001  0.00  0.00    +0.280 C 
ENDBRANCH  21  23
ENDBRANCH   2  21
BRANCH   3  25
ATOM     25  C   UNL     1      -3.120  -7.124  -0.842  0.00  0.00    +0.135 C 
BRANCH  25  26
ATOM     26  N   UNL     1      -2.891  -7.769  -2.142  0.00  0.00    -0.297 NA
ATOM     27  C   UNL     1      -2.370  -6.807  -3.122  0.00  0.00    +0.085 C 
ATOM     28  C   UNL     1      -2.007  -7.541  -4.415  0.00  0.00    +0.028 C 
ATOM     29  C   UNL     1      -3.254  -8.237  -4.968  0.00  0.00    +0.077 C 
ATOM     30  C   UNL     1      -3.805  -9.197  -3.910  0.00  0.00    +0.028 C 
ATOM     31  C   UNL     1      -4.115  -8.415  -2.632  0.00  0.00    +0.085 C 
BRANCH  29  32
ATOM     32  C   UNL     1      -2.890  -9.010  -6.210  0.00  0.00    +0.214 C 
ATOM     33  O   UNL     1      -1.747  -9.006  -6.613  0.00  0.00    -0.276 OA
ATOM     34  N   UNL     1      -3.836  -9.706  -6.871  0.00  0.00    -0.329 N 
ATOM     35  H   UNL     1      -4.750  -9.710  -6.548  0.00  0.00    +0.145 HD
ATOM     36  H   UNL     1      -3.602 -10.204  -7.670  0.00  0.00    +0.145 HD
ENDBRANCH  29  32
ENDBRANCH  25  26
ENDBRANCH   3  25
TORSDOF 9
