REMARK  Name = ZINC13184367
REMARK  9 active torsions:
REMARK  status: ('A' for Active; 'I' for Inactive)
REMARK    1  A    between atoms: C_1  and  N_2
REMARK    2  A    between atoms: N_2  and  C_3
REMARK    3  A    between atoms: C_3  and  C_4
REMARK    4  A    between atoms: N_6  and  C_7
REMARK    5  A    between atoms: C_12  and  C_13
REMARK    6  A    between atoms: C_15  and  C_17
REMARK    7  A    between atoms: C_22  and  S_23
REMARK    8  A    between atoms: S_23  and  C_24
REMARK    9  A    between atoms: C_29  and  C_30
REMARK                            x       y       z     vdW  Elec       q    Type
REMARK                         _______ _______ _______ _____ _____    ______ ____
ROOT
ATOM      1  C   UNL     1       0.473  -3.074  -0.234  0.00  0.00    +0.133 C 
ATOM      2  N   UNL     1      -0.849  -2.448  -0.316  0.00  0.00    -0.292 N 
ATOM      3  C   UNL     1      -0.967  -1.108  -0.222  0.00  0.00    +0.248 C 
ATOM      4  O   UNL     1      -2.069  -0.595  -0.205  0.00  0.00    -0.270 OA
ENDROOT
BRANCH   3   5
ATOM      5  C   UNL     1       0.240  -0.266  -0.141  0.00  0.00    +0.051 A 
ATOM      6  C   UNL     1       1.205  -0.512   0.839  0.00  0.00    +0.014 A 
ATOM      7  C   UNL     1       2.330   0.279   0.910  0.00  0.00    +0.001 A 
ATOM      8  C   UNL     1       2.512   1.320   0.013  0.00  0.00    +0.001 A 
ATOM      9  C   UNL     1       1.570   1.577  -0.960  0.00  0.00    +0.016 A 
ATOM     10  C   UNL     1       0.427   0.790  -1.048  0.00  0.00    +0.025 A 
BRANCH  10  11
ATOM     11  S   UNL     1      -0.775   1.110  -2.295  0.00  0.00    -0.087 S 
BRANCH  11  12
ATOM     12  C   UNL     1      -2.059   1.963  -1.441  0.00  0.00    +0.030 A 
ATOM     13  C   UNL     1      -1.888   2.332  -0.112  0.00  0.00    +0.016 A 
ATOM     14  C   UNL     1      -2.892   3.005   0.553  0.00  0.00    +0.001 A 
ATOM     15  C   UNL     1      -4.080   3.308  -0.092  0.00  0.00    +0.001 A 
ATOM     16  C   UNL     1      -4.271   2.946  -1.408  0.00  0.00    +0.020 A 
ATOM     17  C   UNL     1      -3.262   2.269  -2.097  0.00  0.00    +0.065 A 
BRANCH  17  18
ATOM     18  C   UNL     1      -3.453   1.889  -3.465  0.00  0.00    +0.100 C 
ATOM     19  N   UNL     1      -3.605   1.587  -4.549  0.00  0.00    -0.191 NA
ENDBRANCH  17  18
ENDBRANCH  11  12
ENDBRANCH  10  11
ENDBRANCH   3   5
BRANCH   2  20
ATOM     20  C   UNL     1      -2.042  -3.277  -0.501  0.00  0.00    +0.203 C 
BRANCH  20  21
ATOM     21  C   UNL     1      -2.311  -3.450  -1.974  0.00  0.00    +0.235 C 
ATOM     22  O   UNL     1      -1.577  -2.932  -2.789  0.00  0.00    -0.274 OA
ATOM     23  N   UNL     1      -3.366  -4.181  -2.385  0.00  0.00    -0.283 N 
ATOM     24  H   UNL     1      -3.994  -4.534  -1.736  0.00  0.00    +0.155 HD
BRANCH  23  25
ATOM     25  C   UNL     1      -3.553  -4.431  -3.742  0.00  0.00    +0.048 A 
ATOM     26  C   UNL     1      -2.458  -4.607  -4.577  0.00  0.00    +0.024 A 
ATOM     27  C   UNL     1      -2.646  -4.860  -5.921  0.00  0.00    +0.002 A 
ATOM     28  C   UNL     1      -3.926  -4.928  -6.449  0.00  0.00    +0.001 A 
ATOM     29  C   UNL     1      -5.024  -4.750  -5.637  0.00  0.00    +0.017 A 
ATOM     30  C   UNL     1      -4.850  -4.499  -4.274  0.00  0.00    +0.084 A 
BRANCH  30  31
ATOM     31  C   UNL     1      -6.021  -4.307  -3.400  0.00  0.00    +0.388 C 
ATOM     32  O   UNL     1      -5.866  -3.990  -2.237  0.00  0.00    -0.241 OA
ATOM     33  O   UNL     1      -7.264  -4.482  -3.890  0.00  0.00    -0.241 OA
ENDBRANCH  30  31
ENDBRANCH  23  25
ENDBRANCH  20  21
ENDBRANCH   2  20
TORSDOF 8
