REMARK  Name = ZINC29043378
REMARK  9 active torsions:
REMARK  status: ('A' for Active; 'I' for Inactive)
REMARK    1  A    between atoms: C_5  and  C_7
REMARK    2  A    between atoms: C_7  and  C_8
REMARK    3  A    between atoms: C_8  and  N_9
REMARK    4  A    between atoms: N_9  and  C_10
REMARK    5  A    between atoms: C_13  and  C_32
REMARK    6  A    between atoms: C_14  and  C_17
REMARK    7  A    between atoms: C_17  and  C_18
REMARK    8  A    between atoms: N_20  and  C_21
REMARK    9  A    between atoms: C_21  and  C_22
REMARK                            x       y       z     vdW  Elec       q    Type
REMARK                         _______ _______ _______ _____ _____    ______ ____
ROOT
ATOM      1  C   UNL     1      -2.262  -4.403   0.000  0.00  0.00    +0.063 A 
ATOM      2  C   UNL     1      -1.052  -5.089  -0.021  0.00  0.00    +0.027 A 
ATOM      3  C   UNL     1      -1.038  -6.466  -0.023  0.00  0.00    +0.021 A 
ATOM      4  C   UNL     1      -2.242  -7.176  -0.015  0.00  0.00    +0.058 A 
ATOM      5  C   UNL     1      -3.458  -6.485   0.000  0.00  0.00    +0.016 A 
ATOM      6  C   UNL     1      -3.465  -5.107   0.008  0.00  0.00    +0.149 A 
ATOM      7  F   UNL     1      -4.638  -4.438   0.023  0.00  0.00    -0.203 F 
ENDROOT
BRANCH   1   8
ATOM      8  N   UNL     1      -2.271  -3.010   0.008  0.00  0.00    -0.336 N 
ATOM      9  H   UNL     1      -3.228  -2.467   0.020  0.00  0.00    +0.146 HD
BRANCH   8  10
ATOM     10  C   UNL     1      -1.008  -2.269  -0.001  0.00  0.00    +0.183 C 
BRANCH  10  11
ATOM     11  C   UNL     1      -1.298  -0.767   0.010  0.00  0.00    +0.305 C 
ATOM     12  F   UNL     1      -2.023  -0.440   1.161  0.00  0.00    -0.197 F 
ATOM     13  F   UNL     1      -2.045  -0.428  -1.123  0.00  0.00    -0.197 F 
BRANCH  11  18
ATOM     14  C   UNL     1       1.185   2.070   0.002  0.00  0.00    +0.003 A 
ATOM     15  C   UNL     1       2.365   1.343  -0.013  0.00  0.00    +0.020 A 
ATOM     16  C   UNL     1       2.305  -0.038  -0.020  0.00  0.00    +0.111 A 
ATOM     17  N   UNL     1       1.144  -0.663  -0.012  0.00  0.00    -0.254 NA
ATOM     18  C   UNL     1       0.002  -0.004   0.002  0.00  0.00    +0.111 A 
ATOM     19  C   UNL     1      -0.017   1.378   0.010  0.00  0.00    +0.029 A 
ENDBRANCH  11  18
ENDBRANCH  10  11
ENDBRANCH   8  10
ENDBRANCH   1   8
BRANCH   4  20
ATOM     20  C   UNL     1      -2.231  -8.608  -0.022  0.00  0.00    +0.100 C 
ATOM     21  N   UNL     1      -2.221  -9.744  -0.028  0.00  0.00    -0.191 NA
ENDBRANCH   4  20
BRANCH   5  22
ATOM     22  C   UNL     1      -4.758  -7.247   0.009  0.00  0.00    +0.135 C 
BRANCH  22  23
ATOM     23  C   UNL     1      -5.206  -7.493  -1.409  0.00  0.00    +0.218 C 
ATOM     24  O   UNL     1      -4.535  -7.090  -2.335  0.00  0.00    -0.275 OA
ATOM     25  N   UNL     1      -6.352  -8.161  -1.647  0.00  0.00    -0.311 N 
ATOM     26  H   UNL     1      -6.960  -8.526  -0.807  0.00  0.00    +0.149 HD
BRANCH  25  27
ATOM     27  C   UNL     1      -6.787  -8.400  -3.026  0.00  0.00    +0.139 C 
BRANCH  27  28
ATOM     28  C   UNL     1      -8.087  -9.161  -3.017  0.00  0.00    -0.027 A 
ATOM     29  C   UNL     1      -9.290  -8.469  -3.001  0.00  0.00    +0.006 A 
ATOM     30  C   UNL     1     -10.478  -9.144  -2.992  0.00  0.00    +0.015 A 
ATOM     31  C   UNL     1     -10.484 -10.539  -3.000  0.00  0.00    +0.063 A 
ATOM     32  C   UNL     1      -9.271 -11.243  -3.016  0.00  0.00    +0.169 A 
ATOM     33  C   UNL     1      -8.072 -10.539  -3.030  0.00  0.00    +0.055 A 
ATOM     34  O   UNL     1      -9.572 -12.558  -3.020  0.00  0.00    -0.353 OA
ATOM     35  N   UNL     1     -10.976 -12.720  -3.006  0.00  0.00    -0.062 NA
ATOM     36  C   UNL     1     -11.552 -11.550  -2.994  0.00  0.00    +0.167 A 
ATOM     37  N   UNL     1     -12.918 -11.305  -2.978  0.00  0.00    -0.340 N 
ATOM     38  H   UNL     1     -13.627 -12.146  -2.976  0.00  0.00    +0.144 HD
ATOM     39  H   UNL     1     -13.291 -10.270  -2.969  0.00  0.00    +0.144 HD
ENDBRANCH  27  28
ENDBRANCH  25  27
ENDBRANCH  22  23
ENDBRANCH   5  22
TORSDOF 9
