REMARK  Name = ZINC39639097
REMARK  13 active torsions:
REMARK  status: ('A' for Active; 'I' for Inactive)
REMARK    1  A    between atoms: C_1  and  C_2
REMARK    2  A    between atoms: C_2  and  C_4
REMARK    3  A    between atoms: C_2  and  O_33
REMARK    4  A    between atoms: C_8  and  C_17
REMARK    5  A    between atoms: N_19  and  C_20
REMARK    6  A    between atoms: C_20  and  C_21
REMARK    7  A    between atoms: C_22  and  O_31
REMARK    8  A    between atoms: C_24  and  O_29
REMARK    9  A    between atoms: C_26  and  O_27
REMARK   10  A    between atoms: O_27  and  C_28
REMARK   11  A    between atoms: O_29  and  C_30
REMARK   12  A    between atoms: O_31  and  C_32
REMARK   13  A    between atoms: O_33  and  C_34
REMARK                            x       y       z     vdW  Elec       q    Type
REMARK                         _______ _______ _______ _____ _____    ______ ____
ROOT
ATOM      1  C   UNL     1       0.738  -0.455  -0.982  0.00  0.00    +0.256 C 
ATOM      2  O   UNL     1       1.863  -0.868  -0.801  0.00  0.00    -0.272 OA
ATOM      3  N   UNL     1       0.207  -0.465  -2.220  0.00  0.00    -0.297 N 
ATOM      4  C   UNL     1      -1.166  -0.079  -2.624  0.00  0.00    +0.121 C 
ATOM      5  C   UNL     1      -0.983   0.670  -3.963  0.00  0.00    +0.100 C 
ATOM      6  C   UNL     1       0.350   0.147  -4.526  0.00  0.00    -0.004 C 
ATOM      7  C   UNL     1       0.866  -0.860  -3.488  0.00  0.00    +0.115 C 
ATOM      8  C   UNL     1       1.344   1.294  -4.679  0.00  0.00    -0.010 C 
ATOM      9  C   UNL     1       2.641   0.760  -5.293  0.00  0.00    -0.082 C 
ATOM     10  N   UNL     1       2.354   0.157  -6.600  0.00  0.00    +0.379 N 
ATOM     11  C   UNL     1       1.470  -1.003  -6.433  0.00  0.00    -0.082 C 
ATOM     12  C   UNL     1       0.123  -0.543  -5.867  0.00  0.00    -0.010 C 
ATOM     13  H   UNL     1       1.904   0.839  -7.192  0.00  0.00    -0.086 HD
ATOM     14  H   UNL     1       3.217  -0.139  -7.029  0.00  0.00    -0.086 HD
ENDROOT
BRANCH   5  15
ATOM     15  C   UNL     1      -2.115   0.346  -4.904  0.00  0.00    +0.218 C 
ATOM     16  O   UNL     1      -2.657  -0.738  -4.850  0.00  0.00    -0.275 OA
ATOM     17  N   UNL     1      -2.525   1.261  -5.805  0.00  0.00    -0.311 N 
ATOM     18  H   UNL     1      -2.091   2.127  -5.848  0.00  0.00    +0.149 HD
BRANCH  17  19
ATOM     19  C   UNL     1      -3.626   0.946  -6.719  0.00  0.00    +0.147 C 
BRANCH  19  20
ATOM     20  C   UNL     1      -3.886   2.128  -7.617  0.00  0.00    +0.053 A 
ATOM     21  C   UNL     1      -4.788   3.108  -7.231  0.00  0.00    +0.132 A 
ATOM     22  C   UNL     1      -5.027   4.195  -8.057  0.00  0.00    +0.091 A 
ATOM     23  C   UNL     1      -4.364   4.303  -9.270  0.00  0.00    +0.127 A 
ATOM     24  C   UNL     1      -3.461   3.324  -9.657  0.00  0.00    +0.091 A 
ATOM     25  C   UNL     1      -3.219   2.239  -8.828  0.00  0.00    +0.132 A 
BRANCH  25  26
ATOM     26  O   UNL     1      -2.331   1.281  -9.205  0.00  0.00    -0.495 OA
ATOM     27  C   UNL     1      -1.680   1.460 -10.465  0.00  0.00    +0.277 C 
ENDBRANCH  25  26
BRANCH  23  28
ATOM     28  O   UNL     1      -4.599   5.368 -10.081  0.00  0.00    -0.495 OA
ATOM     29  C   UNL     1      -3.882   5.415 -11.316  0.00  0.00    +0.277 C 
ENDBRANCH  23  28
BRANCH  21  30
ATOM     30  O   UNL     1      -5.437   3.002  -6.042  0.00  0.00    -0.495 OA
ATOM     31  C   UNL     1      -6.352   4.047  -5.707  0.00  0.00    +0.277 C 
ENDBRANCH  21  30
ENDBRANCH  19  20
ENDBRANCH  17  19
ENDBRANCH   5  15
BRANCH   1  33
ATOM     32  C   UNL     1      -0.264   1.580   0.023  0.00  0.00    +0.062 C 
ATOM     33  C   UNL     1      -0.068   0.070   0.179  0.00  0.00    +0.256 C 
BRANCH  33  34
ATOM     34  O   UNL     1       0.626  -0.196   1.399  0.00  0.00    -0.480 OA
BRANCH  34  35
ATOM     35  C   UNL     1      -0.125  -0.284   2.529  0.00  0.00    +0.122 A 
ATOM     36  C   UNL     1      -1.486  -0.019   2.482  0.00  0.00    +0.045 A 
ATOM     37  C   UNL     1      -2.247  -0.110   3.631  0.00  0.00    +0.004 A 
ATOM     38  C   UNL     1      -1.653  -0.464   4.828  0.00  0.00    +0.000 A 
ATOM     39  C   UNL     1      -0.296  -0.728   4.878  0.00  0.00    +0.004 A 
ATOM     40  C   UNL     1       0.468  -0.645   3.731  0.00  0.00    +0.045 A 
ENDBRANCH  34  35
ENDBRANCH  33  34
ENDBRANCH   1  33
TORSDOF 9
