REMARK  Name = ZINC08216822
REMARK  4 active torsions:
REMARK  status: ('A' for Active; 'I' for Inactive)
REMARK    1  A    between atoms: N_3  and  C_6
REMARK    2  A    between atoms: C_6  and  C_7
REMARK    3  A    between atoms: C_7  and  C_8
REMARK    4  A    between atoms: N_13  and  C_14
REMARK                            x       y       z     vdW  Elec       q    Type
REMARK                         _______ _______ _______ _____ _____    ______ ____
ROOT
ATOM      1  C   UNL     1      -0.742   1.585  -1.213  0.00  0.00    +0.222 C 
ATOM      2  O   UNL     1      -1.736   2.268  -1.089  0.00  0.00    -0.275 OA
ATOM      3  N   UNL     1      -0.288   1.272  -2.443  0.00  0.00    -0.240 N 
ATOM      4  C   UNL     1      -0.940   1.719  -3.535  0.00  0.00    +0.306 C 
ATOM      5  O   UNL     1      -1.937   2.403  -3.410  0.00  0.00    -0.252 OA
ATOM      6  N   UNL     1      -0.487   1.406  -4.765  0.00  0.00    -0.294 N 
ATOM      7  H   UNL     1       0.507   0.726  -2.543  0.00  0.00    +0.159 HD
ATOM      8  H   UNL     1       0.308   0.860  -4.865  0.00  0.00    +0.151 HD
ENDROOT
BRANCH   6   9
ATOM      9  C   UNL     1      -1.196   1.891  -5.952  0.00  0.00    +0.037 C 
ATOM     10  C   UNL     1      -2.631   1.362  -5.941  0.00  0.00    +0.029 C 
ATOM     11  C   UNL     1      -3.371   1.869  -7.181  0.00  0.00    -0.008 C 
ATOM     12  C   UNL     1      -2.655   1.375  -8.440  0.00  0.00    +0.007 C 
ATOM     13  C   UNL     1      -1.220   1.905  -8.450  0.00  0.00    -0.008 C 
ATOM     14  C   UNL     1      -0.480   1.398  -7.211  0.00  0.00    +0.029 C 
ATOM     15  C   UNL     1      -1.240   3.435  -8.442  0.00  0.00    +0.007 C 
ATOM     16  C   UNL     1      -1.956   3.928  -7.183  0.00  0.00    -0.008 C 
ATOM     17  C   UNL     1      -3.392   3.398  -7.172  0.00  0.00    +0.007 C 
ATOM     18  C   UNL     1      -1.216   3.421  -5.944  0.00  0.00    +0.029 C 
ENDBRANCH   6   9
BRANCH   1  19
ATOM     19  C   UNL     1      -0.013   1.086   0.008  0.00  0.00    +0.118 C 
BRANCH  19  20
ATOM     20  C   UNL     1      -0.729   1.579   1.267  0.00  0.00    +0.132 C 
BRANCH  20  23
ATOM     21  C   UNL     1       0.618  -0.132   4.140  0.00  0.00    +0.130 A 
ATOM     22  C   UNL     1      -0.255  -0.081   3.116  0.00  0.00    +0.106 A 
ATOM     23  N   UNL     1      -0.020   1.094   2.454  0.00  0.00    -0.336 N 
ATOM     24  C   UNL     1       0.982   1.725   3.102  0.00  0.00    +0.199 A 
ATOM     25  N   UNL     1       1.359   0.986   4.110  0.00  0.00    -0.244 NA
ENDBRANCH  20  23
ENDBRANCH  19  20
ENDBRANCH   1  19
TORSDOF 4
