REMARK  Name = ZINC44903423
REMARK  6 active torsions:
REMARK  status: ('A' for Active; 'I' for Inactive)
REMARK    1  A    between atoms: C_1  and  C_2
REMARK    2  A    between atoms: C_5  and  C_8
REMARK    3  A    between atoms: C_8  and  C_10
REMARK    4  A    between atoms: C_8  and  N_11
REMARK    5  A    between atoms: C_12  and  C_14
REMARK    6  A    between atoms: C_16  and  N_21
REMARK                            x       y       z     vdW  Elec       q    Type
REMARK                         _______ _______ _______ _____ _____    ______ ____
ROOT
ATOM      1  N   UNL     1      -0.816  -4.781   1.039  0.00  0.00    -0.305 N 
ATOM      2  C   UNL     1      -1.361  -6.009   0.935  0.00  0.00    +0.246 C 
ATOM      3  O   UNL     1      -1.125  -6.698  -0.039  0.00  0.00    -0.270 OA
ATOM      4  H   UNL     1      -1.004  -4.231   1.816  0.00  0.00    +0.150 HD
ENDROOT
BRANCH   2   5
ATOM      5  C   UNL     1      -2.244  -6.519   2.004  0.00  0.00    +0.057 A 
ATOM      6  C   UNL     1      -2.521  -5.729   3.121  0.00  0.00    +0.047 A 
ATOM      7  C   UNL     1      -3.346  -6.210   4.115  0.00  0.00    +0.127 A 
ATOM      8  C   UNL     1      -3.900  -7.475   4.009  0.00  0.00    +0.034 A 
ATOM      9  C   UNL     1      -3.630  -8.264   2.906  0.00  0.00    +0.023 A 
ATOM     10  C   UNL     1      -2.810  -7.792   1.899  0.00  0.00    +0.053 A 
ATOM     11 CL   UNL     1      -2.477  -8.781   0.512  0.00  0.00    -0.083 Cl
BRANCH   7  12
ATOM     12  N   UNL     1      -3.641  -5.373   5.300  0.00  0.00    +0.056 N 
ATOM     13  O   UNL     1      -3.158  -4.269   5.395  0.00  0.00    -0.126 OA
ATOM     14  O   UNL     1      -4.364  -5.794   6.172  0.00  0.00    -0.126 OA
ENDBRANCH   7  12
ENDBRANCH   2   5
BRANCH   1  15
ATOM     15  C   UNL     1       0.059  -4.275  -0.021  0.00  0.00    +0.100 C 
ATOM     16  C   UNL     1       1.488  -4.768   0.218  0.00  0.00    +0.033 C 
BRANCH  15  21
ATOM     17  C   UNL     1      -0.018   1.503   0.010  0.00  0.00    +0.044 C 
ATOM     18  C   UNL     1       0.002  -0.004   0.002  0.00  0.00    -0.050 A 
ATOM     19  C   UNL     1       0.006  -0.689  -1.199  0.00  0.00    +0.004 A 
ATOM     20  C   UNL     1       0.025  -2.071  -1.206  0.00  0.00    +0.006 A 
ATOM     21  C   UNL     1       0.040  -2.768  -0.013  0.00  0.00    -0.027 A 
ATOM     22  C   UNL     1       0.037  -2.084   1.188  0.00  0.00    +0.006 A 
ATOM     23  C   UNL     1       0.023  -0.702   1.195  0.00  0.00    +0.004 A 
ENDBRANCH  15  21
ENDBRANCH   1  15
TORSDOF 4
