REMARK  Name = ZINC67389828
REMARK  9 active torsions:
REMARK  status: ('A' for Active; 'I' for Inactive)
REMARK    1  A    between atoms: C_1  and  C_2
REMARK    2  A    between atoms: N_8  and  C_9
REMARK    3  A    between atoms: C_9  and  C_11
REMARK    4  A    between atoms: C_9  and  C_12
REMARK    5  A    between atoms: C_12  and  N_13
REMARK    6  A    between atoms: N_16  and  C_17
REMARK    7  A    between atoms: C_17  and  C_18
REMARK    8  A    between atoms: C_18  and  C_19
REMARK    9  A    between atoms: C_19  and  C_20
REMARK                            x       y       z     vdW  Elec       q    Type
REMARK                         _______ _______ _______ _____ _____    ______ ____
ROOT
ATOM      1  N   UNL     1      -0.781   1.937   0.764  0.00  0.00    -0.301 N 
ATOM      2  C   UNL     1      -1.054   3.210   0.417  0.00  0.00    +0.300 C 
ATOM      3  O   UNL     1      -0.599   4.129   1.071  0.00  0.00    -0.253 OA
ATOM      4  N   UNL     1      -1.831   3.465  -0.654  0.00  0.00    -0.299 N 
ATOM      5  H   UNL     1      -1.083   1.206   0.203  0.00  0.00    +0.150 HD
ATOM      6  H   UNL     1      -2.253   2.734  -1.132  0.00  0.00    +0.150 HD
ENDROOT
BRANCH   1   7
ATOM      7  C   UNL     1      -0.028   1.656   1.989  0.00  0.00    +0.090 C 
BRANCH   7   8
ATOM      8  C   UNL     1       0.041   0.144   2.210  0.00  0.00    -0.054 C 
ATOM      9  C   UNL     1       0.906  -0.153   3.437  0.00  0.00    -0.012 C 
BRANCH   8  16
ATOM     10  C   UNL     1      -0.827  -2.416   1.451  0.00  0.00    -0.013 C 
ATOM     11  C   UNL     1       0.610  -1.954   1.201  0.00  0.00    -0.071 C 
ATOM     12  C   UNL     1       1.150  -2.630  -0.062  0.00  0.00    -0.016 C 
ATOM     13  C   UNL     1       2.588  -2.165  -0.308  0.00  0.00    -0.003 C 
ATOM     14  C   UNL     1       2.609  -0.637  -0.412  0.00  0.00    -0.019 C 
ATOM     15  C   UNL     1       2.016  -0.036   0.864  0.00  0.00    -0.078 C 
ATOM     16  N   UNL     1       0.632  -0.497   1.028  0.00  0.00    +0.384 N 
ATOM     17  H   UNL     1       0.096  -0.248   0.210  0.00  0.00    -0.081 HD
ENDBRANCH   8  16
ENDBRANCH   7   8
ENDBRANCH   1   7
BRANCH   4  18
ATOM     18  C   UNL     1      -2.038   4.846  -1.096  0.00  0.00    +0.106 C 
BRANCH  18  19
ATOM     19  C   UNL     1      -2.953   4.857  -2.323  0.00  0.00    +0.026 C 
BRANCH  19  20
ATOM     20  C   UNL     1      -3.170   6.299  -2.784  0.00  0.00    +0.078 C 
BRANCH  20  21
ATOM     21  C   UNL     1      -4.071   6.310  -3.993  0.00  0.00    +0.134 A 
ATOM     22  N   UNL     1      -3.695   6.235  -5.242  0.00  0.00    -0.134 NA
ATOM     23  N   UNL     1      -4.729   6.264  -6.009  0.00  0.00    -0.134 NA
ATOM     24  C   UNL     1      -5.807   6.354  -5.284  0.00  0.00    +0.133 A 
ATOM     25  N   UNL     1      -5.420   6.393  -3.987  0.00  0.00    -0.315 N 
ATOM     26  C   UNL     1      -6.294   6.518  -2.820  0.00  0.00    +0.125 C 
ATOM     27  C   UNL     1      -7.663   5.915  -3.145  0.00  0.00    +0.022 C 
ATOM     28  C   UNL     1      -8.569   6.987  -3.747  0.00  0.00    +0.002 C 
ATOM     29  C   UNL     1      -7.976   7.518  -5.049  0.00  0.00    +0.008 C 
ATOM     30  C   UNL     1      -7.231   6.398  -5.771  0.00  0.00    +0.076 C 
ENDBRANCH  20  21
ENDBRANCH  19  20
ENDBRANCH  18  19
ENDBRANCH   4  18
TORSDOF 7
