REMARK  Name = ZINC39939641
REMARK  6 active torsions:
REMARK  status: ('A' for Active; 'I' for Inactive)
REMARK    1  A    between atoms: C_7  and  C_10
REMARK    2  A    between atoms: C_13  and  S_19
REMARK    3  A    between atoms: N_15  and  C_16
REMARK    4  A    between atoms: S_19  and  C_20
REMARK    5  A    between atoms: C_20  and  C_21
REMARK    6  A    between atoms: N_23  and  C_24
REMARK                            x       y       z     vdW  Elec       q    Type
REMARK                         _______ _______ _______ _____ _____    ______ ____
ROOT
ATOM      1  C   UNL     1       0.734  -3.125   0.161  0.00  0.00    +0.147 C 
ATOM      2  N   UNL     1      -0.558  -3.246   0.005  0.00  0.00    -0.169 NA
ATOM      3  N   UNL     1      -0.914  -4.571  -0.274  0.00  0.00    -0.237 N 
ATOM      4  C   UNL     1       0.337  -5.347  -0.285  0.00  0.00    +0.237 C 
ATOM      5  N   UNL     1       1.384  -4.351  -0.001  0.00  0.00    -0.282 N 
ATOM      6  H   UNL     1      -1.809  -4.911  -0.429  0.00  0.00    +0.171 HD
ENDROOT
BRANCH   1  13
ATOM      7  C   UNL     1      -0.843   1.030   1.077  0.00  0.00    +0.001 A 
ATOM      8  C   UNL     1       0.162   1.970   1.311  0.00  0.00    +0.002 A 
ATOM      9  C   UNL     1       1.476   1.640   1.261  0.00  0.00    +0.026 A 
ATOM     10  C   UNL     1       1.857   0.306   0.965  0.00  0.00    +0.043 A 
ATOM     11  N   UNL     1       3.044  -0.259   0.860  0.00  0.00    -0.380 N 
ATOM     12  C   UNL     1       2.878  -1.679   0.533  0.00  0.00    +0.152 C 
ATOM     13  C   UNL     1       1.386  -1.916   0.450  0.00  0.00    +0.022 C 
ATOM     14  C   UNL     1       0.794  -0.682   0.719  0.00  0.00    +0.006 A 
ATOM     15  C   UNL     1      -0.553  -0.265   0.788  0.00  0.00    +0.010 A 
ATOM     16  H   UNL     1       3.894   0.193   0.979  0.00  0.00    +0.160 HD
ENDBRANCH   1  13
BRANCH   5  17
ATOM     17  C   UNL     1       2.825  -4.598   0.096  0.00  0.00    +0.078 C 
ATOM     18  C   UNL     1       3.319  -6.017  -0.193  0.00  0.00    +0.024 C 
ATOM     19  C   UNL     1       3.314  -5.486   1.242  0.00  0.00    +0.024 C 
ENDBRANCH   5  17
BRANCH   4  20
ATOM     20  S   UNL     1       0.604  -6.096  -1.916  0.00  0.00    -0.109 S 
BRANCH  20  21
ATOM     21  C   UNL     1       0.640  -4.680  -3.049  0.00  0.00    +0.168 C 
BRANCH  21  22
ATOM     22  C   UNL     1       0.859  -5.169  -4.457  0.00  0.00    +0.227 C 
ATOM     23  O   UNL     1       0.978  -6.356  -4.675  0.00  0.00    -0.275 OA
ATOM     24  N   UNL     1       0.921  -4.287  -5.475  0.00  0.00    -0.285 N 
ATOM     25  H   UNL     1       0.900  -3.335  -5.293  0.00  0.00    +0.155 HD
BRANCH  24  26
ATOM     26  C   UNL     1       1.016  -4.746  -6.793  0.00  0.00    +0.034 A 
ATOM     27  C   UNL     1       0.365  -5.913  -7.174  0.00  0.00    +0.023 A 
ATOM     28  C   UNL     1       0.462  -6.360  -8.475  0.00  0.00    +0.006 A 
ATOM     29  C   UNL     1       1.206  -5.652  -9.405  0.00  0.00    -0.044 A 
ATOM     30  C   UNL     1       1.855  -4.490  -9.029  0.00  0.00    -0.042 A 
ATOM     31  C   UNL     1       1.756  -4.034  -7.726  0.00  0.00    +0.027 A 
ATOM     32  C   UNL     1       2.593  -3.909 -10.217  0.00  0.00    +0.036 C 
ATOM     33  C   UNL     1       2.686  -5.063 -11.238  0.00  0.00    +0.009 C 
ATOM     34  C   UNL     1       1.464  -5.930 -10.871  0.00  0.00    +0.036 C 
ENDBRANCH  24  26
ENDBRANCH  21  22
ENDBRANCH  20  21
ENDBRANCH   4  20
TORSDOF 6
