REMARK  Name = ZINC13149258
REMARK  6 active torsions:
REMARK  status: ('A' for Active; 'I' for Inactive)
REMARK    1  A    between atoms: N_8  and  S_9
REMARK    2  A    between atoms: S_9  and  C_12
REMARK    3  A    between atoms: C_21  and  O_29
REMARK    4  A    between atoms: N_25  and  C_26
REMARK    5  A    between atoms: C_26  and  C_27
REMARK    6  A    between atoms: C_27  and  O_28
REMARK                            x       y       z     vdW  Elec       q    Type
REMARK                         _______ _______ _______ _____ _____    ______ ____
ROOT
ATOM      1  C   UNL     1      -0.017   1.380   0.010  0.00  0.00    +0.001 A 
ATOM      2  C   UNL     1       1.170   2.091   0.002  0.00  0.00    +0.000 A 
ATOM      3  C   UNL     1       2.389   1.432  -0.004  0.00  0.00    +0.010 A 
ATOM      4  C   UNL     1       2.422   0.059  -0.006  0.00  0.00    +0.026 A 
ATOM      5  C   UNL     1       1.217  -0.662  -0.015  0.00  0.00    +0.011 A 
ATOM      6  C   UNL     1       0.002  -0.004   0.002  0.00  0.00    +0.010 A 
ATOM      7  C   UNL     1       1.339  -2.148  -0.068  0.00  0.00    +0.095 C 
ATOM      8  N   UNL     1       0.530  -2.949   0.580  0.00  0.00    -0.128 NA
ATOM      9  C   UNL     1       2.451  -2.646  -0.916  0.00  0.00    +0.054 C 
ATOM     10  C   UNL     1       3.602  -1.926  -0.884  0.00  0.00    +0.073 C 
ATOM     11  C   UNL     1       3.697  -0.729   0.012  0.00  0.00    +0.235 C 
ATOM     12  O   UNL     1       4.846   0.052  -0.160  0.00  0.00    -0.339 OA
ATOM     13  C   UNL     1       5.635  -0.101  -1.321  0.00  0.00    +0.183 C 
ATOM     14  C   UNL     1       5.909  -1.567  -1.631  0.00  0.00    +0.133 C 
ATOM     15  N   UNL     1       4.648  -2.305  -1.682  0.00  0.00    -0.324 N 
ENDROOT
BRANCH   8  16
ATOM     16  S   UNL     1       0.727  -4.590   0.472  0.00  0.00    +0.099 S 
ATOM     17  O   UNL     1       0.444  -4.945  -0.874  0.00  0.00    -0.146 OA
ATOM     18  O   UNL     1       1.968  -4.891   1.095  0.00  0.00    -0.146 OA
BRANCH  16  19
ATOM     19  C   UNL     1      -0.527  -5.331   1.463  0.00  0.00    +0.113 A 
ATOM     20  C   UNL     1      -0.288  -5.591   2.800  0.00  0.00    +0.030 A 
ATOM     21  C   UNL     1      -1.272  -6.172   3.578  0.00  0.00    +0.017 A 
ATOM     22  C   UNL     1      -2.495  -6.494   3.018  0.00  0.00    +0.018 A 
ATOM     23  C   UNL     1      -2.734  -6.234   1.681  0.00  0.00    +0.017 A 
ATOM     24  C   UNL     1      -1.751  -5.648   0.905  0.00  0.00    +0.030 A 
ATOM     25 BR   UNL     1      -3.841  -7.290   4.082  0.00  0.00    -0.050 Br
ENDBRANCH  16  19
ENDBRANCH   8  16
BRANCH  11  26
ATOM     26  O   UNL     1       3.802  -1.251   1.338  0.00  0.00    -0.356 OA
ATOM     27  H   UNL     1       3.834  -0.573   2.027  0.00  0.00    +0.213 HD
ENDBRANCH  11  26
BRANCH  15  28
ATOM     28  C   UNL     1       4.502  -3.447  -2.588  0.00  0.00    +0.133 C 
BRANCH  28  29
ATOM     29  C   UNL     1       3.978  -2.962  -3.941  0.00  0.00    +0.174 C 
BRANCH  29  30
ATOM     30  O   UNL     1       4.953  -2.116  -4.554  0.00  0.00    -0.393 OA
ATOM     31  H   UNL     1       4.688  -1.771  -5.417  0.00  0.00    +0.209 HD
ENDBRANCH  29  30
ENDBRANCH  28  29
ENDBRANCH  15  28
TORSDOF 6
