REMARK  Name = ZINC47276216
REMARK  6 active torsions:
REMARK  status: ('A' for Active; 'I' for Inactive)
REMARK    1  A    between atoms: C_5  and  C_7
REMARK    2  A    between atoms: C_7  and  N_8
REMARK    3  A    between atoms: C_10  and  N_15
REMARK    4  A    between atoms: C_16  and  C_18
REMARK    5  A    between atoms: C_21  and  N_27
REMARK    6  A    between atoms: C_22  and  N_24
REMARK                            x       y       z     vdW  Elec       q    Type
REMARK                         _______ _______ _______ _____ _____    ______ ____
ROOT
ATOM      1  N   UNL     1       4.538  -3.307   3.071  0.00  0.00    -0.280 N 
ATOM      2  C   UNL     1       5.035  -2.549   4.068  0.00  0.00    +0.248 C 
ATOM      3  O   UNL     1       4.388  -1.617   4.505  0.00  0.00    -0.270 OA
ATOM      4  H   UNL     1       5.020  -4.094   2.773  0.00  0.00    +0.155 HD
ENDROOT
BRANCH   1   7
ATOM      5  N   UNL     1       2.086  -2.457   0.514  0.00  0.00    -0.309 N 
ATOM      6  C   UNL     1       3.258  -2.796   1.114  0.00  0.00    +0.112 A 
ATOM      7  C   UNL     1       3.323  -2.956   2.462  0.00  0.00    +0.050 A 
ATOM      8  C   UNL     1       2.170  -2.770   3.246  0.00  0.00    +0.030 A 
ATOM      9  C   UNL     1       0.999  -2.430   2.636  0.00  0.00    +0.072 A 
ATOM     10  C   UNL     1       0.969  -2.268   1.241  0.00  0.00    +0.252 A 
ATOM     11  O   UNL     1      -0.074  -1.959   0.686  0.00  0.00    -0.268 OA
BRANCH   5  12
ATOM     12  C   UNL     1       2.040  -2.291  -0.941  0.00  0.00    +0.161 C 
BRANCH  12  17
ATOM     13  C   UNL     1       1.614   1.333  -1.913  0.00  0.00    +0.000 A 
ATOM     14  C   UNL     1       2.926   1.768  -1.939  0.00  0.00    +0.001 A 
ATOM     15  C   UNL     1       3.952   0.890  -1.643  0.00  0.00    +0.020 A 
ATOM     16  C   UNL     1       3.665  -0.424  -1.319  0.00  0.00    +0.046 A 
ATOM     17  C   UNL     1       2.352  -0.859  -1.293  0.00  0.00    -0.009 A 
ATOM     18  C   UNL     1       1.327   0.020  -1.590  0.00  0.00    +0.007 A 
ATOM     19 CL   UNL     1       4.953  -1.527  -0.948  0.00  0.00    -0.083 Cl
ENDBRANCH  12  17
ENDBRANCH   5  12
ENDBRANCH   1   7
BRANCH   2  20
ATOM     20  C   UNL     1       6.365  -2.850   4.630  0.00  0.00    +0.039 A 
ATOM     21  C   UNL     1       7.114  -3.918   4.126  0.00  0.00    +0.015 A 
ATOM     22  C   UNL     1       8.354  -4.196   4.652  0.00  0.00    +0.026 A 
ATOM     23  C   UNL     1       8.864  -3.416   5.687  0.00  0.00    +0.055 A 
ATOM     24  C   UNL     1       8.121  -2.353   6.192  0.00  0.00    +0.147 A 
ATOM     25  C   UNL     1       6.883  -2.065   5.665  0.00  0.00    +0.047 A 
BRANCH  24  26
ATOM     26  N   UNL     1       8.667  -1.527   7.292  0.00  0.00    +0.058 N 
ATOM     27  O   UNL     1       7.932  -1.113   8.159  0.00  0.00    -0.126 OA
ATOM     28  O   UNL     1       9.847  -1.266   7.325  0.00  0.00    -0.126 OA
ENDBRANCH  24  26
BRANCH  23  29
ATOM     29  N   UNL     1      10.118  -3.701   6.217  0.00  0.00    -0.356 N 
ATOM     30  H   UNL     1      10.693  -4.350   5.782  0.00  0.00    +0.142 HD
ATOM     31  H   UNL     1      10.417  -3.250   7.022  0.00  0.00    +0.142 HD
ENDBRANCH  23  29
ENDBRANCH   2  20
TORSDOF 6
