REMARK  Name = ZINC22305689
REMARK  8 active torsions:
REMARK  status: ('A' for Active; 'I' for Inactive)
REMARK    1  A    between atoms: C_1  and  C_2
REMARK    2  A    between atoms: C_5  and  C_7
REMARK    3  A    between atoms: C_9  and  C_17
REMARK    4  A    between atoms: C_10  and  C_16
REMARK    5  A    between atoms: N_11  and  C_15
REMARK    6  A    between atoms: N_19  and  C_20
REMARK    7  A    between atoms: C_25  and  O_26
REMARK    8  A    between atoms: O_26  and  C_27
REMARK                            x       y       z     vdW  Elec       q    Type
REMARK                         _______ _______ _______ _____ _____    ______ ____
ROOT
ATOM      1  C   UNL     1       2.475  -0.092  -0.155  0.00  0.00    +0.146 C 
ATOM      2  C   UNL     1       2.241   1.286   0.431  0.00  0.00    +0.056 C 
ATOM      3  C   UNL     1       1.014   1.560   0.921  0.00  0.00    +0.019 C 
ATOM      4  N   UNL     1       0.018   0.627   0.890  0.00  0.00    -0.289 N 
ATOM      5  C   UNL     1       0.168  -0.604   0.385  0.00  0.00    +0.137 C 
ATOM      6  S   UNL     1      -1.165  -1.677   0.409  0.00  0.00    -0.018 S 
ATOM      7  N   UNL     1       1.335  -1.025  -0.141  0.00  0.00    -0.315 N 
ATOM      8  C   UNL     1      -1.292   0.996   1.435  0.00  0.00    +0.137 C 
ATOM      9  C   UNL     1       0.740   2.919   1.513  0.00  0.00    +0.061 C 
ATOM     10  H   UNL     1       1.449  -2.038  -0.553  0.00  0.00    +0.149 HD
ENDROOT
BRANCH   1  15
ATOM     11  C   UNL     1       6.067  -2.643   3.406  0.00  0.00    +0.051 C 
ATOM     12  C   UNL     1       5.319  -1.947   2.298  0.00  0.00    -0.013 A 
ATOM     13  C   UNL     1       5.777  -1.524   1.094  0.00  0.00    +0.011 A 
ATOM     14  C   UNL     1       4.900  -0.902   0.225  0.00  0.00    +0.013 A 
ATOM     15  C   UNL     1       3.609  -0.733   0.603  0.00  0.00    +0.015 A 
ATOM     16  S   UNL     1       3.603  -1.459   2.234  0.00  0.00    -0.096 S 
ENDBRANCH   1  15
BRANCH   2  17
ATOM     17  C   UNL     1       3.276   2.253   0.462  0.00  0.00    +0.248 C 
ATOM     18  O   UNL     1       3.088   3.328   1.002  0.00  0.00    -0.270 OA
ATOM     19  N   UNL     1       4.468   1.983  -0.107  0.00  0.00    -0.279 N 
ATOM     20  H   UNL     1       4.611   1.048  -0.667  0.00  0.00    +0.155 HD
BRANCH  19  21
ATOM     21  C   UNL     1       5.524   2.895   0.016  0.00  0.00    +0.076 A 
ATOM     22  C   UNL     1       5.261   4.249   0.166  0.00  0.00    +0.027 A 
ATOM     23  C   UNL     1       6.305   5.146   0.287  0.00  0.00    +0.002 A 
ATOM     24  C   UNL     1       7.613   4.698   0.260  0.00  0.00    +0.004 A 
ATOM     25  C   UNL     1       7.883   3.350   0.112  0.00  0.00    +0.047 A 
ATOM     26  C   UNL     1       6.842   2.443  -0.006  0.00  0.00    +0.141 A 
BRANCH  26  27
ATOM     27  O   UNL     1       7.106   1.117  -0.146  0.00  0.00    -0.493 OA
ATOM     28  C   UNL     1       8.480   0.727  -0.160  0.00  0.00    +0.277 C 
ENDBRANCH  26  27
ENDBRANCH  19  21
ENDBRANCH   2  17
TORSDOF 4
