REMARK  Name = ZINC39911826
REMARK  11 active torsions:
REMARK  status: ('A' for Active; 'I' for Inactive)
REMARK    1  A    between atoms: C_1  and  C_2
REMARK    2  A    between atoms: C_2  and  C_3
REMARK    3  A    between atoms: C_3  and  N_4
REMARK    4  A    between atoms: C_5  and  C_24
REMARK    5  A    between atoms: C_8  and  C_15
REMARK    6  A    between atoms: C_17  and  C_23
REMARK    7  A    between atoms: C_19  and  C_22
REMARK    8  A    between atoms: C_20  and  O_21
REMARK    9  A    between atoms: C_28  and  O_30
REMARK   10  A    between atoms: O_30  and  C_31
REMARK   11  A    between atoms: C_31  and  C_32
REMARK                            x       y       z     vdW  Elec       q    Type
REMARK                         _______ _______ _______ _____ _____    ______ ____
ROOT
ATOM      1  N   UNL     1       0.738  -1.962  -1.265  0.00  0.00    -0.285 N 
ATOM      2  C   UNL     1       1.783  -2.812  -0.679  0.00  0.00    +0.141 C 
ATOM      3  C   UNL     1       1.360  -4.232  -0.939  0.00  0.00    +0.035 A 
ATOM      4  C   UNL     1       1.646  -5.593  -0.793  0.00  0.00    +0.102 A 
ATOM      5  N   UNL     1       0.665  -6.266  -1.361  0.00  0.00    -0.173 NA
ATOM      6  N   UNL     1      -0.212  -5.464  -1.852  0.00  0.00    -0.272 N 
ATOM      7  H   UNL     1      -1.019  -5.738  -2.315  0.00  0.00    +0.189 HD
ATOM      8  C   UNL     1       0.161  -4.170  -1.622  0.00  0.00    +0.126 A 
ATOM      9  C   UNL     1      -0.201  -2.760  -1.805  0.00  0.00    +0.265 C 
ATOM     10  O   UNL     1      -1.206  -2.368  -2.367  0.00  0.00    -0.268 OA
ENDROOT
BRANCH   4  11
ATOM     11  C   UNL     1       2.836  -6.174  -0.122  0.00  0.00    +0.044 A 
ATOM     12  C   UNL     1       3.797  -5.339   0.443  0.00  0.00    +0.017 A 
ATOM     13  C   UNL     1       4.902  -5.883   1.066  0.00  0.00    -0.049 A 
ATOM     14  C   UNL     1       5.059  -7.257   1.131  0.00  0.00    +0.010 A 
ATOM     15  C   UNL     1       4.111  -8.094   0.574  0.00  0.00    -0.008 A 
ATOM     16  C   UNL     1       2.994  -7.560  -0.050  0.00  0.00    +0.129 A 
ATOM     17  C   UNL     1       4.289  -9.588   0.649  0.00  0.00    +0.047 C 
ATOM     18  C   UNL     1       5.941  -4.979   1.677  0.00  0.00    +0.044 C 
BRANCH  16  19
ATOM     19  O   UNL     1       2.059  -8.383  -0.594  0.00  0.00    -0.506 OA
ATOM     20  H   UNL     1       2.226  -8.611  -1.518  0.00  0.00    +0.292 HD
ENDBRANCH  16  19
ENDBRANCH   4  11
BRANCH   2  21
ATOM     21  C   UNL     1       3.108  -2.535  -1.341  0.00  0.00    -0.019 A 
ATOM     22  C   UNL     1       3.167  -2.319  -2.706  0.00  0.00    +0.006 A 
ATOM     23  C   UNL     1       4.381  -2.065  -3.316  0.00  0.00    +0.004 A 
ATOM     24  C   UNL     1       5.539  -2.026  -2.564  0.00  0.00    +0.045 A 
ATOM     25  C   UNL     1       5.483  -2.242  -1.195  0.00  0.00    +0.121 A 
ATOM     26  C   UNL     1       4.262  -2.491  -0.584  0.00  0.00    +0.051 A 
BRANCH  25  27
ATOM     27  O   UNL     1       6.621  -2.204  -0.453  0.00  0.00    -0.492 OA
BRANCH  27  28
ATOM     28  C   UNL     1       7.840  -1.937  -1.148  0.00  0.00    +0.225 C 
ATOM     29  C   UNL     1       9.004  -1.934  -0.154  0.00  0.00    +0.048 C 
ENDBRANCH  27  28
ENDBRANCH  25  27
ENDBRANCH   2  21
BRANCH   1  30
ATOM     30  C   UNL     1       0.718  -0.497  -1.257  0.00  0.00    +0.109 C 
BRANCH  30  32
ATOM     31  C   UNL     1      -0.019   1.526   0.010  0.00  0.00    +0.005 C 
ATOM     32  C   UNL     1       0.002  -0.004   0.002  0.00  0.00    +0.016 C 
ENDBRANCH  30  32
ENDBRANCH   1  30
TORSDOF 7
