REMARK  Name = ZINC61147663
REMARK  5 active torsions:
REMARK  status: ('A' for Active; 'I' for Inactive)
REMARK    1  A    between atoms: C_6  and  S_7
REMARK    2  A    between atoms: S_7  and  N_10
REMARK    3  A    between atoms: N_10  and  C_11
REMARK    4  A    between atoms: C_11  and  C_12
REMARK    5  A    between atoms: N_18  and  N_19
REMARK                            x       y       z     vdW  Elec       q    Type
REMARK                         _______ _______ _______ _____ _____    ______ ____
ROOT
ATOM      1  C   UNL     1       1.190  -0.463   0.739  0.00  0.00    +0.048 A 
ATOM      2  C   UNL     1       2.421   0.153   0.553  0.00  0.00    +0.038 A 
ATOM      3  C   UNL     1       2.587   1.028  -0.503  0.00  0.00    +0.128 A 
ATOM      4  N   UNL     1       1.593   1.283  -1.333  0.00  0.00    -0.236 NA
ATOM      5  C   UNL     1       0.406   0.716  -1.189  0.00  0.00    +0.159 A 
ATOM      6  C   UNL     1       0.168  -0.175  -0.147  0.00  0.00    +0.147 A 
ATOM      7  N   UNL     1      -0.614   1.015  -2.086  0.00  0.00    -0.266 N 
ATOM      8 BR   UNL     1       3.855  -0.202   1.734  0.00  0.00    -0.049 Br
ATOM      9  H   UNL     1      -1.455   0.534  -2.042  0.00  0.00    +0.167 HD
ENDROOT
BRANCH   6  10
ATOM     10  S   UNL     1      -1.415  -0.927   0.040  0.00  0.00    +0.062 S 
ATOM     11  O   UNL     1      -1.317  -1.807   1.152  0.00  0.00    -0.153 OA
ATOM     12  O   UNL     1      -2.372   0.120  -0.021  0.00  0.00    -0.153 OA
BRANCH  10  13
ATOM     13  N   UNL     1      -1.666  -1.877  -1.293  0.00  0.00    -0.190 NA
ATOM     14  H   UNL     1      -2.381  -1.663  -1.913  0.00  0.00    +0.148 HD
BRANCH  13  15
ATOM     15  C   UNL     1      -0.808  -3.039  -1.537  0.00  0.00    +0.111 C 
BRANCH  15  16
ATOM     16  C   UNL     1      -1.461  -3.944  -2.584  0.00  0.00    +0.032 C 
ATOM     17  C   UNL     1      -0.612  -5.220  -2.803  0.00  0.00    +0.035 C 
ATOM     18  C   UNL     1      -0.691  -5.404  -4.340  0.00  0.00    +0.160 C 
ATOM     19  O   UNL     1      -0.657  -4.051  -4.843  0.00  0.00    -0.379 OA
ATOM     20  C   UNL     1      -1.472  -3.254  -3.962  0.00  0.00    +0.164 C 
ENDBRANCH  15  16
ENDBRANCH  13  15
ENDBRANCH  10  13
ENDBRANCH   6  10
BRANCH   7  21
ATOM     21  N   UNL     1      -0.430   1.986  -3.029  0.00  0.00    -0.255 NA
ATOM     22  H   UNL     1      -1.252   2.090  -3.606  0.00  0.00    +0.140 HD
ATOM     23  H   UNL     1      -0.176   2.863  -2.601  0.00  0.00    +0.140 HD
ENDBRANCH   7  21
TORSDOF 5
