REMARK  Name = ZINC51004064
REMARK  5 active torsions:
REMARK  status: ('A' for Active; 'I' for Inactive)
REMARK    1  A    between atoms: C_3  and  N_15
REMARK    2  A    between atoms: C_6  and  C_7
REMARK    3  A    between atoms: C_7  and  N_8
REMARK    4  A    between atoms: C_12  and  C_13
REMARK    5  A    between atoms: C_13  and  N_14
REMARK                            x       y       z     vdW  Elec       q    Type
REMARK                         _______ _______ _______ _____ _____    ______ ____
ROOT
ATOM      1  C   UNL     1      -1.289  -0.773   0.009  0.00  0.00    +0.158 C 
ENDROOT
BRANCH   1   7
ATOM      2  C   UNL     1       0.097   1.311  -0.052  0.00  0.00    +0.007 A 
ATOM      3  C   UNL     1       1.319   1.956  -0.069  0.00  0.00    +0.033 A 
ATOM      4  C   UNL     1       2.489   1.220  -0.042  0.00  0.00    +0.126 A 
ATOM      5  C   UNL     1       2.437  -0.161   0.001  0.00  0.00    +0.033 A 
ATOM      6  C   UNL     1       1.214  -0.805   0.018  0.00  0.00    +0.007 A 
ATOM      7  C   UNL     1       0.044  -0.070  -0.009  0.00  0.00    -0.028 A 
BRANCH   4   8
ATOM      8  N   UNL     1       3.798   1.911  -0.061  0.00  0.00    +0.056 N 
ATOM      9  O   UNL     1       3.845   3.118  -0.099  0.00  0.00    -0.126 OA
ATOM     10  O   UNL     1       4.822   1.267  -0.038  0.00  0.00    -0.126 OA
ENDBRANCH   4   8
ENDBRANCH   1   7
BRANCH   1  11
ATOM     11  N   UNL     1      -1.785  -0.913  -1.363  0.00  0.00    -0.331 N 
ATOM     12  C   UNL     1      -2.620  -0.048  -2.017  0.00  0.00    +0.107 A 
ATOM     13  C   UNL     1      -2.820  -0.556  -3.248  0.00  0.00    +0.130 A 
ATOM     14  N   UNL     1      -2.126  -1.699  -3.343  0.00  0.00    -0.243 NA
ATOM     15  C   UNL     1      -1.499  -1.917  -2.219  0.00  0.00    +0.092 A 
BRANCH  15  16
ATOM     16  C   UNL     1      -0.608  -3.096  -1.925  0.00  0.00    -0.011 C 
BRANCH  16  17
ATOM     17  N   UNL     1      -1.427  -4.230  -1.477  0.00  0.00    +0.383 N 
ATOM     18  H   UNL     1      -1.930  -3.972  -0.642  0.00  0.00    -0.089 HD
ATOM     19  H   UNL     1      -2.083  -4.478  -2.202  0.00  0.00    -0.089 HD
ATOM     20  H   UNL     1      -0.830  -5.019  -1.280  0.00  0.00    -0.089 HD
ENDBRANCH  16  17
ENDBRANCH  15  16
ENDBRANCH   1  11
TORSDOF 5
