REMARK  Name = ZINC35128973
REMARK  8 active torsions:
REMARK  status: ('A' for Active; 'I' for Inactive)
REMARK    1  A    between atoms: C_1  and  C_2
REMARK    2  A    between atoms: C_2  and  C_3
REMARK    3  A    between atoms: C_3  and  N_4
REMARK    4  A    between atoms: C_8  and  C_10
REMARK    5  A    between atoms: C_10  and  O_11
REMARK    6  A    between atoms: O_11  and  C_12
REMARK    7  A    between atoms: C_12  and  C_14
REMARK    8  A    between atoms: C_16  and  N_22
REMARK                            x       y       z     vdW  Elec       q    Type
REMARK                         _______ _______ _______ _____ _____    ______ ____
ROOT
ATOM      1  C   UNL     1       2.716  -7.932  -4.657  0.00  0.00    +0.360 C 
ATOM      2  O   UNL     1       2.253  -8.682  -3.823  0.00  0.00    -0.243 OA
ENDROOT
BRANCH   1   3
ATOM      3  C   UNL     1       3.396  -8.481  -5.851  0.00  0.00    +0.169 A 
ATOM      4  C   UNL     1       3.496  -9.861  -6.013  0.00  0.00    +0.095 A 
ATOM      5  C   UNL     1       4.140 -10.363  -7.145  0.00  0.00    +0.067 A 
ATOM      6  C   UNL     1       4.658  -9.457  -8.068  0.00  0.00    +0.100 A 
ATOM      7  C   UNL     1       4.519  -8.097  -7.835  0.00  0.00    +0.150 A 
ATOM      8  N   UNL     1       3.901  -7.654  -6.760  0.00  0.00    -0.226 NA
ATOM      9 CL   UNL     1       5.162  -6.963  -8.981  0.00  0.00    -0.060 Cl
ATOM     10 CL   UNL     1       5.470 -10.024  -9.494  0.00  0.00    -0.078 Cl
ATOM     11 CL   UNL     1       2.830 -10.938  -4.827  0.00  0.00    -0.079 Cl
BRANCH   5  12
ATOM     12  N   UNL     1       4.262 -11.736  -7.346  0.00  0.00    -0.356 N 
ATOM     13  H   UNL     1       3.897 -12.356  -6.696  0.00  0.00    +0.142 HD
ATOM     14  H   UNL     1       4.712 -12.072  -8.137  0.00  0.00    +0.142 HD
ENDBRANCH   5  12
ENDBRANCH   1   3
BRANCH   1  15
ATOM     15  O   UNL     1       2.612  -6.598  -4.496  0.00  0.00    -0.451 OA
BRANCH  15  16
ATOM     16  C   UNL     1       1.943  -6.138  -3.321  0.00  0.00    +0.328 C 
BRANCH  16  21
ATOM     17  N   UNL     1       0.738  -1.962  -1.265  0.00  0.00    -0.299 N 
ATOM     18  C   UNL     1       1.321  -2.623  -2.285  0.00  0.00    +0.306 C 
ATOM     19  O   UNL     1       1.830  -2.003  -3.198  0.00  0.00    -0.252 OA
ATOM     20  N   UNL     1       1.339  -3.970  -2.292  0.00  0.00    -0.237 N 
ATOM     21  C   UNL     1       1.922  -4.631  -3.312  0.00  0.00    +0.258 C 
ATOM     22  O   UNL     1       2.430  -4.013  -4.223  0.00  0.00    -0.272 OA
ATOM     23  H   UNL     1       0.332  -2.457  -0.536  0.00  0.00    +0.150 HD
ATOM     24  H   UNL     1       0.933  -4.465  -1.563  0.00  0.00    +0.159 HD
BRANCH  17  25
ATOM     25  C   UNL     1       0.718  -0.497  -1.257  0.00  0.00    +0.105 C 
BRANCH  25  27
ATOM     26  C   UNL     1      -0.019   1.526   0.010  0.00  0.00    +0.005 C 
ATOM     27  C   UNL     1       0.002  -0.004   0.002  0.00  0.00    +0.015 C 
ENDBRANCH  25  27
ENDBRANCH  17  25
ENDBRANCH  16  21
ENDBRANCH  15  16
ENDBRANCH   1  15
TORSDOF 7
