REMARK  Name = ZINC39835647
REMARK  11 active torsions:
REMARK  status: ('A' for Active; 'I' for Inactive)
REMARK    1  A    between atoms: C_1  and  C_2
REMARK    2  A    between atoms: C_2  and  C_3
REMARK    3  A    between atoms: C_6  and  O_9
REMARK    4  A    between atoms: O_9  and  C_10
REMARK    5  A    between atoms: C_11  and  C_21
REMARK    6  A    between atoms: N_25  and  C_29
REMARK    7  A    between atoms: C_29  and  C_30
REMARK    8  A    between atoms: C_30  and  C_31
REMARK    9  A    between atoms: C_31  and  C_32
REMARK   10  A    between atoms: C_32  and  C_33
REMARK   11  A    between atoms: C_33  and  C_34
REMARK                            x       y       z     vdW  Elec       q    Type
REMARK                         _______ _______ _______ _____ _____    ______ ____
ROOT
ATOM      1  C   UNL     1      -5.717  -2.404  -0.854  0.00  0.00    +0.235 A 
ATOM      2  C   UNL     1      -7.105  -2.555  -1.072  0.00  0.00    +0.103 A 
ATOM      3  C   UNL     1      -7.581  -2.547  -2.405  0.00  0.00    +0.269 A 
ATOM      4  O   UNL     1      -8.770  -2.675  -2.640  0.00  0.00    -0.266 OA
ATOM      5  N   UNL     1      -6.694  -2.397  -3.413  0.00  0.00    -0.268 N 
ATOM      6  C   UNL     1      -7.142  -2.388  -4.700  0.00  0.00    +0.096 A 
ATOM      7  C   UNL     1      -6.280  -2.239  -5.732  0.00  0.00    +0.018 A 
ATOM      8  C   UNL     1      -4.909  -2.092  -5.486  0.00  0.00    +0.005 A 
ATOM      9  C   UNL     1      -4.451  -2.099  -4.202  0.00  0.00    +0.047 A 
ATOM     10  C   UNL     1      -5.362  -2.254  -3.142  0.00  0.00    +0.144 A 
ATOM     11  N   UNL     1      -4.906  -2.256  -1.888  0.00  0.00    -0.194 NA
ENDROOT
BRANCH   2  12
ATOM     12  C   UNL     1      -7.997  -2.711   0.016  0.00  0.00    +0.039 C 
ATOM     13  C   UNL     1      -8.044  -1.767   1.000  0.00  0.00    +0.077 C 
ATOM     14  C   UNL     1      -7.385  -0.506   1.079  0.00  0.00    +0.258 C 
ATOM     15  O   UNL     1      -6.651  -0.126   0.184  0.00  0.00    -0.269 OA
ATOM     16  N   UNL     1      -7.593   0.239   2.150  0.00  0.00    -0.255 N 
ATOM     17  C   UNL     1      -8.408  -0.183   3.143  0.00  0.00    +0.121 C 
ATOM     18  S   UNL     1      -8.818   0.609   4.604  0.00  0.00    -0.027 S 
ATOM     19  S   UNL     1      -8.954  -1.772   2.538  0.00  0.00    -0.061 S 
BRANCH  16  20
ATOM     20  C   UNL     1      -6.932   1.542   2.264  0.00  0.00    +0.115 C 
BRANCH  20  21
ATOM     21  C   UNL     1      -7.824   2.622   1.648  0.00  0.00    +0.019 C 
BRANCH  21  22
ATOM     22  C   UNL     1      -7.133   3.982   1.767  0.00  0.00    +0.002 C 
BRANCH  22  23
ATOM     23  C   UNL     1      -8.024   5.062   1.151  0.00  0.00    +0.011 C 
BRANCH  23  24
ATOM     24  C   UNL     1      -7.333   6.422   1.270  0.00  0.00    +0.125 C 
BRANCH  24  25
ATOM     25  C   UNL     1      -8.211   7.486   0.664  0.00  0.00    +0.356 C 
ATOM     26  O   UNL     1      -9.290   7.185   0.182  0.00  0.00    -0.246 OA
ATOM     27  O   UNL     1      -7.843   8.649   0.655  0.00  0.00    -0.246 OA
ENDBRANCH  24  25
ENDBRANCH  23  24
ENDBRANCH  22  23
ENDBRANCH  21  22
ENDBRANCH  20  21
ENDBRANCH  16  20
ENDBRANCH   2  12
BRANCH   1  28
ATOM     28  O   UNL     1      -5.222  -2.405   0.405  0.00  0.00    -0.437 OA
BRANCH  28  32
ATOM     29  C   UNL     1      -1.196  -1.658   0.904  0.00  0.00    -0.047 A 
ATOM     30  C   UNL     1      -2.060  -0.618   0.618  0.00  0.00    +0.007 A 
ATOM     31  C   UNL     1      -3.409  -0.865   0.451  0.00  0.00    +0.046 A 
ATOM     32  C   UNL     1      -3.896  -2.159   0.569  0.00  0.00    +0.130 A 
ATOM     33  C   UNL     1      -3.026  -3.202   0.855  0.00  0.00    +0.046 A 
ATOM     34  C   UNL     1      -1.677  -2.950   1.017  0.00  0.00    +0.007 A 
BRANCH  29  36
ATOM     35  C   UNL     1       0.986  -1.496  -0.264  0.00  0.00    +0.009 C 
ATOM     36  C   UNL     1       0.275  -1.385   1.086  0.00  0.00    +0.032 C 
ENDBRANCH  29  36
ENDBRANCH  28  32
ENDBRANCH   1  28
TORSDOF 10
