REMARK  Name = ZINC28629599
REMARK  14 active torsions:
REMARK  status: ('A' for Active; 'I' for Inactive)
REMARK    1  A    between atoms: C_3  and  C_6
REMARK    2  A    between atoms: C_6  and  N_8
REMARK    3  A    between atoms: C_6  and  O_36
REMARK    4  A    between atoms: N_8  and  C_9
REMARK    5  A    between atoms: N_8  and  C_17
REMARK    6  A    between atoms: C_9  and  C_11
REMARK    7  A    between atoms: C_9  and  O_16
REMARK    8  A    between atoms: C_17  and  N_19
REMARK    9  A    between atoms: N_19  and  C_20
REMARK   10  A    between atoms: N_19  and  C_28
REMARK   11  A    between atoms: C_20  and  C_22
REMARK   12  A    between atoms: C_20  and  O_27
REMARK   13  A    between atoms: C_28  and  C_30
REMARK   14  A    between atoms: C_28  and  O_35
REMARK                            x       y       z     vdW  Elec       q    Type
REMARK                         _______ _______ _______ _____ _____    ______ ____
ROOT
ATOM      1  C   UNL     1       2.698  -2.536  -0.361  0.00  0.00    +0.144 C 
ATOM      2  S   UNL     1       2.110  -1.278   0.640  0.00  0.00    -0.018 S 
ENDROOT
BRANCH   1   3
ATOM      3  N   UNL     1       1.835  -3.306  -1.052  0.00  0.00    -0.248 N 
BRANCH   3   4
ATOM      4  C   UNL     1       0.410  -2.968  -1.078  0.00  0.00    +0.274 C 
BRANCH   4   7
ATOM      5  C   UNL     1      -0.807  -0.844  -3.833  0.00  0.00    +0.041 A 
ATOM      6  C   UNL     1      -0.861  -1.282  -2.490  0.00  0.00    +0.049 A 
ATOM      7  C   UNL     1       0.095  -2.217  -2.346  0.00  0.00    +0.152 A 
ATOM      8  O   UNL     1       0.721  -2.369  -3.525  0.00  0.00    -0.463 OA
ATOM      9  C   UNL     1       0.178  -1.539  -4.431  0.00  0.00    +0.195 A 
ENDBRANCH   4   7
BRANCH   4  10
ATOM     10  O   UNL     1      -0.365  -4.167  -1.029  0.00  0.00    -0.367 OA
ATOM     11  H   UNL     1       0.083  -4.941  -1.398  0.00  0.00    +0.212 HD
ENDBRANCH   4  10
ENDBRANCH   3   4
BRANCH   3  12
ATOM     12  C   UNL     1       2.322  -4.482  -1.778  0.00  0.00    +0.274 C 
BRANCH  12  13
ATOM     13  C   UNL     1       2.279  -5.685  -0.871  0.00  0.00    +0.152 A 
ATOM     14  C   UNL     1       2.662  -6.932  -1.200  0.00  0.00    +0.049 A 
ATOM     15  C   UNL     1       2.454  -7.739  -0.058  0.00  0.00    +0.041 A 
ATOM     16  C   UNL     1       1.956  -6.937   0.900  0.00  0.00    +0.195 A 
ATOM     17  O   UNL     1       1.858  -5.693   0.404  0.00  0.00    -0.463 OA
ENDBRANCH  12  13
BRANCH  12  18
ATOM     18  O   UNL     1       1.492  -4.716  -2.918  0.00  0.00    -0.367 OA
ATOM     19  H   UNL     1       1.750  -4.211  -3.702  0.00  0.00    +0.212 HD
ENDBRANCH  12  18
ENDBRANCH   3  12
ENDBRANCH   1   3
BRANCH   1  20
ATOM     20  N   UNL     1       4.024  -2.756  -0.458  0.00  0.00    -0.248 N 
BRANCH  20  21
ATOM     21  C   UNL     1       4.918  -2.336   0.624  0.00  0.00    +0.274 C 
BRANCH  21  22
ATOM     22  C   UNL     1       6.021  -3.350   0.788  0.00  0.00    +0.152 A 
ATOM     23  C   UNL     1       7.267  -3.093   1.224  0.00  0.00    +0.049 A 
ATOM     24  C   UNL     1       7.963  -4.323   1.222  0.00  0.00    +0.041 A 
ATOM     25  C   UNL     1       7.100  -5.258   0.785  0.00  0.00    +0.195 A 
ATOM     26  O   UNL     1       5.924  -4.664   0.529  0.00  0.00    -0.463 OA
ENDBRANCH  21  22
BRANCH  21  27
ATOM     27  O   UNL     1       4.177  -2.236   1.842  0.00  0.00    -0.367 OA
ATOM     28  H   UNL     1       3.937  -3.090   2.227  0.00  0.00    +0.212 HD
ENDBRANCH  21  27
ENDBRANCH  20  21
BRANCH  20  29
ATOM     29  C   UNL     1       4.573  -3.416  -1.646  0.00  0.00    +0.274 C 
BRANCH  29  30
ATOM     30  C   UNL     1       3.750  -3.044  -2.852  0.00  0.00    +0.152 A 
ATOM     31  C   UNL     1       3.652  -3.757  -3.988  0.00  0.00    +0.049 A 
ATOM     32  C   UNL     1       2.782  -3.044  -4.846  0.00  0.00    +0.041 A 
ATOM     33  C   UNL     1       2.400  -1.939  -4.182  0.00  0.00    +0.195 A 
ATOM     34  O   UNL     1       2.984  -1.946  -2.973  0.00  0.00    -0.463 OA
ENDBRANCH  29  30
BRANCH  29  35
ATOM     35  O   UNL     1       4.536  -4.833  -1.463  0.00  0.00    -0.367 OA
ATOM     36  H   UNL     1       5.046  -5.144  -0.703  0.00  0.00    +0.212 HD
ENDBRANCH  29  35
ENDBRANCH  20  29
ENDBRANCH   1  20
TORSDOF 14
