REMARK  Name = ZINC12923658
REMARK  3 active torsions:
REMARK  status: ('A' for Active; 'I' for Inactive)
REMARK    1  A    between atoms: C_6  and  C_7
REMARK    2  A    between atoms: C_17  and  N_21
REMARK    3  A    between atoms: C_18  and  C_19
REMARK                            x       y       z     vdW  Elec       q    Type
REMARK                         _______ _______ _______ _____ _____    ______ ____
ROOT
ATOM      1  C   UNL     1       1.307   0.747  -4.586  0.00  0.00    +0.052 A 
ATOM      2  C   UNL     1      -0.001   0.318  -4.422  0.00  0.00    +0.116 A 
ATOM      3  N   UNL     1      -0.637   0.602  -3.298  0.00  0.00    -0.223 NA
ATOM      4  C   UNL     1      -0.041   1.296  -2.339  0.00  0.00    +0.219 A 
ATOM      5  N   UNL     1       1.208   1.720  -2.464  0.00  0.00    -0.210 NA
ATOM      6  C   UNL     1       1.902   1.466  -3.562  0.00  0.00    +0.149 A 
ATOM      7  N   UNL     1      -0.738   1.580  -1.178  0.00  0.00    -0.294 N 
ATOM      8  C   UNL     1      -1.003   3.021  -1.062  0.00  0.00    +0.113 C 
ATOM      9  C   UNL     1      -2.076   3.275   0.002  0.00  0.00    +0.056 C 
ATOM     10  C   UNL     1      -1.659   2.552   1.277  0.00  0.00    -0.015 A 
ATOM     11  C   UNL     1      -0.725   1.574   1.230  0.00  0.00    +0.013 A 
ATOM     12  S   UNL     1      -0.557   1.030   2.904  0.00  0.00    -0.076 S 
ATOM     13  C   UNL     1      -1.709   2.082   3.658  0.00  0.00    +0.081 A 
ATOM     14  C   UNL     1      -2.198   2.831   2.596  0.00  0.00    +0.083 A 
ATOM     15  C   UNL     1      -0.013   1.086   0.008  0.00  0.00    +0.150 C 
ENDROOT
BRANCH   6  16
ATOM     16  C   UNL     1       3.322   1.951  -3.695  0.00  0.00    +0.434 C 
ATOM     17  F   UNL     1       3.727   2.545  -2.495  0.00  0.00    -0.164 F 
ATOM     18  F   UNL     1       4.160   0.869  -3.986  0.00  0.00    -0.164 F 
ATOM     19  F   UNL     1       3.398   2.891  -4.729  0.00  0.00    -0.164 F 
ENDBRANCH   6  16
BRANCH  13  20
ATOM     20  N   UNL     1      -2.058   2.157   4.995  0.00  0.00    -0.352 N 
ATOM     21  H   UNL     1      -2.725   2.798   5.287  0.00  0.00    +0.143 HD
ATOM     22  H   UNL     1      -1.635   1.569   5.641  0.00  0.00    +0.143 HD
ENDBRANCH  13  20
BRANCH  14  23
ATOM     23  C   UNL     1      -3.194   3.840   2.793  0.00  0.00    +0.102 C 
ATOM     24  N   UNL     1      -3.985   4.641   2.950  0.00  0.00    -0.191 NA
ENDBRANCH  14  23
TORSDOF 3
