REMARK  Name = ZINC38776582
REMARK  4 active torsions:
REMARK  status: ('A' for Active; 'I' for Inactive)
REMARK    1  A    between atoms: C_1  and  C_2
REMARK    2  A    between atoms: C_2  and  C_4
REMARK    3  A    between atoms: C_2  and  N_21
REMARK    4  A    between atoms: C_22  and  C_24
REMARK                            x       y       z     vdW  Elec       q    Type
REMARK                         _______ _______ _______ _____ _____    ______ ____
ROOT
ATOM      1  C   UNL     1      -1.420  -0.486   0.130  0.00  0.00    +0.236 C 
ATOM      2  O   UNL     1      -1.880  -1.244  -0.698  0.00  0.00    -0.274 OA
ATOM      3  N   UNL     1      -2.181  -0.075   1.163  0.00  0.00    -0.300 N 
ATOM      4  C   UNL     1      -1.679   0.932   2.108  0.00  0.00    +0.106 C 
ATOM      5  C   UNL     1      -1.800   0.377   3.531  0.00  0.00    +0.009 C 
ATOM      6  C   UNL     1      -3.244  -0.059   3.783  0.00  0.00    -0.037 C 
ATOM      7  C   UNL     1      -3.631  -1.162   2.797  0.00  0.00    +0.009 C 
ATOM      8  C   UNL     1      -3.531  -0.619   1.363  0.00  0.00    +0.106 C 
ATOM      9  C   UNL     1      -3.383  -0.578   5.215  0.00  0.00    +0.140 C 
ATOM     10  C   UNL     1      -4.870  -0.853   5.413  0.00  0.00    +0.042 C 
ATOM     11  N   UNL     1      -4.960  -2.074   5.772  0.00  0.00    -0.243 NA
ATOM     12  C   UNL     1      -3.752  -2.691   5.754  0.00  0.00    +0.216 C 
ATOM     13  N   UNL     1      -2.765  -1.890   5.413  0.00  0.00    -0.264 NA
ATOM     14  C   UNL     1      -5.913   0.182   5.077  0.00  0.00    +0.034 C 
ATOM     15  C   UNL     1      -5.555   0.703   3.672  0.00  0.00    -0.076 C 
ATOM     16  N   UNL     1      -4.144   1.091   3.615  0.00  0.00    +0.385 N 
ATOM     17  H   UNL     1      -3.959   1.760   4.347  0.00  0.00    -0.085 HD
ATOM     18  H   UNL     1      -3.959   1.524   2.723  0.00  0.00    -0.085 HD
ENDROOT
BRANCH   1  20
ATOM     19  C   UNL     1       0.018   1.369  -0.670  0.00  0.00    +0.038 C 
ATOM     20  C   UNL     1       0.003  -0.005   0.003  0.00  0.00    +0.156 C 
BRANCH  20  21
ATOM     21  N   UNL     1       0.769  -0.955  -0.808  0.00  0.00    -0.300 N 
ATOM     22  C   UNL     1       2.106  -1.042  -0.661  0.00  0.00    +0.251 C 
ATOM     23  O   UNL     1       2.676  -0.331   0.145  0.00  0.00    -0.270 OA
ATOM     24  H   UNL     1       0.314  -1.522  -1.450  0.00  0.00    +0.150 HD
BRANCH  22  25
ATOM     25  C   UNL     1       2.872  -1.992  -1.472  0.00  0.00    +0.074 A 
ATOM     26  C   UNL     1       4.237  -2.239  -1.472  0.00  0.00    +0.021 A 
ATOM     27  C   UNL     1       4.669  -3.200  -2.354  0.00  0.00    +0.008 A 
ATOM     28  C   UNL     1       3.761  -3.826  -3.144  0.00  0.00    +0.046 A 
ATOM     29  S   UNL     1       2.292  -3.136  -2.710  0.00  0.00    -0.092 S 
ENDBRANCH  22  25
ENDBRANCH  20  21
ENDBRANCH   1  20
TORSDOF 3
