REMARK  Name = ZINC48907616
REMARK  4 active torsions:
REMARK  status: ('A' for Active; 'I' for Inactive)
REMARK    1  A    between atoms: C_1  and  C_2
REMARK    2  A    between atoms: C_2  and  C_3
REMARK    3  A    between atoms: N_6  and  C_9
REMARK    4  A    between atoms: C_14  and  N_15
REMARK                            x       y       z     vdW  Elec       q    Type
REMARK                         _______ _______ _______ _____ _____    ______ ____
ROOT
ATOM      1  C   UNL     1       0.502  -2.880  -4.661  0.00  0.00    +0.054 A 
ATOM      2  C   UNL     1       1.361  -3.171  -5.710  0.00  0.00    +0.074 A 
ATOM      3  C   UNL     1       0.962  -4.039  -6.715  0.00  0.00    +0.164 A 
ATOM      4  C   UNL     1      -0.299  -4.620  -6.672  0.00  0.00    +0.164 A 
ATOM      5  C   UNL     1      -1.161  -4.329  -5.624  0.00  0.00    +0.074 A 
ATOM      6  C   UNL     1      -0.762  -3.465  -4.615  0.00  0.00    +0.050 A 
ATOM      7  O   UNL     1      -0.704  -5.480  -7.647  0.00  0.00    -0.485 OA
ATOM      8  C   UNL     1       0.037  -5.460  -8.872  0.00  0.00    +0.270 C 
ATOM      9  C   UNL     1       1.532  -5.469  -8.529  0.00  0.00    +0.270 C 
ATOM     10  O   UNL     1       1.818  -4.309  -7.740  0.00  0.00    -0.485 OA
ENDROOT
BRANCH   1  14
ATOM     11  C   UNL     1       0.718  -0.497  -1.257  0.00  0.00    -0.008 C 
ATOM     12  C   UNL     1      -0.089  -0.095  -2.493  0.00  0.00    +0.022 C 
ATOM     13  C   UNL     1       0.648  -0.560  -3.753  0.00  0.00    +0.105 C 
ATOM     14  N   UNL     1       0.907  -2.003  -3.644  0.00  0.00    -0.328 N 
ATOM     15  C   UNL     1       1.597  -2.509  -2.450  0.00  0.00    +0.105 C 
ATOM     16  C   UNL     1       0.849  -2.021  -1.205  0.00  0.00    +0.022 C 
BRANCH  11  18
ATOM     17  C   UNL     1      -0.019   1.526   0.010  0.00  0.00    +0.004 C 
ATOM     18  C   UNL     1       0.002  -0.004   0.002  0.00  0.00    +0.000 C 
ENDBRANCH  11  18
ENDBRANCH   1  14
BRANCH   6  19
ATOM     19  N   UNL     1      -1.631  -3.177  -3.553  0.00  0.00    -0.356 N 
ATOM     20  H   UNL     1      -1.353  -2.569  -2.850  0.00  0.00    +0.142 HD
ATOM     21  H   UNL     1      -2.511  -3.584  -3.522  0.00  0.00    +0.142 HD
ENDBRANCH   6  19
TORSDOF 3
