REMARK  Name = ZINC06707325
REMARK  12 active torsions:
REMARK  status: ('A' for Active; 'I' for Inactive)
REMARK    1  A    between atoms: C_1  and  C_2
REMARK    2  A    between atoms: C_2  and  C_3
REMARK    3  A    between atoms: C_3  and  C_5
REMARK    4  A    between atoms: C_3  and  C_6
REMARK    5  A    between atoms: C_6  and  C_8
REMARK    6  A    between atoms: C_6  and  N_48
REMARK    7  A    between atoms: C_11  and  S_13
REMARK    8  A    between atoms: S_13  and  C_14
REMARK    9  A    between atoms: C_14  and  C_15
REMARK   10  A    between atoms: N_17  and  C_18
REMARK   11  A    between atoms: C_20  and  C_25
REMARK   12  A    between atoms: C_23  and  C_24
REMARK                            x       y       z     vdW  Elec       q    Type
REMARK                         _______ _______ _______ _____ _____    ______ ____
ROOT
ATOM      1  C   UNL     1       4.264   5.858   0.027  0.00  0.00    +0.204 A 
ATOM      2  N   UNL     1       4.683   4.627   0.016  0.00  0.00    -0.113 NA
ATOM      3  N   UNL     1       3.674   3.828   0.020  0.00  0.00    -0.101 NA
ATOM      4  C   UNL     1       2.566   4.529   0.025  0.00  0.00    +0.278 A 
ATOM      5  O   UNL     1       2.917   5.829   0.033  0.00  0.00    -0.417 OA
ENDROOT
BRANCH   1   6
ATOM      6  C   UNL     1       5.128   7.092   0.033  0.00  0.00    +0.017 C 
BRANCH   6   9
ATOM      7  H   UNL     1       5.853   6.845   1.944  0.00  0.00    -0.089 HD
ATOM      8  H   UNL     1       6.790   6.128   0.772  0.00  0.00    -0.089 HD
ATOM      9  N   UNL     1       6.228   6.946   1.002  0.00  0.00    +0.386 N 
ATOM     10  H   UNL     1       6.823   7.782   0.967  0.00  0.00    -0.089 HD
ENDBRANCH   6   9
BRANCH   6  11
ATOM     11  C   UNL     1       5.720   7.307  -1.362  0.00  0.00    -0.020 C 
ATOM     12  C   UNL     1       4.587   7.482  -2.375  0.00  0.00    +0.006 C 
BRANCH  11  14
ATOM     13  C   UNL     1       7.288   8.706  -2.714  0.00  0.00    +0.004 C 
ATOM     14  C   UNL     1       6.597   8.560  -1.356  0.00  0.00    -0.001 C 
ENDBRANCH  11  14
ENDBRANCH   6  11
ENDBRANCH   1   6
BRANCH   4  15
ATOM     15  S   UNL     1       0.924   3.889   0.027  0.00  0.00    -0.056 S 
BRANCH  15  16
ATOM     16  C   UNL     1       1.279   2.114   0.012  0.00  0.00    +0.175 C 
BRANCH  16  17
ATOM     17  C   UNL     1      -0.016   1.343   0.012  0.00  0.00    +0.228 C 
ATOM     18  O   UNL     1      -1.074   1.936   0.017  0.00  0.00    -0.275 OA
ATOM     19  N   UNL     1       0.002  -0.004   0.002  0.00  0.00    -0.285 N 
ATOM     20  H   UNL     1       0.845  -0.477  -0.084  0.00  0.00    +0.155 HD
BRANCH  19  21
ATOM     21  C   UNL     1      -1.194  -0.721   0.115  0.00  0.00    +0.037 A 
ATOM     22  C   UNL     1      -2.295  -0.143   0.735  0.00  0.00    +0.027 A 
ATOM     23  C   UNL     1      -3.476  -0.851   0.840  0.00  0.00    -0.049 A 
ATOM     24  C   UNL     1      -3.560  -2.138   0.339  0.00  0.00    +0.004 A 
ATOM     25  C   UNL     1      -2.465  -2.717  -0.273  0.00  0.00    +0.005 A 
ATOM     26  C   UNL     1      -1.282  -2.012  -0.387  0.00  0.00    -0.029 A 
ATOM     27  C   UNL     1      -0.088  -2.644  -1.055  0.00  0.00    +0.045 C 
ATOM     28  C   UNL     1      -4.673  -0.224   1.508  0.00  0.00    +0.044 C 
ENDBRANCH  19  21
ENDBRANCH  16  17
ENDBRANCH  15  16
ENDBRANCH   4  15
TORSDOF 8
