REMARK  Name = ZINC14550984
REMARK  5 active torsions:
REMARK  status: ('A' for Active; 'I' for Inactive)
REMARK    1  A    between atoms: C_2  and  C_3
REMARK    2  A    between atoms: C_3  and  O_4
REMARK    3  A    between atoms: O_4  and  C_5
REMARK    4  A    between atoms: C_12  and  C_21
REMARK    5  A    between atoms: C_24  and  N_27
REMARK                            x       y       z     vdW  Elec       q    Type
REMARK                         _______ _______ _______ _____ _____    ______ ____
ROOT
ATOM      1  C   UNL     1      -2.709   4.809  -1.983  0.00  0.00    +0.142 A 
ATOM      2  C   UNL     1      -3.859   5.575  -2.027  0.00  0.00    +0.047 A 
ATOM      3  C   UNL     1      -4.727   5.572  -0.951  0.00  0.00    +0.004 A 
ATOM      4  C   UNL     1      -4.445   4.809   0.163  0.00  0.00    +0.006 A 
ATOM      5  C   UNL     1      -3.292   4.034   0.220  0.00  0.00    -0.016 A 
ATOM      6  C   UNL     1      -2.422   4.034  -0.855  0.00  0.00    +0.074 A 
ATOM      7  N   UNL     1      -1.246   3.279  -0.861  0.00  0.00    -0.334 N 
ATOM      8  C   UNL     1      -1.332   2.114   0.020  0.00  0.00    +0.105 C 
ATOM      9  C   UNL     1      -1.647   2.575   1.444  0.00  0.00    +0.029 C 
ATOM     10  C   UNL     1      -3.047   3.227   1.460  0.00  0.00    +0.049 C 
ATOM     11  C   UNL     1      -3.999   2.055   1.531  0.00  0.00    -0.023 C 
ATOM     12  C   UNL     1      -3.385   0.994   1.992  0.00  0.00    -0.030 C 
ATOM     13  C   UNL     1      -1.935   1.310   2.301  0.00  0.00    +0.033 C 
ATOM     14  H   UNL     1      -0.997   3.005  -1.800  0.00  0.00    +0.147 HD
ENDROOT
BRANCH   8  15
ATOM     15  C   UNL     1      -0.017   1.378   0.010  0.00  0.00    -0.027 A 
ATOM     16  C   UNL     1       1.171   2.086   0.002  0.00  0.00    +0.008 A 
ATOM     17  C   UNL     1       2.377   1.411  -0.015  0.00  0.00    +0.033 A 
ATOM     18  C   UNL     1       2.396   0.029  -0.021  0.00  0.00    +0.126 A 
ATOM     19  C   UNL     1       1.208  -0.679  -0.013  0.00  0.00    +0.033 A 
ATOM     20  C   UNL     1       0.002  -0.004   0.002  0.00  0.00    +0.008 A 
BRANCH  18  21
ATOM     21  N   UNL     1       3.688  -0.694  -0.037  0.00  0.00    +0.056 N 
ATOM     22  O   UNL     1       3.704  -1.912  -0.043  0.00  0.00    -0.126 OA
ATOM     23  O   UNL     1       4.734  -0.071  -0.044  0.00  0.00    -0.126 OA
ENDBRANCH  18  21
ENDBRANCH   8  15
BRANCH   1  24
ATOM     24  O   UNL     1      -1.854   4.809  -3.040  0.00  0.00    -0.486 OA
BRANCH  24  25
ATOM     25  C   UNL     1      -2.207   5.622  -4.160  0.00  0.00    +0.256 C 
BRANCH  25  27
ATOM     26  C   UNL     1      -1.498   5.333  -6.479  0.00  0.00    +0.007 C 
ATOM     27  C   UNL     1      -1.150   5.496  -5.227  0.00  0.00    +0.006 C 
ENDBRANCH  25  27
ENDBRANCH  24  25
ENDBRANCH   1  24
TORSDOF 5
