REMARK  Name = ZINC08734795
REMARK  11 active torsions:
REMARK  status: ('A' for Active; 'I' for Inactive)
REMARK    1  A    between atoms: C_1  and  C_2
REMARK    2  A    between atoms: C_3  and  C_28
REMARK    3  A    between atoms: N_4  and  C_21
REMARK    4  A    between atoms: C_5  and  N_9
REMARK    5  A    between atoms: C_6  and  C_7
REMARK    6  A    between atoms: C_10  and  C_12
REMARK    7  A    between atoms: C_12  and  N_52
REMARK    8  A    between atoms: C_13  and  C_15
REMARK    9  A    between atoms: C_13  and  C_16
REMARK   10  A    between atoms: C_13  and  N_52
REMARK   11  A    between atoms: C_21  and  C_22
REMARK                            x       y       z     vdW  Elec       q    Type
REMARK                         _______ _______ _______ _____ _____    ______ ____
ROOT
ATOM      1  C   UNL     1       2.023   1.103  -5.388  0.00  0.00    +0.047 C 
ATOM      2  C   UNL     1       1.040   0.824  -4.280  0.00  0.00    -0.011 A 
ATOM      3  C   UNL     1       0.742   1.633  -3.250  0.00  0.00    +0.022 A 
ATOM      4  N   UNL     1      -0.193   1.026  -2.455  0.00  0.00    -0.329 N 
ATOM      5  C   UNL     1      -0.524  -0.188  -2.965  0.00  0.00    +0.123 A 
ATOM      6  C   UNL     1       0.219  -0.382  -4.121  0.00  0.00    +0.095 A 
ATOM      7  C   UNL     1       1.345   2.992  -3.006  0.00  0.00    +0.064 C 
ENDROOT
BRANCH   5   8
ATOM      8  N   UNL     1      -1.442  -1.077  -2.426  0.00  0.00    -0.272 N 
ATOM      9  C   UNL     1      -1.282  -2.403  -2.606  0.00  0.00    +0.201 C 
ATOM     10  O   UNL     1      -0.281  -2.825  -3.146  0.00  0.00    -0.278 OA
ATOM     11  H   UNL     1      -2.199  -0.745  -1.919  0.00  0.00    +0.156 HD
BRANCH   9  12
ATOM     12  C   UNL     1      -2.346  -3.361  -2.137  0.00  0.00    +0.016 C 
BRANCH  12  13
ATOM     13  N   UNL     1      -1.928  -4.740  -2.452  0.00  0.00    +0.391 N 
ATOM     14  H   UNL     1      -1.042  -4.943  -1.975  0.00  0.00    -0.084 HD
ATOM     15  H   UNL     1      -1.799  -4.832  -3.466  0.00  0.00    -0.084 HD
BRANCH  13  16
ATOM     16  C   UNL     1      -2.953  -5.702  -2.003  0.00  0.00    -0.007 C 
ATOM     17  C   UNL     1      -2.727  -6.037  -0.527  0.00  0.00    -0.006 C 
BRANCH  16  18
ATOM     18  C   UNL     1      -2.846  -6.959  -2.826  0.00  0.00    +0.091 A 
ATOM     19  C   UNL     1      -3.878  -7.686  -3.290  0.00  0.00    +0.043 A 
ATOM     20  C   UNL     1      -3.325  -8.773  -4.006  0.00  0.00    +0.041 A 
ATOM     21  C   UNL     1      -1.988  -8.645  -3.936  0.00  0.00    +0.195 A 
ATOM     22  O   UNL     1      -1.703  -7.542  -3.225  0.00  0.00    -0.469 OA
ENDBRANCH  16  18
ENDBRANCH  13  16
ENDBRANCH  12  13
ENDBRANCH   9  12
ENDBRANCH   5   8
BRANCH   6  23
ATOM     23  C   UNL     1       0.190  -1.526  -4.982  0.00  0.00    +0.103 C 
ATOM     24  N   UNL     1       0.168  -2.433  -5.666  0.00  0.00    -0.191 NA
ENDBRANCH   6  23
BRANCH   4  25
ATOM     25  C   UNL     1      -0.759   1.606  -1.234  0.00  0.00    +0.154 C 
BRANCH  25  26
ATOM     26  C   UNL     1       0.018   1.095  -0.019  0.00  0.00    +0.138 C 
ATOM     27  C   UNL     1      -0.643   1.605   1.279  0.00  0.00    +0.035 C 
ATOM     28  C   UNL     1       0.587   1.935   2.168  0.00  0.00    +0.031 C 
ATOM     29  C   UNL     1       1.597   2.428   1.101  0.00  0.00    +0.160 C 
ATOM     30  O   UNL     1       1.357   1.603  -0.051  0.00  0.00    -0.375 OA
ENDBRANCH  25  26
ENDBRANCH   4  25
TORSDOF 8
