REMARK  Name = ZINC04177636
REMARK  9 active torsions:
REMARK  status: ('A' for Active; 'I' for Inactive)
REMARK    1  A    between atoms: C_1  and  C_2
REMARK    2  A    between atoms: C_5  and  C_8
REMARK    3  A    between atoms: N_10  and  C_11
REMARK    4  A    between atoms: C_11  and  C_13
REMARK    5  A    between atoms: C_11  and  N_17
REMARK    6  A    between atoms: N_17  and  C_18
REMARK    7  A    between atoms: C_18  and  N_20
REMARK    8  A    between atoms: N_20  and  C_21
REMARK    9  A    between atoms: C_22  and  C_30
REMARK                            x       y       z     vdW  Elec       q    Type
REMARK                         _______ _______ _______ _____ _____    ______ ____
ROOT
ATOM      1  N   UNL     1      -0.030   1.807   2.458  0.00  0.00    -0.305 N 
ATOM      2  H   UNL     1       0.937   1.863   2.502  0.00  0.00    +0.150 HD
ENDROOT
BRANCH   1   3
ATOM      3  C   UNL     1      -0.722   1.282   3.488  0.00  0.00    +0.136 C 
ATOM      4  S   UNL     1      -2.430   1.183   3.410  0.00  0.00    -0.019 S 
BRANCH   3   5
ATOM      5  N   UNL     1      -0.070   0.836   4.580  0.00  0.00    -0.291 N 
ATOM      6  H   UNL     1       0.897   0.892   4.624  0.00  0.00    +0.154 HD
BRANCH   5   7
ATOM      7  C   UNL     1      -0.782   0.296   5.640  0.00  0.00    +0.084 A 
ATOM      8  C   UNL     1      -0.295  -0.216   6.834  0.00  0.00    +0.068 A 
ATOM      9  C   UNL     1      -1.263  -0.722   7.792  0.00  0.00    -0.023 A 
ATOM     10  C   UNL     1      -2.554  -0.646   7.401  0.00  0.00    -0.004 A 
ATOM     11  S   UNL     1      -2.496   0.091   5.792  0.00  0.00    -0.077 S 
ATOM     12  C   UNL     1      -3.759  -1.093   8.169  0.00  0.00    +0.043 C 
ATOM     13  C   UNL     1      -3.291  -1.997   9.319  0.00  0.00    +0.005 C 
ATOM     14  C   UNL     1      -2.128  -1.312  10.043  0.00  0.00    +0.005 C 
ATOM     15  C   UNL     1      -0.888  -1.309   9.147  0.00  0.00    +0.037 C 
BRANCH   8  16
ATOM     16  C   UNL     1       1.142  -0.242   7.120  0.00  0.00    +0.244 C 
ATOM     17  O   UNL     1       1.669   0.703   7.678  0.00  0.00    -0.270 OA
ATOM     18  N   UNL     1       1.881  -1.312   6.766  0.00  0.00    -0.325 N 
ATOM     19  H   UNL     1       1.462  -2.065   6.321  0.00  0.00    +0.145 HD
ATOM     20  H   UNL     1       2.832  -1.329   6.955  0.00  0.00    +0.145 HD
ENDBRANCH   8  16
ENDBRANCH   5   7
ENDBRANCH   3   5
ENDBRANCH   1   3
BRANCH   1  21
ATOM     21  C   UNL     1      -0.739   2.292   1.271  0.00  0.00    +0.211 C 
BRANCH  21  24
ATOM     22  C   UNL     1      -1.892   4.414   1.595  0.00  0.00    +0.246 C 
ATOM     23  O   UNL     1      -2.898   3.791   1.874  0.00  0.00    -0.270 OA
ATOM     24  N   UNL     1      -0.758   3.757   1.279  0.00  0.00    -0.290 N 
ATOM     25  H   UNL     1       0.044   4.254   1.056  0.00  0.00    +0.151 HD
BRANCH  22  30
ATOM     26  C   UNL     1      -1.969  10.168   1.629  0.00  0.00    +0.044 C 
ATOM     27  C   UNL     1      -1.949   8.661   1.620  0.00  0.00    -0.050 A 
ATOM     28  C   UNL     1      -3.096   7.955   1.937  0.00  0.00    +0.004 A 
ATOM     29  C   UNL     1      -3.084   6.575   1.931  0.00  0.00    +0.013 A 
ATOM     30  C   UNL     1      -1.912   5.892   1.603  0.00  0.00    +0.037 A 
ATOM     31  C   UNL     1      -0.757   6.611   1.289  0.00  0.00    +0.013 A 
ATOM     32  C   UNL     1      -0.784   7.990   1.295  0.00  0.00    +0.004 A 
ENDBRANCH  22  30
ENDBRANCH  21  24
BRANCH  21  33
ATOM     33  C   UNL     1      -0.022   1.799   0.012  0.00  0.00    +0.225 C 
ATOM     34 CL   UNL     1       0.002  -0.004   0.002  0.00  0.00    -0.080 Cl
ATOM     35 CL   UNL     1       1.669   2.423  -0.001  0.00  0.00    -0.080 Cl
ATOM     36 CL   UNL     1      -0.894   2.396  -1.449  0.00  0.00    -0.080 Cl
ENDBRANCH  21  33
ENDBRANCH   1  21
TORSDOF 8
