REMARK  Name = ZINC52764172
REMARK  9 active torsions:
REMARK  status: ('A' for Active; 'I' for Inactive)
REMARK    1  A    between atoms: C_1  and  C_2
REMARK    2  A    between atoms: C_2  and  C_3
REMARK    3  A    between atoms: C_2  and  C_4
REMARK    4  A    between atoms: C_2  and  C_8
REMARK    5  A    between atoms: N_5  and  O_6
REMARK    6  A    between atoms: C_14  and  C_16
REMARK    7  A    between atoms: C_16  and  C_17
REMARK    8  A    between atoms: C_17  and  C_18
REMARK    9  A    between atoms: C_18  and  O_19
REMARK                            x       y       z     vdW  Elec       q    Type
REMARK                         _______ _______ _______ _____ _____    ______ ____
ROOT
ATOM      1  C   UNL     1       0.455  -0.157  -1.882  0.00  0.00    +0.229 C 
ATOM      2  O   UNL     1      -0.186  -0.810  -2.677  0.00  0.00    -0.275 OA
ATOM      3  N   UNL     1       1.774   0.038  -2.078  0.00  0.00    -0.298 N 
ATOM      4  C   UNL     1       2.656   0.862  -1.231  0.00  0.00    +0.108 C 
ATOM      5  C   UNL     1       3.829   1.268  -2.158  0.00  0.00    +0.021 C 
ATOM      6  C   UNL     1       4.016  -0.019  -3.004  0.00  0.00    +0.024 C 
ATOM      7  C   UNL     1       2.573  -0.541  -3.167  0.00  0.00    +0.076 C 
ENDROOT
BRANCH   1   9
ATOM      8  C   UNL     1      -0.283   1.959  -0.820  0.00  0.00    +0.028 C 
ATOM      9  C   UNL     1      -0.224   0.437  -0.674  0.00  0.00    +0.100 C 
ATOM     10  C   UNL     1       0.567   0.076   0.584  0.00  0.00    +0.028 C 
BRANCH   9  11
ATOM     11  C   UNL     1      -1.623  -0.111  -0.564  0.00  0.00    +0.146 C 
ATOM     12  N   UNL     1      -2.635   0.690  -0.600  0.00  0.00    -0.076 NA
ATOM     13  N   UNL     1      -1.822  -1.467  -0.423  0.00  0.00    -0.343 N 
ATOM     14  H   UNL     1      -1.061  -2.068  -0.396  0.00  0.00    +0.144 HD
ATOM     15  H   UNL     1      -2.722  -1.820  -0.352  0.00  0.00    +0.144 HD
BRANCH  12  16
ATOM     16  O   UNL     1      -3.950   0.174  -0.495  0.00  0.00    -0.408 OA
ATOM     17  H   UNL     1      -4.641   0.850  -0.533  0.00  0.00    +0.328 HD
ENDBRANCH  12  16
ENDBRANCH   9  11
ENDBRANCH   1   9
BRANCH   7  18
ATOM     18  C   UNL     1       2.555  -2.068  -3.071  0.00  0.00    +0.025 C 
BRANCH  18  19
ATOM     19  C   UNL     1       1.109  -2.566  -3.131  0.00  0.00    +0.030 C 
BRANCH  19  20
ATOM     20  C   UNL     1       1.099  -4.092  -3.230  0.00  0.00    +0.156 C 
BRANCH  20  21
ATOM     21  O   UNL     1      -0.251  -4.557  -3.285  0.00  0.00    -0.395 OA
ATOM     22  H   UNL     1      -0.334  -5.518  -3.349  0.00  0.00    +0.209 HD
ENDBRANCH  20  21
ENDBRANCH  19  20
ENDBRANCH  18  19
ENDBRANCH   7  18
TORSDOF 7
