REMARK  Name = ZINC39412835
REMARK  5 active torsions:
REMARK  status: ('A' for Active; 'I' for Inactive)
REMARK    1  A    between atoms: C_1  and  C_2
REMARK    2  A    between atoms: C_5  and  C_8
REMARK    3  A    between atoms: C_13  and  C_14
REMARK    4  A    between atoms: N_19  and  C_21
REMARK    5  A    between atoms: C_21  and  C_22
REMARK                            x       y       z     vdW  Elec       q    Type
REMARK                         _______ _______ _______ _____ _____    ______ ____
ROOT
ATOM      1  C   UNL     1       2.719  -4.562   0.387  0.00  0.00    +0.020 C 
ATOM      2  C   UNL     1       3.045  -3.074   0.542  0.00  0.00    +0.006 C 
ATOM      3  C   UNL     1       4.536  -2.857   0.271  0.00  0.00    -0.018 C 
ATOM      4  C   UNL     1       5.354  -3.732   1.223  0.00  0.00    -0.078 C 
ATOM      5  N   UNL     1       5.017  -5.144   1.007  0.00  0.00    +0.384 N 
ATOM      6  C   UNL     1       3.605  -5.375   1.334  0.00  0.00    -0.069 C 
ATOM      7  H   UNL     1       5.181  -5.384   0.041  0.00  0.00    -0.081 HD
ENDROOT
BRANCH   1  12
ATOM      8  C   UNL     1       0.059  -4.275  -0.021  0.00  0.00    +0.108 C 
ATOM      9  C   UNL     1      -1.110  -4.830   0.768  0.00  0.00    +0.121 C 
ATOM     10  N   UNL     1      -0.592  -5.507   1.739  0.00  0.00    -0.161 NA
ATOM     11  N   UNL     1       0.799  -5.489   1.717  0.00  0.00    -0.158 NA
ATOM     12  C   UNL     1       1.270  -4.799   0.726  0.00  0.00    +0.055 C 
BRANCH   8  17
ATOM     13  C   UNL     1      -0.018   1.503   0.010  0.00  0.00    +0.044 C 
ATOM     14  C   UNL     1       0.002  -0.004   0.002  0.00  0.00    -0.050 A 
ATOM     15  C   UNL     1       0.006  -0.689  -1.199  0.00  0.00    +0.003 A 
ATOM     16  C   UNL     1       0.025  -2.071  -1.206  0.00  0.00    +0.005 A 
ATOM     17  C   UNL     1       0.040  -2.768  -0.013  0.00  0.00    -0.033 A 
ATOM     18  C   UNL     1       0.037  -2.084   1.188  0.00  0.00    +0.005 A 
ATOM     19  C   UNL     1       0.023  -0.702   1.195  0.00  0.00    +0.003 A 
ENDBRANCH   8  17
ENDBRANCH   1  12
BRANCH   5  20
ATOM     20  C   UNL     1       5.861  -5.984   1.868  0.00  0.00    -0.025 C 
BRANCH  20  21
ATOM     21  C   UNL     1       7.301  -5.849   1.445  0.00  0.00    +0.000 A 
ATOM     22  H   UNL     1       7.460  -7.250  -0.088  0.00  0.00    +0.166 HD
ATOM     23  C   UNL     1       8.188  -5.004   1.994  0.00  0.00    +0.029 A 
ATOM     24  C   UNL     1       9.457  -5.199   1.288  0.00  0.00    -0.000 A 
ATOM     25  C   UNL     1      10.726  -4.627   1.397  0.00  0.00    +0.010 A 
ATOM     26  C   UNL     1      11.730  -5.038   0.567  0.00  0.00    +0.001 A 
ATOM     27  C   UNL     1      11.498  -6.021  -0.386  0.00  0.00    +0.002 A 
ATOM     28  C   UNL     1      10.254  -6.599  -0.511  0.00  0.00    +0.026 A 
ATOM     29  C   UNL     1       9.217  -6.195   0.325  0.00  0.00    +0.047 A 
ATOM     30  N   UNL     1       7.899  -6.573   0.451  0.00  0.00    -0.360 N 
ENDBRANCH  20  21
ENDBRANCH   5  20
TORSDOF 4
