REMARK  Name = ZINC21139138
REMARK  9 active torsions:
REMARK  status: ('A' for Active; 'I' for Inactive)
REMARK    1  A    between atoms: C_5  and  C_7
REMARK    2  A    between atoms: C_7  and  C_9
REMARK    3  A    between atoms: C_7  and  N_27
REMARK    4  A    between atoms: C_9  and  C_10
REMARK    5  A    between atoms: C_10  and  O_12
REMARK    6  A    between atoms: O_12  and  C_13
REMARK    7  A    between atoms: C_13  and  C_14
REMARK    8  A    between atoms: N_16  and  C_17
REMARK    9  A    between atoms: C_22  and  N_23
REMARK                            x       y       z     vdW  Elec       q    Type
REMARK                         _______ _______ _______ _____ _____    ______ ____
ROOT
ATOM      1  C   UNL     1      -0.154   1.587  -1.284  0.00  0.00    +0.310 C 
ATOM      2  O   UNL     1      -1.220   2.147  -1.390  0.00  0.00    -0.251 OA
ENDROOT
BRANCH   1   3
ATOM      3  C   UNL     1       0.362   1.200   0.078  0.00  0.00    +0.147 C 
BRANCH   3   4
ATOM      4  C   UNL     1      -0.647   1.627   1.146  0.00  0.00    +0.117 C 
BRANCH   4   9
ATOM      5  C   UNL     1       1.525   0.231   3.901  0.00  0.00    +0.000 A 
ATOM      6  C   UNL     1       0.646   0.223   4.968  0.00  0.00    +0.001 A 
ATOM      7  C   UNL     1      -0.651   0.669   4.800  0.00  0.00    +0.020 A 
ATOM      8  C   UNL     1      -1.071   1.124   3.562  0.00  0.00    +0.046 A 
ATOM      9  C   UNL     1      -0.191   1.132   2.494  0.00  0.00    -0.008 A 
ATOM     10  C   UNL     1       1.105   0.681   2.663  0.00  0.00    +0.007 A 
ATOM     11 CL   UNL     1      -2.700   1.683   3.349  0.00  0.00    -0.083 Cl
ENDBRANCH   4   9
BRANCH   4  12
ATOM     12  N   UNL     1      -0.745   3.088   1.169  0.00  0.00    -0.292 N 
ATOM     13  C   UNL     1       0.323   3.829   1.525  0.00  0.00    +0.298 C 
ATOM     14  O   UNL     1       1.392   3.291   1.740  0.00  0.00    -0.253 OA
ATOM     15  N   UNL     1       0.207   5.167   1.641  0.00  0.00    -0.313 N 
ATOM     16  H   UNL     1      -1.690   3.581   0.897  0.00  0.00    +0.151 HD
ATOM     17  H   UNL     1       1.078   5.772   1.931  0.00  0.00    +0.146 HD
ATOM     18  H   UNL     1      -0.760   5.654   1.447  0.00  0.00    +0.146 HD
ENDBRANCH   4  12
ENDBRANCH   3   4
ENDBRANCH   1   3
BRANCH   1  19
ATOM     19  O   UNL     1       0.570   1.310  -2.380  0.00  0.00    -0.455 OA
BRANCH  19  20
ATOM     20  C   UNL     1       0.011   1.712  -3.658  0.00  0.00    +0.328 C 
BRANCH  20  21
ATOM     21  C   UNL     1       0.956   1.321  -4.765  0.00  0.00    +0.255 C 
ATOM     22  O   UNL     1       1.999   0.760  -4.502  0.00  0.00    -0.272 OA
ATOM     23  N   UNL     1       0.644   1.596  -6.047  0.00  0.00    -0.281 N 
ATOM     24  H   UNL     1      -0.338   2.026  -6.293  0.00  0.00    +0.155 HD
BRANCH  23  25
ATOM     25  C   UNL     1       1.569   1.334  -7.064  0.00  0.00    +0.064 A 
ATOM     26  C   UNL     1       2.929   1.338  -6.786  0.00  0.00    +0.027 A 
ATOM     27  C   UNL     1       3.839   1.079  -7.791  0.00  0.00    +0.022 A 
ATOM     28  C   UNL     1       3.397   0.816  -9.076  0.00  0.00    +0.043 A 
ATOM     29  C   UNL     1       2.042   0.811  -9.356  0.00  0.00    +0.054 A 
ATOM     30  C   UNL     1       1.127   1.065  -8.353  0.00  0.00    +0.149 A 
ATOM     31 CL   UNL     1       4.544   0.491 -10.338  0.00  0.00    -0.083 Cl
BRANCH  30  32
ATOM     32  N   UNL     1      -0.323   1.054  -8.652  0.00  0.00    +0.058 N 
ATOM     33  O   UNL     1      -0.713   0.738  -9.762  0.00  0.00    -0.126 OA
ATOM     34  O   UNL     1      -1.125   1.361  -7.789  0.00  0.00    -0.126 OA
ENDBRANCH  30  32
ENDBRANCH  23  25
ENDBRANCH  20  21
ENDBRANCH  19  20
ENDBRANCH   1  19
TORSDOF 9
