REMARK  Name = ZINC06015246
REMARK  11 active torsions:
REMARK  status: ('A' for Active; 'I' for Inactive)
REMARK    1  A    between atoms: C_1  and  C_2
REMARK    2  A    between atoms: C_3  and  C_29
REMARK    3  A    between atoms: C_4  and  C_24
REMARK    4  A    between atoms: C_6  and  C_22
REMARK    5  A    between atoms: C_7  and  S_9
REMARK    6  A    between atoms: S_9  and  C_10
REMARK    7  A    between atoms: C_10  and  C_11
REMARK    8  A    between atoms: N_13  and  C_14
REMARK    9  A    between atoms: C_17  and  O_20
REMARK   10  A    between atoms: O_20  and  C_21
REMARK   11  A    between atoms: N_31  and  C_32
REMARK                            x       y       z     vdW  Elec       q    Type
REMARK                         _______ _______ _______ _____ _____    ______ ____
ROOT
ATOM      1  C   UNL     1       6.043  -2.047  -0.222  0.00  0.00    +0.061 C 
ATOM      2  C   UNL     1       6.153  -0.548  -0.124  0.00  0.00    +0.014 C 
ATOM      3  C   UNL     1       7.356   0.036  -0.245  0.00  0.00    +0.044 C 
ATOM      4  C   UNL     1       7.525   1.525  -0.147  0.00  0.00    +0.105 C 
ATOM      5  C   UNL     1       6.204   2.223  -0.306  0.00  0.00    +0.069 C 
ATOM      6  C   UNL     1       5.030   1.550  -0.176  0.00  0.00    +0.080 C 
ATOM      7  N   UNL     1       5.025   0.198   0.087  0.00  0.00    -0.312 N 
ATOM      8  H   UNL     1       4.112  -0.282   0.469  0.00  0.00    +0.152 HD
ENDROOT
BRANCH   4   9
ATOM      9  C   UNL     1       8.114   1.870   1.196  0.00  0.00    +0.002 A 
ATOM     10  C   UNL     1       9.280   2.499   1.481  0.00  0.00    +0.012 A 
ATOM     11  C   UNL     1       9.620   2.714   2.804  0.00  0.00    +0.008 A 
ATOM     12  C   UNL     1       8.782   2.281   3.777  0.00  0.00    +0.045 A 
ATOM     13  S   UNL     1       7.460   1.549   2.826  0.00  0.00    -0.101 S 
ENDBRANCH   4   9
BRANCH   3  14
ATOM     14  C   UNL     1       8.495  -0.773  -0.473  0.00  0.00    +0.247 C 
ATOM     15  O   UNL     1       8.376  -1.982  -0.555  0.00  0.00    -0.270 OA
ATOM     16  N   UNL     1       9.711  -0.205  -0.597  0.00  0.00    -0.282 N 
ATOM     17  H   UNL     1       9.830   0.878  -0.447  0.00  0.00    +0.155 HD
BRANCH  16  18
ATOM     18  C   UNL     1      10.821  -0.993  -0.918  0.00  0.00    +0.034 A 
ATOM     19  C   UNL     1      10.925  -2.285  -0.419  0.00  0.00    +0.023 A 
ATOM     20  C   UNL     1      12.020  -3.062  -0.741  0.00  0.00    +0.002 A 
ATOM     21  C   UNL     1      13.018  -2.552  -1.551  0.00  0.00    +0.000 A 
ATOM     22  C   UNL     1      12.920  -1.264  -2.046  0.00  0.00    +0.002 A 
ATOM     23  C   UNL     1      11.825  -0.483  -1.731  0.00  0.00    +0.023 A 
ENDBRANCH  16  18
ENDBRANCH   3  14
BRANCH   5  24
ATOM     24  C   UNL     1       6.181   3.626  -0.594  0.00  0.00    +0.098 C 
ATOM     25  N   UNL     1       6.163   4.738  -0.823  0.00  0.00    -0.191 NA
ENDBRANCH   5  24
BRANCH   6  26
ATOM     26  S   UNL     1       3.503   2.411  -0.355  0.00  0.00    -0.100 S 
BRANCH  26  27
ATOM     27  C   UNL     1       2.341   1.048  -0.097  0.00  0.00    +0.171 C 
BRANCH  27  28
ATOM     28  C   UNL     1       0.929   1.563  -0.207  0.00  0.00    +0.227 C 
ATOM     29  O   UNL     1       0.729   2.737  -0.437  0.00  0.00    -0.275 OA
ATOM     30  N   UNL     1      -0.110   0.720  -0.049  0.00  0.00    -0.285 N 
ATOM     31  H   UNL     1       0.070  -0.357   0.080  0.00  0.00    +0.155 HD
BRANCH  30  32
ATOM     32  C   UNL     1      -1.421   1.216  -0.050  0.00  0.00    +0.034 A 
ATOM     33  C   UNL     1      -1.688   2.474   0.473  0.00  0.00    +0.027 A 
ATOM     34  C   UNL     1      -2.979   2.964   0.467  0.00  0.00    +0.047 A 
ATOM     35  C   UNL     1      -4.010   2.195  -0.051  0.00  0.00    +0.120 A 
ATOM     36  C   UNL     1      -3.745   0.936  -0.569  0.00  0.00    +0.047 A 
ATOM     37  C   UNL     1      -2.454   0.447  -0.569  0.00  0.00    +0.027 A 
BRANCH  35  38
ATOM     38  O   UNL     1      -5.282   2.676  -0.052  0.00  0.00    -0.495 OA
ATOM     39  C   UNL     1      -5.483   3.980   0.497  0.00  0.00    +0.277 C 
ENDBRANCH  35  38
ENDBRANCH  30  32
ENDBRANCH  27  28
ENDBRANCH  26  27
ENDBRANCH   6  26
TORSDOF 9
