REMARK  Name = ZINC08860923
REMARK  6 active torsions:
REMARK  status: ('A' for Active; 'I' for Inactive)
REMARK    1  A    between atoms: C_4  and  C_7
REMARK    2  A    between atoms: C_13  and  C_15
REMARK    3  A    between atoms: N_17  and  N_18
REMARK    4  A    between atoms: N_18  and  C_19
REMARK    5  A    between atoms: C_22  and  C_27
REMARK    6  A    between atoms: C_27  and  C_28
REMARK                            x       y       z     vdW  Elec       q    Type
REMARK                         _______ _______ _______ _____ _____    ______ ____
ROOT
ATOM      1  N   UNL     1       6.822  -2.624  -3.275  0.00  0.00    -0.271 N 
ATOM      2  H   UNL     1       7.479  -1.985  -2.955  0.00  0.00    +0.169 HD
ENDROOT
BRANCH   1   3
ATOM      3  C   UNL     1       7.131  -3.457  -4.279  0.00  0.00    +0.099 C 
ATOM      4  C   UNL     1       8.432  -3.487  -4.787  0.00  0.00    +0.037 C 
ATOM      5  C   UNL     1       8.733  -4.218  -5.958  0.00  0.00    +0.017 C 
ATOM      6  C   UNL     1      10.005  -4.234  -6.437  0.00  0.00    -0.042 C 
ATOM      7  C   UNL     1      11.031  -3.543  -5.799  0.00  0.00    +0.008 C 
ATOM      8  C   UNL     1      10.808  -2.820  -4.668  0.00  0.00    +0.052 C 
ATOM      9  C   UNL     1       9.515  -2.754  -4.120  0.00  0.00    +0.187 C 
ATOM     10  O   UNL     1       9.299  -2.104  -3.106  0.00  0.00    -0.287 OA
BRANCH   6  11
ATOM     11  C   UNL     1      10.311  -5.019  -7.687  0.00  0.00    +0.071 C 
BRANCH  11  12
ATOM     12  C   UNL     1      10.250  -4.103  -8.882  0.00  0.00    -0.025 A 
ATOM     13  C   UNL     1       9.085  -4.005  -9.619  0.00  0.00    +0.005 A 
ATOM     14  C   UNL     1       9.029  -3.165 -10.715  0.00  0.00    +0.000 A 
ATOM     15  C   UNL     1      10.139  -2.423 -11.076  0.00  0.00    +0.001 A 
ATOM     16  C   UNL     1      11.304  -2.520 -10.340  0.00  0.00    +0.020 A 
ATOM     17  C   UNL     1      11.359  -3.357  -9.239  0.00  0.00    +0.044 A 
ATOM     18 CL   UNL     1      12.821  -3.474  -8.310  0.00  0.00    -0.083 Cl
ENDBRANCH  11  12
ENDBRANCH   6  11
ENDBRANCH   1   3
BRANCH   1  21
ATOM     19  C   UNL     1       5.242  -1.839  -1.677  0.00  0.00    +0.242 C 
ATOM     20  O   UNL     1       6.062  -1.040  -1.278  0.00  0.00    -0.273 OA
ATOM     21  N   UNL     1       5.552  -2.676  -2.686  0.00  0.00    -0.236 N 
ATOM     22  H   UNL     1       4.896  -3.315  -3.005  0.00  0.00    +0.173 HD
BRANCH  19  28
ATOM     23  C   UNL     1       3.758  -0.845   0.085  0.00  0.00    +0.057 C 
ATOM     24  C   UNL     1       4.142  -1.675   1.330  0.00  0.00    +0.113 C 
ATOM     25  N   UNL     1       3.821  -3.066   0.988  0.00  0.00    -0.314 N 
ATOM     26  C   UNL     1       3.672  -3.220  -0.339  0.00  0.00    +0.226 C 
ATOM     27  O   UNL     1       3.411  -4.267  -0.892  0.00  0.00    -0.275 OA
ATOM     28  C   UNL     1       3.875  -1.895  -1.043  0.00  0.00    +0.171 C 
ATOM     29  H   UNL     1       3.730  -3.782   1.636  0.00  0.00    +0.149 HD
BRANCH  23  33
ATOM     30  C   UNL     1      -0.242   0.621   0.397  0.00  0.00    +0.000 A 
ATOM     31  C   UNL     1       0.802   1.502   0.185  0.00  0.00    +0.000 A 
ATOM     32  C   UNL     1       2.097   1.027   0.085  0.00  0.00    +0.004 A 
ATOM     33  C   UNL     1       2.347  -0.328   0.196  0.00  0.00    -0.042 A 
ATOM     34  C   UNL     1       1.303  -1.208   0.409  0.00  0.00    +0.004 A 
ATOM     35  C   UNL     1       0.008  -0.734   0.509  0.00  0.00    +0.000 A 
ENDBRANCH  23  33
ENDBRANCH  19  28
ENDBRANCH   1  21
TORSDOF 6
