REMARK  Name = ZINC59619535
REMARK  2 active torsions:
REMARK  status: ('A' for Active; 'I' for Inactive)
REMARK    1  A    between atoms: C_12  and  C_14
REMARK    2  A    between atoms: N_24  and  C_27
REMARK                            x       y       z     vdW  Elec       q    Type
REMARK                         _______ _______ _______ _____ _____    ______ ____
ROOT
ATOM      1  C   UNL     1      -0.239   1.300  -0.265  0.00  0.00    +0.033 C 
ATOM      2  C   UNL     1      -0.151  -0.036  -0.183  0.00  0.00    +0.031 C 
ATOM      3  C   UNL     1      -1.358  -0.877  -0.093  0.00  0.00    +0.090 C 
ATOM      4  C   UNL     1      -1.230  -2.215  -0.224  0.00  0.00    +0.249 C 
ATOM      5  O   UNL     1      -2.329  -3.005  -0.177  0.00  0.00    -0.270 OA
ATOM      6  N   UNL     1       0.015  -2.781  -0.406  0.00  0.00    -0.219 N 
ATOM      7  C   UNL     1       1.129  -1.999  -0.566  0.00  0.00    +0.198 C 
ATOM      8  N   UNL     1       1.096  -0.685  -0.185  0.00  0.00    -0.287 N 
ATOM      9  N   UNL     1       2.206  -2.504  -1.130  0.00  0.00    -0.186 NA
ATOM     10  C   UNL     1       2.215  -3.769  -1.585  0.00  0.00    +0.196 C 
ATOM     11  N   UNL     1       1.264  -4.614  -1.296  0.00  0.00    -0.338 N 
ATOM     12  C   UNL     1       0.174  -4.240  -0.391  0.00  0.00    +0.183 C 
ATOM     13  N   UNL     1       3.263  -4.187  -2.380  0.00  0.00    -0.298 N 
ATOM     14  C   UNL     1       3.888  -3.265  -3.339  0.00  0.00    +0.127 C 
ATOM     15  C   UNL     1       5.394  -3.208  -3.055  0.00  0.00    +0.124 C 
ATOM     16  N   UNL     1       5.906  -4.583  -2.957  0.00  0.00    -0.327 N 
ATOM     17  C   UNL     1       5.281  -5.505  -1.998  0.00  0.00    +0.124 C 
ATOM     18  C   UNL     1       3.778  -5.559  -2.279  0.00  0.00    +0.127 C 
ATOM     19  H   UNL     1       1.278  -5.502  -1.687  0.00  0.00    +0.164 HD
ATOM     20  H   UNL     1       1.905  -0.219   0.077  0.00  0.00    +0.155 HD
ENDROOT
BRANCH  16  21
ATOM     21  C   UNL     1       6.966  -5.006  -3.762  0.00  0.00    +0.031 A 
ATOM     22  C   UNL     1       7.631  -4.094  -4.572  0.00  0.00    +0.023 A 
ATOM     23  C   UNL     1       8.680  -4.514  -5.367  0.00  0.00    +0.003 A 
ATOM     24  C   UNL     1       9.068  -5.841  -5.357  0.00  0.00    +0.020 A 
ATOM     25  C   UNL     1       8.408  -6.753  -4.551  0.00  0.00    +0.043 A 
ATOM     26  C   UNL     1       7.362  -6.337  -3.749  0.00  0.00    +0.043 A 
ATOM     27 CL   UNL     1       8.899  -8.418  -4.542  0.00  0.00    -0.083 Cl
ENDBRANCH  16  21
BRANCH  12  28
ATOM     28  C   UNL     1       0.507  -4.704   1.029  0.00  0.00    +0.034 C 
ATOM     29  C   UNL     1       0.664  -6.230   1.049  0.00  0.00    +0.011 C 
ATOM     30  C   UNL     1       1.170  -6.646   2.432  0.00  0.00    +0.027 C 
ATOM     31  C   UNL     1       0.333  -6.008   3.502  0.00  0.00    -0.031 C 
ATOM     32  C   UNL     1      -0.448  -4.995   3.304  0.00  0.00    -0.031 C 
ATOM     33  C   UNL     1      -0.630  -4.317   1.977  0.00  0.00    +0.034 C 
ENDBRANCH  12  28
TORSDOF 2
