REMARK  Name = ZINC19460559
REMARK  6 active torsions:
REMARK  status: ('A' for Active; 'I' for Inactive)
REMARK    1  A    between atoms: C_1  and  C_2
REMARK    2  A    between atoms: C_2  and  C_28
REMARK    3  A    between atoms: C_7  and  C_10
REMARK    4  A    between atoms: N_19  and  C_22
REMARK    5  A    between atoms: C_28  and  O_30
REMARK    6  A    between atoms: O_30  and  C_31
REMARK                            x       y       z     vdW  Elec       q    Type
REMARK                         _______ _______ _______ _____ _____    ______ ____
ROOT
ATOM      1  C   UNL     1      -1.196   0.975  -0.409  0.00  0.00    +0.002 C 
ATOM      2  C   UNL     1      -0.716  -0.461  -0.185  0.00  0.00    +0.041 C 
ATOM      3  C   UNL     1      -1.851  -1.315   0.357  0.00  0.00    +0.086 C 
ATOM      4  C   UNL     1      -0.990  -2.366   1.156  0.00  0.00    +0.077 C 
ATOM      5  C   UNL     1      -0.075  -1.497   1.916  0.00  0.00    -0.027 C 
ATOM      6  N   UNL     1       0.346  -0.493   0.865  0.00  0.00    +0.395 N 
ATOM      7  C   UNL     1      -1.946  -3.423   1.373  0.00  0.00    +0.229 C 
ATOM      8  O   UNL     1      -2.029  -4.157   2.334  0.00  0.00    -0.275 OA
ATOM      9  N   UNL     1      -2.743  -3.418   0.255  0.00  0.00    -0.210 N 
ATOM     10  C   UNL     1      -2.581  -2.288  -0.515  0.00  0.00    +0.229 C 
ATOM     11  O   UNL     1      -2.946  -2.113  -1.658  0.00  0.00    -0.275 OA
ATOM     12  H   UNL     1       1.225  -0.768   0.454  0.00  0.00    -0.083 HD
ATOM     13  H   UNL     1       0.436   0.419   1.288  0.00  0.00    -0.083 HD
ENDROOT
BRANCH   5  14
ATOM     14  C   UNL     1      -0.794  -0.836   3.064  0.00  0.00    -0.060 A 
ATOM     15  C   UNL     1      -0.959  -1.513   4.258  0.00  0.00    +0.005 A 
ATOM     16  C   UNL     1      -1.618  -0.907   5.311  0.00  0.00    +0.038 A 
ATOM     17  C   UNL     1      -2.112   0.378   5.170  0.00  0.00    +0.123 A 
ATOM     18  C   UNL     1      -1.946   1.056   3.974  0.00  0.00    +0.038 A 
ATOM     19  C   UNL     1      -1.283   0.450   2.924  0.00  0.00    +0.005 A 
ATOM     20  F   UNL     1      -2.757   0.971   6.199  0.00  0.00    -0.205 F 
ENDBRANCH   5  14
BRANCH   9  21
ATOM     21  C   UNL     1      -3.636  -4.450  -0.067  0.00  0.00    +0.044 A 
ATOM     22  C   UNL     1      -4.402  -4.371  -1.222  0.00  0.00    +0.024 A 
ATOM     23  C   UNL     1      -5.281  -5.389  -1.536  0.00  0.00    +0.002 A 
ATOM     24  C   UNL     1      -5.398  -6.486  -0.702  0.00  0.00    +0.000 A 
ATOM     25  C   UNL     1      -4.636  -6.567   0.449  0.00  0.00    +0.002 A 
ATOM     26  C   UNL     1      -3.751  -5.555   0.765  0.00  0.00    +0.024 A 
ENDBRANCH   9  21
BRANCH   2  27
ATOM     27  C   UNL     1      -0.193  -1.042  -1.473  0.00  0.00    +0.296 C 
ATOM     28  O   UNL     1      -0.915  -1.718  -2.168  0.00  0.00    -0.252 OA
BRANCH  27  29
ATOM     29  O   UNL     1       1.074  -0.809  -1.849  0.00  0.00    -0.469 OA
ATOM     30  C   UNL     1       1.503  -1.391  -3.081  0.00  0.00    +0.280 C 
ENDBRANCH  27  29
ENDBRANCH   2  27
TORSDOF 4
