REMARK  Name = ZINC36238831
REMARK  5 active torsions:
REMARK  status: ('A' for Active; 'I' for Inactive)
REMARK    1  A    between atoms: C_1  and  C_2
REMARK    2  A    between atoms: C_5  and  C_8
REMARK    3  A    between atoms: C_8  and  N_9
REMARK    4  A    between atoms: C_16  and  C_19
REMARK    5  A    between atoms: C_19  and  O_20
REMARK                            x       y       z     vdW  Elec       q    Type
REMARK                         _______ _______ _______ _____ _____    ______ ____
ROOT
ATOM      1  N   UNL     1       1.443  -4.743   0.089  0.00  0.00    -0.320 N 
ATOM      2  C   UNL     1       2.280  -4.938  -1.108  0.00  0.00    +0.146 C 
ATOM      3  C   UNL     1       3.061  -6.246  -0.920  0.00  0.00    +0.248 C 
ATOM      4  O   UNL     1       3.841  -6.149   0.274  0.00  0.00    -0.489 OA
ATOM      5  C   UNL     1       3.217  -5.728   1.406  0.00  0.00    +0.142 A 
ATOM      6  C   UNL     1       2.020  -5.016   1.339  0.00  0.00    +0.073 A 
ATOM      7  C   UNL     1       1.399  -4.584   2.500  0.00  0.00    +0.032 A 
ATOM      8  C   UNL     1       1.970  -4.858   3.729  0.00  0.00    -0.020 A 
ATOM      9  C   UNL     1       3.158  -5.561   3.800  0.00  0.00    +0.009 A 
ATOM     10  C   UNL     1       3.779  -6.004   2.642  0.00  0.00    +0.048 A 
ENDROOT
BRANCH   1  11
ATOM     11  C   UNL     1       0.059  -4.275  -0.021  0.00  0.00    +0.140 C 
BRANCH  11  16
ATOM     12  C   UNL     1      -3.516  -8.815  -0.042  0.00  0.00    +0.044 C 
ATOM     13  C   UNL     1      -2.583  -7.631  -0.037  0.00  0.00    -0.050 A 
ATOM     14  C   UNL     1      -2.320  -6.964   1.145  0.00  0.00    +0.003 A 
ATOM     15  C   UNL     1      -1.465  -5.878   1.150  0.00  0.00    +0.005 A 
ATOM     16  C   UNL     1      -0.872  -5.460  -0.027  0.00  0.00    -0.030 A 
ATOM     17  C   UNL     1      -1.135  -6.127  -1.208  0.00  0.00    +0.005 A 
ATOM     18  C   UNL     1      -1.987  -7.216  -1.213  0.00  0.00    +0.003 A 
ENDBRANCH  11  16
ENDBRANCH   1  11
BRANCH   8  19
ATOM     19  C   UNL     1       1.297  -4.388   4.993  0.00  0.00    +0.191 C 
BRANCH  19  20
ATOM     20  O   UNL     1       0.395  -5.396   5.455  0.00  0.00    -0.390 OA
ATOM     21  H   UNL     1      -0.074  -5.162   6.267  0.00  0.00    +0.210 HD
ENDBRANCH  19  20
ENDBRANCH   8  19
TORSDOF 4
