REMARK  Name = ZINC36514739
REMARK  22 active torsions:
REMARK  status: ('A' for Active; 'I' for Inactive)
REMARK    1  A    between atoms: C_1  and  C_2
REMARK    2  A    between atoms: C_2  and  C_3
REMARK    3  A    between atoms: C_3  and  C_4
REMARK    4  A    between atoms: C_4  and  C_5
REMARK    5  A    between atoms: C_5  and  C_6
REMARK    6  A    between atoms: C_6  and  N_7
REMARK    7  A    between atoms: N_7  and  C_8
REMARK    8  A    between atoms: C_8  and  C_10
REMARK    9  A    between atoms: C_8  and  C_18
REMARK   10  A    between atoms: C_13  and  C_17
REMARK   11  A    between atoms: C_15  and  C_16
REMARK   12  A    between atoms: N_20  and  C_21
REMARK   13  A    between atoms: C_21  and  C_22
REMARK   14  A    between atoms: C_21  and  C_23
REMARK   15  A    between atoms: C_21  and  C_24
REMARK   16  A    between atoms: C_24  and  C_25
REMARK   17  A    between atoms: C_25  and  C_26
REMARK   18  A    between atoms: C_25  and  C_27
REMARK   19  A    between atoms: C_25  and  C_28
REMARK   20  A    between atoms: C_29  and  C_31
REMARK   21  A    between atoms: C_35  and  O_38
REMARK   22  A    between atoms: C_36  and  O_37
REMARK                            x       y       z     vdW  Elec       q    Type
REMARK                         _______ _______ _______ _____ _____    ______ ____
ROOT
ATOM      1  C   UNL     1       0.979  -5.827   5.269  0.00  0.00    +0.193 C 
ENDROOT
BRANCH   1   2
ATOM      2  C   UNL     1      -0.169  -5.074   5.890  0.00  0.00    -0.015 A 
ATOM      3  C   UNL     1      -0.420  -3.766   5.517  0.00  0.00    +0.006 A 
ATOM      4  C   UNL     1      -1.472  -3.075   6.087  0.00  0.00    +0.004 A 
ATOM      5  C   UNL     1      -2.275  -3.692   7.029  0.00  0.00    -0.050 A 
ATOM      6  C   UNL     1      -2.025  -4.999   7.401  0.00  0.00    +0.007 A 
ATOM      7  C   UNL     1      -0.974  -5.692   6.828  0.00  0.00    -0.045 A 
ATOM      8  C   UNL     1      -0.705  -7.119   7.229  0.00  0.00    +0.044 C 
ATOM      9  C   UNL     1      -3.422  -2.938   7.651  0.00  0.00    +0.044 C 
ENDBRANCH   1   2
BRANCH   1  10
ATOM     10  C   UNL     1       2.244  -5.538   6.035  0.00  0.00    +0.239 C 
ATOM     11  O   UNL     1       3.149  -4.930   5.504  0.00  0.00    -0.273 OA
ATOM     12  N   UNL     1       2.369  -5.954   7.311  0.00  0.00    -0.308 N 
ATOM     13  H   UNL     1       1.596  -6.297   7.787  0.00  0.00    +0.149 HD
BRANCH  12  14
ATOM     14  C   UNL     1       3.671  -5.889   7.978  0.00  0.00    +0.030 C 
ATOM     15  C   UNL     1       4.694  -6.698   7.179  0.00  0.00    +0.031 C 
ATOM     16  C   UNL     1       4.128  -4.431   8.064  0.00  0.00    +0.031 C 
BRANCH  14  17
ATOM     17  C   UNL     1       3.551  -6.469   9.389  0.00  0.00    +0.031 C 
BRANCH  17  18
ATOM     18  C   UNL     1       2.920  -5.428  10.316  0.00  0.00    -0.036 C 
ATOM     19  C   UNL     1       1.689  -4.821   9.640  0.00  0.00    +0.010 C 
ATOM     20  C   UNL     1       2.502  -6.099  11.627  0.00  0.00    +0.010 C 
ATOM     21  C   UNL     1       3.937  -4.324  10.610  0.00  0.00    +0.010 C 
ENDBRANCH  17  18
ENDBRANCH  14  17
ENDBRANCH  12  14
ENDBRANCH   1  10
BRANCH   1  22
ATOM     22  N   UNL     1       1.144  -5.404   3.876  0.00  0.00    -0.282 N 
ATOM     23  C   UNL     1       1.463  -4.125   3.594  0.00  0.00    +0.251 C 
ATOM     24  O   UNL     1       1.216  -3.665   2.495  0.00  0.00    -0.270 OA
BRANCH  23  25
ATOM     25  C   UNL     1       2.111  -3.283   4.617  0.00  0.00    +0.082 A 
ATOM     26  C   UNL     1       1.827  -3.480   5.972  0.00  0.00    +0.017 A 
ATOM     27  C   UNL     1       2.435  -2.693   6.925  0.00  0.00    +0.005 A 
ATOM     28  C   UNL     1       3.329  -1.704   6.549  0.00  0.00    +0.049 A 
ATOM     29  C   UNL     1       3.620  -1.496   5.211  0.00  0.00    +0.159 A 
ATOM     30  C   UNL     1       3.019  -2.287   4.237  0.00  0.00    +0.171 A 
BRANCH  30  31
ATOM     31  O   UNL     1       3.306  -2.091   2.925  0.00  0.00    -0.503 OA
ATOM     32  H   UNL     1       2.727  -1.453   2.487  0.00  0.00    +0.292 HD
ENDBRANCH  30  31
BRANCH  29  33
ATOM     33  O   UNL     1       4.499  -0.522   4.850  0.00  0.00    -0.503 OA
ATOM     34  H   UNL     1       5.417  -0.820   4.800  0.00  0.00    +0.292 HD
ENDBRANCH  29  33
ENDBRANCH  23  25
BRANCH  22  35
ATOM     35  C   UNL     1       0.963  -6.370   2.790  0.00  0.00    +0.109 C 
BRANCH  35  36
ATOM     36  C   UNL     1      -0.522  -6.462   2.431  0.00  0.00    +0.019 C 
BRANCH  36  37
ATOM     37  C   UNL     1      -0.711  -7.471   1.297  0.00  0.00    +0.002 C 
BRANCH  37  38
ATOM     38  C   UNL     1      -2.195  -7.562   0.938  0.00  0.00    -0.000 C 
BRANCH  38  40
ATOM     39  C   UNL     1      -3.869  -8.663  -0.556  0.00  0.00    +0.004 C 
ATOM     40  C   UNL     1      -2.385  -8.572  -0.197  0.00  0.00    -0.003 C 
ENDBRANCH  38  40
ENDBRANCH  37  38
ENDBRANCH  36  37
ENDBRANCH  35  36
ENDBRANCH  22  35
ENDBRANCH   1  22
TORSDOF 14
