REMARK  Name = ZINC37330648
REMARK  3 active torsions:
REMARK  status: ('A' for Active; 'I' for Inactive)
REMARK    1  A    between atoms: C_4  and  N_19
REMARK    2  A    between atoms: C_5  and  C_7
REMARK    3  A    between atoms: C_9  and  C_12
REMARK                            x       y       z     vdW  Elec       q    Type
REMARK                         _______ _______ _______ _____ _____    ______ ____
ROOT
ATOM      1  C   UNL     1       1.606  -2.113   0.313  0.00  0.00    +0.261 A 
ATOM      2  N   UNL     1       0.663  -3.021   0.422  0.00  0.00    -0.187 NA
ATOM      3  C   UNL     1       1.213  -4.237   0.556  0.00  0.00    +0.202 A 
ATOM      4  N   UNL     1       2.518  -4.117   0.534  0.00  0.00    -0.056 NA
ATOM      5  O   UNL     1       2.797  -2.735   0.371  0.00  0.00    -0.332 OA
ENDROOT
BRANCH   3   6
ATOM      6  C   UNL     1       0.465  -5.511   0.706  0.00  0.00    +0.024 A 
ATOM      7  C   UNL     1      -0.928  -5.508   0.710  0.00  0.00    +0.012 A 
ATOM      8  C   UNL     1      -1.619  -6.694   0.849  0.00  0.00    +0.002 A 
ATOM      9  C   UNL     1      -0.931  -7.886   0.986  0.00  0.00    +0.020 A 
ATOM     10  C   UNL     1       0.453  -7.896   0.983  0.00  0.00    +0.042 A 
ATOM     11  C   UNL     1       1.154  -6.714   0.838  0.00  0.00    +0.031 A 
ATOM     12 CL   UNL     1       1.310  -9.396   1.156  0.00  0.00    -0.084 Cl
ENDBRANCH   3   6
BRANCH   1  17
ATOM     13  C   UNL     1       0.290   1.368   0.807  0.00  0.00    +0.001 A 
ATOM     14  C   UNL     1       0.997   2.067  -0.158  0.00  0.00    +0.002 A 
ATOM     15  C   UNL     1       1.902   1.415  -0.971  0.00  0.00    +0.023 A 
ATOM     16  C   UNL     1       2.109   0.050  -0.826  0.00  0.00    +0.037 A 
ATOM     17  C   UNL     1       1.395  -0.661   0.150  0.00  0.00    +0.060 A 
ATOM     18  C   UNL     1       0.483   0.012   0.965  0.00  0.00    +0.015 A 
BRANCH  16  19
ATOM     19  N   UNL     1       3.020  -0.610  -1.645  0.00  0.00    -0.357 N 
ATOM     20  H   UNL     1       3.578  -0.104  -2.256  0.00  0.00    +0.142 HD
ATOM     21  H   UNL     1       3.096  -1.576  -1.606  0.00  0.00    +0.142 HD
ENDBRANCH  16  19
ENDBRANCH   1  17
TORSDOF 3
