REMARK  Name = ZINC63807457
REMARK  7 active torsions:
REMARK  status: ('A' for Active; 'I' for Inactive)
REMARK    1  A    between atoms: C_1  and  C_2
REMARK    2  A    between atoms: N_6  and  C_7
REMARK    3  A    between atoms: C_11  and  N_13
REMARK    4  A    between atoms: C_14  and  C_16
REMARK    5  A    between atoms: N_18  and  C_19
REMARK    6  A    between atoms: C_19  and  C_20
REMARK    7  A    between atoms: C_20  and  C_21
REMARK                            x       y       z     vdW  Elec       q    Type
REMARK                         _______ _______ _______ _____ _____    ______ ____
ROOT
ATOM      1  N   UNL     1       0.102  -2.040   5.805  0.00  0.00    -0.278 N 
ATOM      2  C   UNL     1      -0.083  -1.643   7.080  0.00  0.00    +0.303 C 
ATOM      3  O   UNL     1      -0.273  -0.471   7.329  0.00  0.00    -0.265 OA
ATOM      4  H   UNL     1       0.326  -2.964   5.612  0.00  0.00    +0.155 HD
ENDROOT
BRANCH   1   9
ATOM      5  C   UNL     1       0.662  -0.297   2.613  0.00  0.00    +0.055 A 
ATOM      6  C   UNL     1      -0.293   0.710   2.697  0.00  0.00    +0.025 A 
ATOM      7  C   UNL     1      -1.109   0.800   3.807  0.00  0.00    +0.004 A 
ATOM      8  C   UNL     1      -0.980  -0.111   4.839  0.00  0.00    +0.023 A 
ATOM      9  C   UNL     1      -0.028  -1.120   4.762  0.00  0.00    +0.036 A 
ATOM     10  C   UNL     1       0.790  -1.216   3.645  0.00  0.00    +0.048 A 
BRANCH   5  16
ATOM     11  C   UNL     1       3.545  -1.394   2.660  0.00  0.00    +0.086 C 
ATOM     12  C   UNL     1       2.786  -0.873   1.467  0.00  0.00    +0.133 C 
ATOM     13  N   UNL     1       3.240  -0.812   0.261  0.00  0.00    -0.159 NA
ATOM     14  N   UNL     1       2.248  -0.273  -0.568  0.00  0.00    -0.184 N 
ATOM     15  N   UNL     1       1.158  -0.009   0.217  0.00  0.00    -0.139 NA
ATOM     16  N   UNL     1       1.487  -0.387   1.490  0.00  0.00    -0.204 N 
ATOM     17  H   UNL     1       2.320  -0.115  -1.523  0.00  0.00    +0.191 HD
ATOM     18  H   UNL     1       0.347  -0.513  -0.109  0.00  0.00    +0.170 HD
ENDBRANCH   5  16
ENDBRANCH   1   9
BRANCH   2  19
ATOM     19  C   UNL     1      -0.054  -2.647   8.186  0.00  0.00    +0.299 C 
ATOM     20  O   UNL     1       0.136  -3.819   7.937  0.00  0.00    -0.265 OA
ATOM     21  N   UNL     1      -0.239  -2.250   9.461  0.00  0.00    -0.307 N 
ATOM     22  H   UNL     1      -0.391  -1.313   9.660  0.00  0.00    +0.149 HD
BRANCH  21  23
ATOM     23  C   UNL     1      -0.211  -3.235  10.545  0.00  0.00    +0.109 C 
BRANCH  23  24
ATOM     24  C   UNL     1      -0.446  -2.528  11.882  0.00  0.00    +0.052 C 
BRANCH  24  25
ATOM     25  C   UNL     1      -0.417  -3.540  12.998  0.00  0.00    -0.040 C 
ATOM     26  C   UNL     1       0.642  -3.865  13.774  0.00  0.00    -0.001 A 
ATOM     27  C   UNL     1       2.031  -3.393  13.809  0.00  0.00    +0.010 A 
ATOM     28  C   UNL     1       2.880  -3.919  14.720  0.00  0.00    +0.001 A 
ATOM     29  C   UNL     1       2.468  -4.903  15.630  0.00  0.00    +0.002 A 
ATOM     30  C   UNL     1       1.208  -5.388  15.658  0.00  0.00    +0.026 A 
ATOM     31  C   UNL     1       0.232  -4.904  14.745  0.00  0.00    +0.043 A 
ATOM     32  N   UNL     1      -1.032  -5.210  14.576  0.00  0.00    -0.380 N 
ATOM     33  C   UNL     1      -1.568  -4.394  13.481  0.00  0.00    +0.144 C 
ATOM     34  H   UNL     1      -1.530  -5.864  15.091  0.00  0.00    +0.160 HD
ENDBRANCH  24  25
ENDBRANCH  23  24
ENDBRANCH  21  23
ENDBRANCH   2  19
TORSDOF 6
