REMARK  Name = ZINC46983322
REMARK  9 active torsions:
REMARK  status: ('A' for Active; 'I' for Inactive)
REMARK    1  A    between atoms: C_1  and  N_2
REMARK    2  A    between atoms: N_2  and  C_3
REMARK    3  A    between atoms: N_2  and  C_23
REMARK    4  A    between atoms: C_3  and  C_4
REMARK    5  A    between atoms: C_4  and  C_5
REMARK    6  A    between atoms: C_5  and  N_6
REMARK    7  A    between atoms: N_9  and  N_10
REMARK    8  A    between atoms: C_11  and  C_13
REMARK    9  A    between atoms: C_23  and  C_24
REMARK                            x       y       z     vdW  Elec       q    Type
REMARK                         _______ _______ _______ _____ _____    ______ ____
ROOT
ATOM      1  N   UNL     1      -3.829  -0.866   3.006  0.00  0.00    -0.298 N 
ATOM      2  C   UNL     1      -5.108  -1.181   3.291  0.00  0.00    +0.316 C 
ATOM      3  O   UNL     1      -5.855  -1.549   2.406  0.00  0.00    -0.251 OA
ATOM      4  N   UNL     1      -5.558  -1.089   4.558  0.00  0.00    -0.218 N 
ATOM      5  H   UNL     1      -3.233  -0.572   3.712  0.00  0.00    +0.150 HD
ATOM      6  H   UNL     1      -6.479  -1.315   4.763  0.00  0.00    +0.174 HD
ENDROOT
BRANCH   4   7
ATOM      7  N   UNL     1      -4.697  -0.664   5.579  0.00  0.00    -0.228 N 
ATOM      8  C   UNL     1      -5.147  -0.572   6.846  0.00  0.00    +0.279 C 
ATOM      9  O   UNL     1      -6.300  -0.856   7.103  0.00  0.00    -0.267 OA
ATOM     10  H   UNL     1      -3.776  -0.438   5.373  0.00  0.00    +0.173 HD
BRANCH   8  11
ATOM     11  C   UNL     1      -4.236  -0.123   7.925  0.00  0.00    +0.127 A 
ATOM     12  C   UNL     1      -4.720  -0.038   9.239  0.00  0.00    +0.034 A 
ATOM     13  C   UNL     1      -3.891   0.374  10.243  0.00  0.00    +0.012 A 
ATOM     14  C   UNL     1      -2.562   0.702   9.916  0.00  0.00    +0.000 A 
ATOM     15  C   UNL     1      -1.655   1.133  10.898  0.00  0.00    +0.010 A 
ATOM     16  C   UNL     1      -0.377   1.441  10.545  0.00  0.00    +0.001 A 
ATOM     17  C   UNL     1       0.046   1.337   9.220  0.00  0.00    +0.002 A 
ATOM     18  C   UNL     1      -0.804   0.924   8.242  0.00  0.00    +0.028 A 
ATOM     19  C   UNL     1      -2.135   0.595   8.567  0.00  0.00    +0.072 A 
ATOM     20  N   UNL     1      -2.987   0.182   7.629  0.00  0.00    -0.242 NA
ENDBRANCH   8  11
ENDBRANCH   4   7
BRANCH   1  21
ATOM     21  C   UNL     1      -3.340  -0.967   1.629  0.00  0.00    +0.104 C 
BRANCH  21  22
ATOM     22  C   UNL     1      -1.867  -0.555   1.580  0.00  0.00    +0.000 C 
BRANCH  22  23
ATOM     23  C   UNL     1      -1.355  -0.660   0.141  0.00  0.00    -0.077 C 
BRANCH  23  25
ATOM     24  C   UNL     1       0.182   1.156   0.448  0.00  0.00    -0.096 C 
ATOM     25  N   UNL     1       0.059  -0.264   0.094  0.00  0.00    +0.384 N 
ATOM     26  H   UNL     1       0.586  -0.821   0.750  0.00  0.00    -0.082 HD
BRANCH  25  27
ATOM     27  C   UNL     1       0.582  -0.479  -1.261  0.00  0.00    +0.036 C 
BRANCH  27  28
ATOM     28  C   UNL     1       2.079  -0.163  -1.286  0.00  0.00    +0.376 C 
ATOM     29  F   UNL     1       2.726  -0.894  -0.284  0.00  0.00    -0.173 F 
ATOM     30  F   UNL     1       2.608  -0.512  -2.533  0.00  0.00    -0.173 F 
ATOM     31  F   UNL     1       2.271   1.204  -1.063  0.00  0.00    -0.173 F 
ENDBRANCH  27  28
ENDBRANCH  25  27
ENDBRANCH  23  25
ENDBRANCH  22  23
ENDBRANCH  21  22
ENDBRANCH   1  21
TORSDOF 8
