REMARK  Name = ZINC64228641
REMARK  13 active torsions:
REMARK  status: ('A' for Active; 'I' for Inactive)
REMARK    1  A    between atoms: C_1  and  C_2
REMARK    2  A    between atoms: C_2  and  N_3
REMARK    3  A    between atoms: N_3  and  C_4
REMARK    4  A    between atoms: N_3  and  C_6
REMARK    5  A    between atoms: C_4  and  C_5
REMARK    6  A    between atoms: C_6  and  C_7
REMARK    7  A    between atoms: C_6  and  C_24
REMARK    8  A    between atoms: C_7  and  N_8
REMARK    9  A    between atoms: N_11  and  N_12
REMARK   10  A    between atoms: C_13  and  C_15
REMARK   11  A    between atoms: C_15  and  C_16
REMARK   12  A    between atoms: C_16  and  O_17
REMARK   13  A    between atoms: O_17  and  C_18
REMARK                            x       y       z     vdW  Elec       q    Type
REMARK                         _______ _______ _______ _____ _____    ______ ____
ROOT
ATOM      1  N   UNL     1       1.187  -2.209   3.425  0.00  0.00    -0.299 N 
ATOM      2  C   UNL     1       1.919  -2.578   4.494  0.00  0.00    +0.316 C 
ATOM      3  O   UNL     1       3.045  -3.011   4.340  0.00  0.00    -0.251 OA
ATOM      4  N   UNL     1       1.403  -2.469   5.734  0.00  0.00    -0.218 N 
ATOM      5  H   UNL     1       0.319  -1.795   3.551  0.00  0.00    +0.150 HD
ATOM      6  H   UNL     1       1.956  -2.662   6.508  0.00  0.00    +0.174 HD
ENDROOT
BRANCH   4   7
ATOM      7  N   UNL     1       0.070  -2.076   5.906  0.00  0.00    -0.233 N 
ATOM      8  C   UNL     1      -0.416  -1.864   7.145  0.00  0.00    +0.232 C 
ATOM      9  O   UNL     1       0.301  -2.013   8.112  0.00  0.00    -0.274 OA
ATOM     10  H   UNL     1      -0.504  -1.958   5.133  0.00  0.00    +0.173 HD
BRANCH   8  11
ATOM     11  C   UNL     1      -1.851  -1.442   7.330  0.00  0.00    +0.138 C 
BRANCH  11  12
ATOM     12  C   UNL     1      -2.144  -1.270   8.822  0.00  0.00    +0.238 C 
BRANCH  12  13
ATOM     13  O   UNL     1      -3.505  -0.869   8.997  0.00  0.00    -0.491 OA
BRANCH  13  14
ATOM     14  C   UNL     1      -3.930  -0.672  10.272  0.00  0.00    +0.121 A 
ATOM     15  C   UNL     1      -3.055  -0.854  11.333  0.00  0.00    +0.045 A 
ATOM     16  C   UNL     1      -3.490  -0.653  12.629  0.00  0.00    +0.004 A 
ATOM     17  C   UNL     1      -4.797  -0.270  12.868  0.00  0.00    +0.000 A 
ATOM     18  C   UNL     1      -5.671  -0.088  11.813  0.00  0.00    +0.004 A 
ATOM     19  C   UNL     1      -5.239  -0.282  10.515  0.00  0.00    +0.045 A 
ENDBRANCH  13  14
ENDBRANCH  12  13
ENDBRANCH  11  12
ENDBRANCH   8  11
ENDBRANCH   4   7
BRANCH   1  20
ATOM     20  C   UNL     1       1.702  -2.432   2.071  0.00  0.00    +0.098 C 
BRANCH  20  21
ATOM     21  C   UNL     1       0.745  -1.811   1.052  0.00  0.00    +0.016 C 
BRANCH  21  22
ATOM     22  C   UNL     1       1.325  -1.950  -0.332  0.00  0.00    +0.093 A 
ATOM     23  C   UNL     1       0.872  -2.771  -1.296  0.00  0.00    +0.043 A 
ATOM     24  C   UNL     1       1.705  -2.579  -2.422  0.00  0.00    +0.041 A 
ATOM     25  C   UNL     1       2.618  -1.653  -2.078  0.00  0.00    +0.195 A 
ATOM     26  O   UNL     1       2.380  -1.272  -0.813  0.00  0.00    -0.469 OA
ENDBRANCH  21  22
BRANCH  21  27
ATOM     27  N   UNL     1       0.555  -0.388   1.363  0.00  0.00    +0.387 N 
ATOM     28  H   UNL     1       0.154  -0.296   2.284  0.00  0.00    -0.081 HD
BRANCH  27  30
ATOM     29  C   UNL     1       1.678   1.745   1.794  0.00  0.00    -0.017 C 
ATOM     30  C   UNL     1       1.852   0.300   1.321  0.00  0.00    -0.081 C 
ENDBRANCH  27  30
BRANCH  27  31
ATOM     31  C   UNL     1      -0.350   0.212   0.373  0.00  0.00    -0.081 C 
ATOM     32  C   UNL     1      -1.745  -0.399   0.520  0.00  0.00    -0.017 C 
ENDBRANCH  27  31
ENDBRANCH  21  27
ENDBRANCH  20  21
ENDBRANCH   1  20
TORSDOF 11
