REMARK  Name = ZINC66782187
REMARK  9 active torsions:
REMARK  status: ('A' for Active; 'I' for Inactive)
REMARK    1  A    between atoms: C_1  and  C_2
REMARK    2  A    between atoms: C_3  and  C_13
REMARK    3  A    between atoms: C_5  and  C_7
REMARK    4  A    between atoms: C_13  and  N_14
REMARK    5  A    between atoms: C_15  and  C_17
REMARK    6  A    between atoms: C_17  and  C_18
REMARK    7  A    between atoms: C_17  and  C_19
REMARK    8  A    between atoms: C_17  and  N_20
REMARK    9  A    between atoms: N_23  and  C_24
REMARK                            x       y       z     vdW  Elec       q    Type
REMARK                         _______ _______ _______ _____ _____    ______ ____
ROOT
ATOM      1  N   UNL     1       1.367   0.042  -3.054  0.00  0.00    -0.309 N 
ATOM      2  C   UNL     1       1.600   0.510  -4.296  0.00  0.00    +0.236 C 
ATOM      3  O   UNL     1       0.670   0.775  -5.029  0.00  0.00    -0.273 OA
ATOM      4  H   UNL     1       2.110  -0.170  -2.468  0.00  0.00    +0.149 HD
ENDROOT
BRANCH   2   5
ATOM      5  C   UNL     1       3.016   0.707  -4.774  0.00  0.00    +0.106 C 
ATOM      6  C   UNL     1       3.554  -0.613  -5.329  0.00  0.00    +0.041 C 
ATOM      7  C   UNL     1       3.040   1.771  -5.873  0.00  0.00    +0.041 C 
BRANCH   5   8
ATOM      8  N   UNL     1       3.853   1.142  -3.653  0.00  0.00    -0.286 N 
ATOM      9  C   UNL     1       5.165   1.381  -3.846  0.00  0.00    +0.300 C 
ATOM     10  O   UNL     1       5.654   1.235  -4.950  0.00  0.00    -0.253 OA
ATOM     11  N   UNL     1       5.936   1.782  -2.815  0.00  0.00    -0.302 N 
ATOM     12  C   UNL     1       7.362   2.042  -3.025  0.00  0.00    +0.129 C 
ATOM     13  H   UNL     1       3.463   1.259  -2.773  0.00  0.00    +0.151 HD
ATOM     14  H   UNL     1       5.546   1.899  -1.935  0.00  0.00    +0.150 HD
ENDBRANCH   5   8
ENDBRANCH   2   5
BRANCH   1  15
ATOM     15  C   UNL     1      -0.010  -0.149  -2.589  0.00  0.00    +0.148 C 
BRANCH  15  18
ATOM     16  C   UNL     1      -0.018   1.503   0.010  0.00  0.00    +0.066 C 
ATOM     17  C   UNL     1       0.002  -0.004   0.002  0.00  0.00    +0.051 A 
ATOM     18  C   UNL     1       0.005  -0.679  -1.179  0.00  0.00    +0.030 A 
ATOM     19  S   UNL     1       0.031  -2.368  -0.593  0.00  0.00    -0.070 S 
ATOM     20  C   UNL     1       0.035  -1.993   1.155  0.00  0.00    +0.109 A 
ATOM     21  N   UNL     1       0.022  -0.667   1.134  0.00  0.00    -0.244 NA
BRANCH  20  22
ATOM     22  C   UNL     1       0.053  -2.913   2.313  0.00  0.00    +0.007 A 
ATOM     23  C   UNL     1       0.076  -4.293   2.110  0.00  0.00    +0.010 A 
ATOM     24  C   UNL     1       0.092  -5.146   3.194  0.00  0.00    +0.001 A 
ATOM     25  C   UNL     1       0.086  -4.636   4.480  0.00  0.00    +0.000 A 
ATOM     26  C   UNL     1       0.063  -3.268   4.688  0.00  0.00    +0.001 A 
ATOM     27  C   UNL     1       0.053  -2.404   3.612  0.00  0.00    +0.010 A 
ENDBRANCH  20  22
ENDBRANCH  15  18
ENDBRANCH   1  15
TORSDOF 5
