REMARK  Name = ZINC16349645
REMARK  8 active torsions:
REMARK  status: ('A' for Active; 'I' for Inactive)
REMARK    1  A    between atoms: C_1  and  C_2
REMARK    2  A    between atoms: C_6  and  N_8
REMARK    3  A    between atoms: C_9  and  C_11
REMARK    4  A    between atoms: C_11  and  N_12
REMARK    5  A    between atoms: C_16  and  C_17
REMARK    6  A    between atoms: C_19  and  O_25
REMARK    7  A    between atoms: C_20  and  O_24
REMARK    8  A    between atoms: O_25  and  C_26
REMARK                            x       y       z     vdW  Elec       q    Type
REMARK                         _______ _______ _______ _____ _____    ______ ____
ROOT
ATOM      1  N   UNL     1      -0.305  -6.522   4.108  0.00  0.00    -0.212 N 
ATOM      2  C   UNL     1      -1.426  -7.190   3.767  0.00  0.00    +0.269 C 
ATOM      3  O   UNL     1      -2.574  -6.805   3.894  0.00  0.00    -0.268 OA
ATOM      4  C   UNL     1      -0.982  -8.477   3.209  0.00  0.00    +0.098 C 
ATOM      5  C   UNL     1      -1.760  -9.480   2.731  0.00  0.00    +0.036 C 
ATOM      6  N   UNL     1       0.418  -8.444   3.278  0.00  0.00    -0.265 N 
ATOM      7  C   UNL     1       0.774  -7.262   3.812  0.00  0.00    +0.314 C 
ATOM      8  O   UNL     1       1.923  -6.913   4.005  0.00  0.00    -0.252 OA
ATOM      9  H   UNL     1       1.021  -9.146   2.988  0.00  0.00    +0.157 HD
ENDROOT
BRANCH   5  10
ATOM     10  C   UNL     1      -3.207  -9.277   2.576  0.00  0.00    -0.018 A 
ATOM     11  C   UNL     1      -4.096 -10.324   2.849  0.00  0.00    +0.057 A 
ATOM     12  C   UNL     1      -5.455 -10.128   2.701  0.00  0.00    +0.163 A 
ATOM     13  C   UNL     1      -5.939  -8.890   2.281  0.00  0.00    +0.177 A 
ATOM     14  C   UNL     1      -5.059  -7.850   2.010  0.00  0.00    +0.087 A 
ATOM     15  C   UNL     1      -3.701  -8.035   2.160  0.00  0.00    +0.032 A 
ATOM     16 CL   UNL     1      -5.670  -6.312   1.487  0.00  0.00    -0.080 Cl
BRANCH  13  17
ATOM     17  O   UNL     1      -7.277  -8.700   2.137  0.00  0.00    -0.502 OA
ATOM     18  H   UNL     1      -7.717  -8.380   2.936  0.00  0.00    +0.292 HD
ENDBRANCH  13  17
BRANCH  12  19
ATOM     19  O   UNL     1      -6.321 -11.143   2.965  0.00  0.00    -0.491 OA
ATOM     20  C   UNL     1      -5.755 -12.384   3.391  0.00  0.00    +0.277 C 
ENDBRANCH  12  19
ENDBRANCH   5  10
BRANCH   1  21
ATOM     21  C   UNL     1      -0.271  -5.185   4.706  0.00  0.00    +0.214 C 
BRANCH  21  23
ATOM     22  N   UNL     1      -0.178  -2.838   3.930  0.00  0.00    -0.284 N 
ATOM     23  C   UNL     1      -0.216  -4.148   3.614  0.00  0.00    +0.235 C 
ATOM     24  O   UNL     1      -0.207  -4.491   2.451  0.00  0.00    -0.274 OA
ATOM     25  H   UNL     1      -0.104  -2.565   4.858  0.00  0.00    +0.155 HD
BRANCH  22  31
ATOM     26  C   UNL     1       1.123   1.578   2.204  0.00  0.00    +0.044 C 
ATOM     27  C   UNL     1       0.376   0.278   2.058  0.00  0.00    -0.049 A 
ATOM     28  C   UNL     1      -0.378   0.038   0.923  0.00  0.00    +0.003 A 
ATOM     29  C   UNL     1      -1.065  -1.154   0.784  0.00  0.00    +0.002 A 
ATOM     30  C   UNL     1      -1.000  -2.110   1.780  0.00  0.00    +0.023 A 
ATOM     31  C   UNL     1      -0.245  -1.872   2.920  0.00  0.00    +0.034 A 
ATOM     32  C   UNL     1       0.448  -0.676   3.054  0.00  0.00    +0.026 A 
ENDBRANCH  22  31
ENDBRANCH  21  23
ENDBRANCH   1  21
TORSDOF 6
