REMARK  Name = ZINC63679641
REMARK  11 active torsions:
REMARK  status: ('A' for Active; 'I' for Inactive)
REMARK    1  A    between atoms: C_1  and  C_2
REMARK    2  A    between atoms: C_4  and  S_10
REMARK    3  A    between atoms: C_7  and  O_8
REMARK    4  A    between atoms: O_8  and  C_9
REMARK    5  A    between atoms: S_10  and  N_13
REMARK    6  A    between atoms: C_18  and  C_20
REMARK    7  A    between atoms: C_20  and  N_21
REMARK    8  A    between atoms: C_22  and  C_24
REMARK    9  A    between atoms: N_26  and  C_27
REMARK   10  A    between atoms: C_27  and  C_28
REMARK   11  A    between atoms: C_28  and  C_29
REMARK                            x       y       z     vdW  Elec       q    Type
REMARK                         _______ _______ _______ _____ _____    ______ ____
ROOT
ATOM      1  N   UNL     1       0.495  -5.844  -2.885  0.00  0.00    -0.304 N 
ATOM      2  C   UNL     1      -0.432  -6.728  -2.466  0.00  0.00    +0.299 C 
ATOM      3  O   UNL     1      -0.480  -7.048  -1.297  0.00  0.00    -0.265 OA
ATOM      4  H   UNL     1       0.534  -5.589  -3.820  0.00  0.00    +0.149 HD
ENDROOT
BRANCH   2   5
ATOM      5  C   UNL     1      -1.400  -7.315  -3.442  0.00  0.00    +0.299 C 
ATOM      6  O   UNL     1      -1.351  -6.995  -4.612  0.00  0.00    -0.265 OA
ATOM      7  N   UNL     1      -2.327  -8.199  -3.023  0.00  0.00    -0.307 N 
ATOM      8  H   UNL     1      -2.366  -8.454  -2.088  0.00  0.00    +0.149 HD
BRANCH   7   9
ATOM      9  C   UNL     1      -3.276  -8.774  -3.979  0.00  0.00    +0.109 C 
BRANCH   9  10
ATOM     10  C   UNL     1      -4.213  -9.739  -3.250  0.00  0.00    +0.052 C 
BRANCH  10  11
ATOM     11  C   UNL     1      -5.189 -10.331  -4.234  0.00  0.00    -0.040 C 
ATOM     12  C   UNL     1      -5.074 -11.511  -4.884  0.00  0.00    -0.001 A 
ATOM     13  C   UNL     1      -4.044 -12.557  -4.871  0.00  0.00    +0.010 A 
ATOM     14  C   UNL     1      -4.211 -13.652  -5.648  0.00  0.00    +0.001 A 
ATOM     15  C   UNL     1      -5.340 -13.811  -6.464  0.00  0.00    +0.002 A 
ATOM     16  C   UNL     1      -6.328 -12.894  -6.530  0.00  0.00    +0.026 A 
ATOM     17  C   UNL     1      -6.256 -11.704  -5.754  0.00  0.00    +0.043 A 
ATOM     18  N   UNL     1      -7.071 -10.682  -5.646  0.00  0.00    -0.380 N 
ATOM     19  C   UNL     1      -6.499  -9.728  -4.690  0.00  0.00    +0.144 C 
ATOM     20  H   UNL     1      -7.912 -10.577  -6.117  0.00  0.00    +0.160 HD
ENDBRANCH  10  11
ENDBRANCH   9  10
ENDBRANCH   7   9
ENDBRANCH   2   5
BRANCH   1  21
ATOM     21  C   UNL     1       1.445  -5.269  -1.929  0.00  0.00    +0.154 C 
BRANCH  21  27
ATOM     22  N   UNL     1       1.648  -3.081  -3.016  0.00  0.00    -0.147 NA
ATOM     23  C   UNL     1       2.307  -2.107  -3.900  0.00  0.00    +0.114 C 
ATOM     24  C   UNL     1       2.830  -2.855  -5.132  0.00  0.00    +0.045 C 
ATOM     25  C   UNL     1       3.667  -4.051  -4.670  0.00  0.00    +0.163 C 
ATOM     26  O   UNL     1       2.861  -4.915  -3.865  0.00  0.00    -0.358 OA
ATOM     27  C   UNL     1       2.381  -4.304  -2.658  0.00  0.00    +0.226 C 
BRANCH  22  28
ATOM     28  S   UNL     1       0.122  -2.804  -2.434  0.00  0.00    +0.063 S 
ATOM     29  O   UNL     1      -0.485  -4.077  -2.265  0.00  0.00    -0.153 OA
ATOM     30  O   UNL     1      -0.447  -1.791  -3.252  0.00  0.00    -0.153 OA
BRANCH  28  34
ATOM     31  C   UNL     1       0.615   1.299   0.765  0.00  0.00    +0.047 C 
ATOM     32  C   UNL     1       0.520  -0.195   0.595  0.00  0.00    -0.007 A 
ATOM     33  C   UNL     1       0.384  -0.741  -0.667  0.00  0.00    +0.035 A 
ATOM     34  C   UNL     1       0.297  -2.111  -0.823  0.00  0.00    +0.106 A 
ATOM     35  C   UNL     1       0.347  -2.940   0.283  0.00  0.00    +0.032 A 
ATOM     36  C   UNL     1       0.483  -2.400   1.547  0.00  0.00    +0.048 A 
ATOM     37  C   UNL     1       0.576  -1.024   1.706  0.00  0.00    +0.123 A 
BRANCH  37  38
ATOM     38  O   UNL     1       0.716  -0.491   2.948  0.00  0.00    -0.495 OA
ATOM     39  C   UNL     1       0.766  -1.405   4.045  0.00  0.00    +0.277 C 
ENDBRANCH  37  38
ENDBRANCH  28  34
ENDBRANCH  22  28
ENDBRANCH  21  27
ENDBRANCH   1  21
TORSDOF 9
