REMARK  Name = ZINC19569209
REMARK  9 active torsions:
REMARK  status: ('A' for Active; 'I' for Inactive)
REMARK    1  A    between atoms: C_1  and  O_2
REMARK    2  A    between atoms: O_2  and  C_3
REMARK    3  A    between atoms: C_8  and  C_9
REMARK    4  A    between atoms: C_9  and  O_30
REMARK    5  A    between atoms: N_18  and  C_20
REMARK    6  A    between atoms: C_20  and  C_21
REMARK    7  A    between atoms: C_24  and  O_29
REMARK    8  A    between atoms: C_25  and  O_27
REMARK    9  A    between atoms: O_27  and  C_28
REMARK                            x       y       z     vdW  Elec       q    Type
REMARK                         _______ _______ _______ _____ _____    ______ ____
ROOT
ATOM      1  C   UNL     1      -6.253   0.482   3.003  0.00  0.00    +0.096 C 
ATOM      2  C   UNL     1      -7.060   1.708   3.355  0.00  0.00    +0.040 C 
ATOM      3  C   UNL     1      -6.366   2.518   4.450  0.00  0.00    +0.003 C 
ATOM      4  C   UNL     1      -5.038   3.016   3.881  0.00  0.00    +0.002 C 
ATOM      5  C   UNL     1      -4.116   1.857   3.582  0.00  0.00    -0.023 C 
ATOM      6  C   UNL     1      -4.767   0.588   3.083  0.00  0.00    +0.010 C 
ATOM      7  C   UNL     1      -4.117   0.301   1.708  0.00  0.00    -0.072 C 
ATOM      8  N   UNL     1      -2.795   0.982   1.791  0.00  0.00    +0.383 N 
ATOM      9  C   UNL     1      -3.105   2.264   2.482  0.00  0.00    -0.075 C 
ATOM     10  H   UNL     1      -2.031   0.383   2.308  0.00  0.00    -0.081 HD
ENDROOT
BRANCH   1  16
ATOM     11  C   UNL     1      -6.375  -1.949   3.606  0.00  0.00    +0.126 A 
ATOM     12  C   UNL     1      -6.775  -2.974   4.452  0.00  0.00    +0.046 A 
ATOM     13  C   UNL     1      -7.481  -2.682   5.603  0.00  0.00    +0.004 A 
ATOM     14  C   UNL     1      -7.788  -1.370   5.912  0.00  0.00    +0.001 A 
ATOM     15  C   UNL     1      -7.387  -0.347   5.074  0.00  0.00    +0.010 A 
ATOM     16  C   UNL     1      -6.686  -0.634   3.919  0.00  0.00    +0.026 A 
BRANCH  11  18
ATOM     17  C   UNL     1      -5.396  -3.610   2.214  0.00  0.00    +0.277 C 
ATOM     18  O   UNL     1      -5.681  -2.233   2.473  0.00  0.00    -0.495 OA
ENDBRANCH  11  18
ENDBRANCH   1  16
BRANCH   1  19
ATOM     19  O   UNL     1      -6.593   0.102   1.668  0.00  0.00    -0.384 OA
ATOM     20  H   UNL     1      -6.364   0.777   0.829  0.00  0.00    +0.211 HD
ENDBRANCH   1  19
BRANCH   8  21
ATOM     21  C   UNL     1      -2.244   1.225   0.451  0.00  0.00    -0.043 C 
BRANCH  21  22
ATOM     22  C   UNL     1      -1.039   2.124   0.560  0.00  0.00    -0.060 A 
ATOM     23  C   UNL     1       0.219   1.575   0.725  0.00  0.00    +0.005 A 
ATOM     24  C   UNL     1       1.328   2.395   0.819  0.00  0.00    +0.049 A 
ATOM     25  C   UNL     1       1.179   3.771   0.753  0.00  0.00    +0.158 A 
ATOM     26  C   UNL     1      -0.088   4.324   0.592  0.00  0.00    +0.161 A 
ATOM     27  C   UNL     1      -1.195   3.497   0.499  0.00  0.00    +0.051 A 
BRANCH  26  28
ATOM     28  O   UNL     1      -0.238   5.674   0.526  0.00  0.00    -0.491 OA
ATOM     29  C   UNL     1      -1.568   6.171   0.361  0.00  0.00    +0.277 C 
ENDBRANCH  26  28
BRANCH  25  30
ATOM     30  O   UNL     1       2.269   4.579   0.845  0.00  0.00    -0.503 OA
ATOM     31  H   UNL     1       2.150   5.672   0.792  0.00  0.00    +0.292 HD
ENDBRANCH  25  30
ENDBRANCH  21  22
ENDBRANCH   8  21
TORSDOF 7
