REMARK  Name = ZINC00242471
REMARK  7 active torsions:
REMARK  status: ('A' for Active; 'I' for Inactive)
REMARK    1  A    between atoms: C_1  and  C_2
REMARK    2  A    between atoms: C_7  and  C_15
REMARK    3  A    between atoms: C_9  and  C_13
REMARK    4  A    between atoms: C_10  and  N_12
REMARK    5  A    between atoms: C_18  and  N_21
REMARK    6  A    between atoms: N_21  and  C_22
REMARK    7  A    between atoms: N_21  and  C_23
REMARK                            x       y       z     vdW  Elec       q    Type
REMARK                         _______ _______ _______ _____ _____    ______ ____
ROOT
ATOM      1  C   UNL     1       2.257   5.696   0.317  0.00  0.00    +0.008 C 
ATOM      2  C   UNL     1       2.230   4.265  -0.227  0.00  0.00    +0.001 C 
ATOM      3  C   UNL     1       1.167   3.453   0.515  0.00  0.00    +0.078 C 
ATOM      4  C   UNL     1       1.164   2.032   0.003  0.00  0.00    +0.115 C 
ATOM      5  C   UNL     1       2.299   1.460  -0.440  0.00  0.00    +0.046 C 
ATOM      6  C   UNL     1       2.299   0.033  -0.932  0.00  0.00    +0.101 C 
ATOM      7  C   UNL     1       1.072  -0.683  -0.440  0.00  0.00    +0.098 C 
ATOM      8  C   UNL     1      -0.001   0.018   0.001  0.00  0.00    +0.198 C 
ATOM      9  O   UNL     1      -0.003   1.361   0.010  0.00  0.00    -0.445 OA
ATOM     10  C   UNL     1       3.515   2.169  -0.461  0.00  0.00    +0.164 C 
ATOM     11  O   UNL     1       4.522   1.615  -0.856  0.00  0.00    -0.292 OA
ATOM     12  C   UNL     1       3.592   3.600  -0.004  0.00  0.00    +0.083 C 
ENDROOT
BRANCH   6  13
ATOM     13  C   UNL     1       2.312   0.024  -2.439  0.00  0.00    -0.034 A 
ATOM     14  C   UNL     1       1.273   0.606  -3.142  0.00  0.00    +0.006 A 
ATOM     15  C   UNL     1       1.285   0.604  -4.522  0.00  0.00    +0.023 A 
ATOM     16  C   UNL     1       2.337   0.007  -5.206  0.00  0.00    +0.029 A 
ATOM     17  C   UNL     1       3.377  -0.581  -4.497  0.00  0.00    +0.023 A 
ATOM     18  C   UNL     1       3.361  -0.571  -3.116  0.00  0.00    +0.006 A 
BRANCH  16  19
ATOM     19  N   UNL     1       2.350  -0.001  -6.602  0.00  0.00    -0.336 N 
ATOM     20  C   UNL     1       3.517  -0.517  -7.321  0.00  0.00    +0.129 C 
ATOM     21  C   UNL     1       1.196   0.507  -7.348  0.00  0.00    +0.129 C 
ENDBRANCH  16  19
ENDBRANCH   6  13
BRANCH   8  22
ATOM     22  N   UNL     1      -1.108  -0.658   0.449  0.00  0.00    -0.328 N 
ATOM     23  H   UNL     1      -1.881  -0.166   0.767  0.00  0.00    +0.145 HD
ATOM     24  H   UNL     1      -1.117  -1.628   0.447  0.00  0.00    +0.145 HD
ENDBRANCH   8  22
BRANCH   7  25
ATOM     25  C   UNL     1       1.036  -2.114  -0.438  0.00  0.00    +0.101 C 
ATOM     26  N   UNL     1       1.008  -3.250  -0.436  0.00  0.00    -0.191 NA
ENDBRANCH   7  25
TORSDOF 4
