REMARK  Name = ZINC66371754
REMARK  3 active torsions:
REMARK  status: ('A' for Active; 'I' for Inactive)
REMARK    1  A    between atoms: C_3  and  N_8
REMARK    2  A    between atoms: N_11  and  C_14
REMARK    3  A    between atoms: C_14  and  N_15
REMARK                            x       y       z     vdW  Elec       q    Type
REMARK                         _______ _______ _______ _____ _____    ______ ____
ROOT
ATOM      1  C   UNL     1       6.876   3.765   1.910  0.00  0.00    +0.205 C 
ENDROOT
BRANCH   1   2
ATOM      2  N   UNL     1       7.425   5.025   1.403  0.00  0.00    -0.211 N 
ATOM      3  C   UNL     1       8.512   5.112   0.613  0.00  0.00    +0.248 C 
ATOM      4  O   UNL     1       9.195   4.197   0.205  0.00  0.00    -0.273 OA
ATOM      5  C   UNL     1       8.707   6.594   0.337  0.00  0.00    +0.113 C 
ATOM      6  C   UNL     1       8.458   6.830  -1.170  0.00  0.00    +0.035 C 
ATOM      7  C   UNL     1       8.069   8.268  -1.378  0.00  0.00    +0.003 C 
ATOM      8  C   UNL     1       9.273   9.164  -1.729  0.00  0.00    +0.000 C 
ATOM      9  C   UNL     1      10.522   8.845  -0.886  0.00  0.00    +0.000 C 
ATOM     10  C   UNL     1      10.185   8.592   0.559  0.00  0.00    +0.003 C 
ATOM     11  C   UNL     1      10.015   7.075   0.761  0.00  0.00    +0.035 C 
ATOM     12  N   UNL     1       7.598   7.225   1.082  0.00  0.00    -0.285 N 
ATOM     13  C   UNL     1       6.905   6.230   1.662  0.00  0.00    +0.310 C 
ATOM     14  O   UNL     1       5.918   6.405   2.349  0.00  0.00    -0.252 OA
ATOM     15  H   UNL     1       7.406   8.174   1.139  0.00  0.00    +0.151 HD
ENDBRANCH   1   2
BRANCH   1  19
ATOM     16  N   UNL     1       3.594   2.000  -0.022  0.00  0.00    -0.313 N 
ATOM     17  C   UNL     1       4.862   1.256  -0.044  0.00  0.00    +0.122 C 
ATOM     18  C   UNL     1       5.757   1.784   1.082  0.00  0.00    +0.105 C 
ATOM     19  N   UNL     1       5.890   3.241   0.955  0.00  0.00    -0.283 NA
ATOM     20  C   UNL     1       4.593   3.911   1.116  0.00  0.00    +0.105 C 
ATOM     21  C   UNL     1       3.650   3.470  -0.015  0.00  0.00    +0.122 C 
BRANCH  16  24
ATOM     22  C   UNL     1      -0.009   1.368  -0.209  0.00  0.00    +0.025 A 
ATOM     23  C   UNL     1       1.198   2.045  -0.219  0.00  0.00    +0.045 A 
ATOM     24  C   UNL     1       2.374   1.333  -0.013  0.00  0.00    +0.121 A 
ATOM     25  N   UNL     1       2.344   0.025   0.190  0.00  0.00    -0.239 NA
ATOM     26  C   UNL     1       1.208  -0.647   0.205  0.00  0.00    +0.132 A 
ATOM     27  C   UNL     1       0.002  -0.004   0.008  0.00  0.00    +0.059 A 
ATOM     28 CL   UNL     1      -1.484  -0.900   0.032  0.00  0.00    -0.082 Cl
ENDBRANCH  16  24
ENDBRANCH   1  19
TORSDOF 3
