REMARK  Name = ZINC62501657
REMARK  4 active torsions:
REMARK  status: ('A' for Active; 'I' for Inactive)
REMARK    1  A    between atoms: C_3  and  C_24
REMARK    2  A    between atoms: N_7  and  C_8
REMARK    3  A    between atoms: C_8  and  C_9
REMARK    4  A    between atoms: C_9  and  N_10
REMARK                            x       y       z     vdW  Elec       q    Type
REMARK                         _______ _______ _______ _____ _____    ______ ____
ROOT
ATOM      1  N   UNL     1       4.776  -4.294  -0.059  0.00  0.00    -0.298 N 
ATOM      2  C   UNL     1       5.914  -5.016  -0.081  0.00  0.00    +0.303 C 
ATOM      3  O   UNL     1       6.988  -4.457  -0.187  0.00  0.00    -0.253 OA
ATOM      4  N   UNL     1       5.861  -6.360   0.014  0.00  0.00    -0.282 N 
ATOM      5  C   UNL     1       4.573  -6.994   0.013  0.00  0.00    +0.113 C 
ATOM      6  C   UNL     1       4.579  -8.332  -0.662  0.00  0.00    +0.007 C 
ATOM      7  C   UNL     1       5.317  -8.320  -1.991  0.00  0.00    +0.008 C 
ATOM      8  C   UNL     1       6.805  -8.583  -1.880  0.00  0.00    -0.009 C 
ATOM      9  C   UNL     1       7.081  -9.828  -1.032  0.00  0.00    +0.007 C 
ATOM     10  C   UNL     1       6.483  -9.574   0.353  0.00  0.00    -0.009 C 
ATOM     11  C   UNL     1       4.963  -9.492   0.212  0.00  0.00    +0.008 C 
ATOM     12  C   UNL     1       7.045  -8.320   0.982  0.00  0.00    +0.026 C 
ATOM     13  C   UNL     1       7.109  -7.096   0.105  0.00  0.00    +0.078 C 
ATOM     14  C   UNL     1       7.591  -7.414  -1.305  0.00  0.00    +0.026 C 
ATOM     15  H   UNL     1       3.917  -4.743  -0.048  0.00  0.00    +0.150 HD
ENDROOT
BRANCH   1  16
ATOM     16  C   UNL     1       4.838  -2.830  -0.054  0.00  0.00    +0.124 C 
BRANCH  16  17
ATOM     17  C   UNL     1       3.419  -2.260  -0.028  0.00  0.00    +0.121 C 
BRANCH  17  24
ATOM     18  C   UNL     1      -0.013   1.381   0.045  0.00  0.00    +0.021 A 
ATOM     19  C   UNL     1       1.182   2.079   0.028  0.00  0.00    +0.024 A 
ATOM     20  C   UNL     1       2.377   1.350   0.005  0.00  0.00    +0.091 A 
ATOM     21  C   UNL     1       2.313  -0.054   0.000  0.00  0.00    +0.136 A 
ATOM     22  N   UNL     1       1.142  -0.670   0.016  0.00  0.00    -0.239 NA
ATOM     23  C   UNL     1       0.005  -0.002   0.038  0.00  0.00    +0.113 A 
ATOM     24  N   UNL     1       3.481  -0.796  -0.022  0.00  0.00    -0.327 N 
ATOM     25  H   UNL     1       4.341  -0.347  -0.034  0.00  0.00    +0.148 HD
BRANCH  20  26
ATOM     26  C   UNL     1       3.641   2.023  -0.013  0.00  0.00    +0.103 C 
ATOM     27  N   UNL     1       4.644   2.557  -0.027  0.00  0.00    -0.191 NA
ENDBRANCH  20  26
ENDBRANCH  17  24
ENDBRANCH  16  17
ENDBRANCH   1  16
TORSDOF 4
