REMARK  Name = ZINC09905580
REMARK  9 active torsions:
REMARK  status: ('A' for Active; 'I' for Inactive)
REMARK    1  A    between atoms: C_1  and  C_2
REMARK    2  A    between atoms: C_5  and  C_8
REMARK    3  A    between atoms: C_8  and  N_9
REMARK    4  A    between atoms: C_11  and  C_15
REMARK    5  A    between atoms: C_12  and  C_14
REMARK    6  A    between atoms: C_16  and  C_17
REMARK    7  A    between atoms: N_19  and  C_20
REMARK    8  A    between atoms: C_22  and  C_31
REMARK    9  A    between atoms: C_25  and  N_26
REMARK                            x       y       z     vdW  Elec       q    Type
REMARK                         _______ _______ _______ _____ _____    ______ ____
ROOT
ATOM      1  C   UNL     1      -2.742   5.216   0.192  0.00  0.00    +0.241 C 
ATOM      2  O   UNL     1      -1.738   5.904   0.230  0.00  0.00    -0.270 OA
ATOM      3  N   UNL     1      -2.638   3.881   0.042  0.00  0.00    -0.280 N 
ATOM      4  H   UNL     1      -3.438   3.340  -0.053  0.00  0.00    +0.155 HD
ENDROOT
BRANCH   3   5
ATOM      5  C   UNL     1      -1.375   3.274   0.024  0.00  0.00    +0.056 A 
ATOM      6  C   UNL     1      -0.300   3.931  -0.544  0.00  0.00    +0.038 A 
ATOM      7  C   UNL     1       0.958   3.322  -0.561  0.00  0.00    +0.038 A 
ATOM      8  C   UNL     1       1.124   2.051  -0.003  0.00  0.00    +0.015 A 
ATOM      9  C   UNL     1       0.050   1.400   0.562  0.00  0.00    +0.026 A 
ATOM     10  C   UNL     1      -1.203   2.001   0.575  0.00  0.00    +0.051 A 
BRANCH  10  11
ATOM     11  N   UNL     1      -2.288   1.336   1.141  0.00  0.00    -0.328 N 
ATOM     12  C   UNL     1      -1.851   0.090   1.822  0.00  0.00    +0.105 C 
ATOM     13  C   UNL     1      -3.018  -0.209   2.797  0.00  0.00    +0.020 C 
ATOM     14  C   UNL     1      -3.439   1.200   3.275  0.00  0.00    +0.020 C 
ATOM     15  C   UNL     1      -2.930   2.163   2.186  0.00  0.00    +0.105 C 
ENDBRANCH  10  11
BRANCH   7  16
ATOM     16  C   UNL     1       2.108   4.020  -1.165  0.00  0.00    +0.242 C 
ATOM     17  O   UNL     1       1.962   5.125  -1.651  0.00  0.00    -0.270 OA
ATOM     18  N   UNL     1       3.321   3.432  -1.180  0.00  0.00    -0.325 N 
ATOM     19  H   UNL     1       3.437   2.550  -0.793  0.00  0.00    +0.145 HD
ATOM     20  H   UNL     1       4.077   3.891  -1.578  0.00  0.00    +0.145 HD
ENDBRANCH   7  16
ENDBRANCH   3   5
BRANCH   1  22
ATOM     21  C   UNL     1      -4.123   7.158   0.456  0.00  0.00    +0.018 C 
ATOM     22  C   UNL     1      -4.019   5.819   0.306  0.00  0.00    +0.068 C 
BRANCH  21  25
ATOM     23  N   UNL     1      -7.539   8.341   0.194  0.00  0.00    -0.248 N 
ATOM     24  C   UNL     1      -6.529   7.582  -0.267  0.00  0.00    +0.135 A 
ATOM     25  C   UNL     1      -5.447   7.783   0.574  0.00  0.00    +0.034 A 
ATOM     26  C   UNL     1      -5.859   8.699   1.570  0.00  0.00    +0.069 A 
ATOM     27  N   UNL     1      -7.098   9.027   1.331  0.00  0.00    -0.174 NA
ATOM     28  C   UNL     1      -5.012   9.209   2.707  0.00  0.00    +0.068 C 
ATOM     29 CL   UNL     1      -6.574   6.544  -1.657  0.00  0.00    -0.062 Cl
BRANCH  23  30
ATOM     30  C   UNL     1      -8.877   8.435  -0.396  0.00  0.00    +0.180 C 
BRANCH  30  35
ATOM     31  C   UNL     1     -12.308   4.429   1.964  0.00  0.00    +0.044 C 
ATOM     32  C   UNL     1     -11.414   5.474   1.348  0.00  0.00    -0.050 A 
ATOM     33  C   UNL     1     -11.324   6.730   1.918  0.00  0.00    +0.004 A 
ATOM     34  C   UNL     1     -10.504   7.688   1.354  0.00  0.00    +0.006 A 
ATOM     35  C   UNL     1      -9.772   7.390   0.219  0.00  0.00    -0.026 A 
ATOM     36  C   UNL     1      -9.865   6.136  -0.354  0.00  0.00    +0.006 A 
ATOM     37  C   UNL     1     -10.683   5.176   0.213  0.00  0.00    +0.004 A 
ENDBRANCH  30  35
ENDBRANCH  23  30
ENDBRANCH  21  25
ENDBRANCH   1  22
TORSDOF 7
