REMARK  Name = ZINC00072970
REMARK  4 active torsions:
REMARK  status: ('A' for Active; 'I' for Inactive)
REMARK    1  A    between atoms: C_3  and  O_15
REMARK    2  A    between atoms: C_6  and  C_7
REMARK    3  A    between atoms: O_15  and  C_16
REMARK    4  A    between atoms: C_16  and  C_17
REMARK                            x       y       z     vdW  Elec       q    Type
REMARK                         _______ _______ _______ _____ _____    ______ ____
ROOT
ATOM      1  C   UNL     1       0.006  -0.048   0.421  0.00  0.00    +0.011 A 
ATOM      2  C   UNL     1      -0.040   1.327   0.490  0.00  0.00    +0.046 A 
ATOM      3  C   UNL     1       1.091   2.079   0.197  0.00  0.00    +0.121 A 
ATOM      4  C   UNL     1       2.275   1.448  -0.168  0.00  0.00    +0.046 A 
ATOM      5  C   UNL     1       2.333   0.075  -0.240  0.00  0.00    +0.011 A 
ATOM      6  C   UNL     1       1.196  -0.688   0.054  0.00  0.00    -0.023 A 
ENDROOT
BRANCH   6   7
ATOM      7  C   UNL     1       1.252  -2.153  -0.021  0.00  0.00    +0.036 C 
ATOM      8  C   UNL     1       0.194  -2.848  -0.511  0.00  0.00    +0.098 C 
ATOM      9  C   UNL     1      -1.008  -2.305  -1.162  0.00  0.00    +0.266 C 
ATOM     10  O   UNL     1      -1.258  -1.133  -1.373  0.00  0.00    -0.268 OA
ATOM     11  N   UNL     1      -1.776  -3.367  -1.478  0.00  0.00    -0.235 N 
ATOM     12  C   UNL     1      -1.170  -4.499  -1.089  0.00  0.00    +0.311 C 
ATOM     13  O   UNL     1      -1.630  -5.614  -1.246  0.00  0.00    -0.252 OA
ATOM     14  N   UNL     1       0.015  -4.238  -0.511  0.00  0.00    -0.265 N 
ATOM     15  H   UNL     1      -2.638  -3.319  -1.921  0.00  0.00    +0.159 HD
ATOM     16  H   UNL     1       0.634  -4.895  -0.155  0.00  0.00    +0.157 HD
ENDBRANCH   6   7
BRANCH   3  17
ATOM     17  O   UNL     1       1.040   3.433   0.266  0.00  0.00    -0.483 OA
BRANCH  17  18
ATOM     18  C   UNL     1       2.239   4.145  -0.048  0.00  0.00    +0.324 C 
BRANCH  18  19
ATOM     19  C   UNL     1       1.992   5.626   0.082  0.00  0.00    +0.248 C 
ATOM     20  O   UNL     1       0.898   6.032   0.412  0.00  0.00    -0.272 OA
ATOM     21  N   UNL     1       2.988   6.499  -0.167  0.00  0.00    -0.327 N 
ATOM     22  H   UNL     1       3.863   6.175  -0.431  0.00  0.00    +0.145 HD
ATOM     23  H   UNL     1       2.829   7.453  -0.084  0.00  0.00    +0.145 HD
ENDBRANCH  18  19
ENDBRANCH  17  18
ENDBRANCH   3  17
TORSDOF 4
