REMARK  Name = ZINC35774386
REMARK  3 active torsions:
REMARK  status: ('A' for Active; 'I' for Inactive)
REMARK    1  A    between atoms: C_1  and  C_2
REMARK    2  A    between atoms: N_8  and  C_9
REMARK    3  A    between atoms: C_14  and  N_15
REMARK                            x       y       z     vdW  Elec       q    Type
REMARK                         _______ _______ _______ _____ _____    ______ ____
ROOT
ATOM      1  C   UNL     1       1.406   0.381   2.036  0.00  0.00    +0.055 A 
ATOM      2  C   UNL     1       0.764   0.985   3.106  0.00  0.00    +0.074 A 
ATOM      3  C   UNL     1       1.460   1.853   3.935  0.00  0.00    +0.164 A 
ATOM      4  C   UNL     1       2.802   2.116   3.695  0.00  0.00    +0.164 A 
ATOM      5  C   UNL     1       3.446   1.514   2.624  0.00  0.00    +0.074 A 
ATOM      6  C   UNL     1       2.754   0.643   1.797  0.00  0.00    +0.050 A 
ATOM      7  O   UNL     1       3.502   2.960   4.504  0.00  0.00    -0.485 OA
ATOM      8  C   UNL     1       2.736   3.833   5.341  0.00  0.00    +0.270 C 
ATOM      9  C   UNL     1       1.628   3.007   6.009  0.00  0.00    +0.270 C 
ATOM     10  O   UNL     1       0.810   2.440   4.979  0.00  0.00    -0.485 OA
ENDROOT
BRANCH   1  17
ATOM     11  C   UNL     1      -0.019   1.526   0.010  0.00  0.00    +0.030 C 
ATOM     12  C   UNL     1       0.002  -0.004   0.002  0.00  0.00    +0.096 C 
ATOM     13  C   UNL     1      -1.434  -0.540   0.026  0.00  0.00    +0.182 C 
ATOM     14  O   UNL     1      -1.404  -1.958   0.205  0.00  0.00    -0.376 OA
ATOM     15  C   UNL     1      -0.827  -2.379   1.443  0.00  0.00    +0.178 C 
ATOM     16  C   UNL     1       0.640  -1.938   1.492  0.00  0.00    +0.133 C 
ATOM     17  N   UNL     1       0.702  -0.497   1.199  0.00  0.00    -0.321 N 
ENDBRANCH   1  17
BRANCH   6  18
ATOM     18  N   UNL     1       3.408   0.030   0.718  0.00  0.00    -0.356 N 
ATOM     19  H   UNL     1       2.922  -0.577   0.138  0.00  0.00    +0.142 HD
ATOM     20  H   UNL     1       4.346   0.212   0.552  0.00  0.00    +0.142 HD
ENDBRANCH   6  18
TORSDOF 2
