REMARK  Name = ZINC16009979
REMARK  6 active torsions:
REMARK  status: ('A' for Active; 'I' for Inactive)
REMARK    1  A    between atoms: C_1  and  C_2
REMARK    2  A    between atoms: C_16  and  C_19
REMARK    3  A    between atoms: C_19  and  C_20
REMARK    4  A    between atoms: C_20  and  C_21
REMARK    5  A    between atoms: N_26  and  C_29
REMARK    6  A    between atoms: C_29  and  C_30
REMARK                            x       y       z     vdW  Elec       q    Type
REMARK                         _______ _______ _______ _____ _____    ______ ____
ROOT
ATOM      1  C   UNL     1      -0.184   1.441  -0.082  0.00  0.00    +0.046 C 
ATOM      2  C   UNL     1      -0.111  -0.065  -0.064  0.00  0.00    -0.028 A 
ATOM      3  C   UNL     1      -0.074  -0.765  -1.252  0.00  0.00    +0.025 A 
ATOM      4  C   UNL     1      -0.007  -2.147  -1.247  0.00  0.00    +0.042 A 
ATOM      5  C   UNL     1       0.024  -2.830  -0.043  0.00  0.00    +0.027 A 
ATOM      6  C   UNL     1      -0.011  -2.134   1.145  0.00  0.00    +0.005 A 
ATOM      7  C   UNL     1      -0.074  -0.744   1.151  0.00  0.00    +0.042 A 
ATOM      8  N   UNL     1      -0.095  -0.267   2.464  0.00  0.00    -0.283 N 
ATOM      9  C   UNL     1      -0.044  -1.265   3.367  0.00  0.00    +0.243 C 
ATOM     10  O   UNL     1      -0.049  -1.150   4.575  0.00  0.00    -0.273 OA
ATOM     11  C   UNL     1       0.008  -2.550   2.588  0.00  0.00    +0.136 C 
ATOM     12  C   UNL     1      -1.171  -3.472   2.924  0.00  0.00    +0.122 C 
ATOM     13  C   UNL     1      -0.576  -4.906   2.859  0.00  0.00    +0.107 C 
ATOM     14  C   UNL     1       0.903  -4.705   2.466  0.00  0.00    +0.068 C 
ATOM     15  N   UNL     1       1.225  -3.317   2.913  0.00  0.00    -0.295 NA
ATOM     16  C   UNL     1      -0.667  -5.388   4.289  0.00  0.00    +0.227 C 
ATOM     17  O   UNL     1      -0.299  -6.471   4.688  0.00  0.00    -0.275 OA
ATOM     18  N   UNL     1      -1.217  -4.431   5.045  0.00  0.00    -0.237 N 
ATOM     19  C   UNL     1      -1.550  -3.302   4.378  0.00  0.00    +0.229 C 
ATOM     20  O   UNL     1      -2.065  -2.315   4.857  0.00  0.00    -0.275 OA
ATOM     21 CL   UNL     1       0.037  -3.022  -2.745  0.00  0.00    -0.084 Cl
ATOM     22  H   UNL     1      -0.141   0.673   2.698  0.00  0.00    +0.155 HD
ATOM     23  H   UNL     1       2.024  -2.957   2.412  0.00  0.00    +0.123 HD
ENDROOT
BRANCH  14  24
ATOM     24  C   UNL     1       1.791  -5.708   3.205  0.00  0.00    +0.031 C 
BRANCH  24  25
ATOM     25  C   UNL     1       3.232  -5.575   2.709  0.00  0.00    +0.126 C 
BRANCH  25  26
ATOM     26  C   UNL     1       4.107  -6.563   3.437  0.00  0.00    +0.356 C 
ATOM     27  O   UNL     1       3.623  -7.305   4.274  0.00  0.00    -0.246 OA
ATOM     28  O   UNL     1       5.299  -6.621   3.188  0.00  0.00    -0.246 OA
ENDBRANCH  25  26
ENDBRANCH  24  25
ENDBRANCH  14  24
BRANCH  18  29
ATOM     29  C   UNL     1      -1.446  -4.592   6.483  0.00  0.00    +0.153 C 
BRANCH  29  30
ATOM     30  C   UNL     1      -2.873  -5.017   6.719  0.00  0.00    -0.011 A 
ATOM     31  C   UNL     1      -3.836  -4.070   7.015  0.00  0.00    +0.006 A 
ATOM     32  C   UNL     1      -5.144  -4.459   7.232  0.00  0.00    +0.000 A 
ATOM     33  C   UNL     1      -5.491  -5.795   7.153  0.00  0.00    +0.001 A 
ATOM     34  C   UNL     1      -4.529  -6.742   6.857  0.00  0.00    +0.020 A 
ATOM     35  C   UNL     1      -3.220  -6.353   6.635  0.00  0.00    +0.046 A 
ATOM     36 CL   UNL     1      -2.013  -7.542   6.256  0.00  0.00    -0.083 Cl
ENDBRANCH  29  30
ENDBRANCH  18  29
TORSDOF 5
