REMARK  Name = ZINC17971922
REMARK  9 active torsions:
REMARK  status: ('A' for Active; 'I' for Inactive)
REMARK    1  A    between atoms: C_1  and  O_2
REMARK    2  A    between atoms: O_2  and  C_3
REMARK    3  A    between atoms: C_7  and  C_17
REMARK    4  A    between atoms: C_8  and  O_9
REMARK    5  A    between atoms: O_9  and  C_10
REMARK    6  A    between atoms: C_10  and  C_11
REMARK    7  A    between atoms: C_17  and  N_18
REMARK    8  A    between atoms: N_18  and  C_19
REMARK    9  A    between atoms: C_28  and  O_31
REMARK                            x       y       z     vdW  Elec       q    Type
REMARK                         _______ _______ _______ _____ _____    ______ ____
ROOT
ATOM      1  C   UNL     1       2.405   0.035  -0.021  0.00  0.00    +0.162 A 
ATOM      2  C   UNL     1       2.379   1.420  -0.013  0.00  0.00    +0.049 A 
ATOM      3  C   UNL     1       1.169   2.089   0.002  0.00  0.00    +0.004 A 
ATOM      4  C   UNL     1      -0.017   1.378   0.010  0.00  0.00    +0.005 A 
ATOM      5  C   UNL     1       0.002  -0.004   0.002  0.00  0.00    -0.019 A 
ATOM      6  C   UNL     1       1.211  -0.680  -0.013  0.00  0.00    +0.164 A 
ENDROOT
BRANCH   1   8
ATOM      7  C   UNL     1       4.779   0.174  -0.042  0.00  0.00    +0.277 C 
ATOM      8  O   UNL     1       3.594  -0.625  -0.035  0.00  0.00    -0.491 OA
ENDBRANCH   1   8
BRANCH   6   9
ATOM      9  O   UNL     1       1.232  -2.040  -0.021  0.00  0.00    -0.484 OA
BRANCH   9  10
ATOM     10  C   UNL     1       1.229  -2.682  -1.298  0.00  0.00    +0.264 C 
BRANCH  10  11
ATOM     11  C   UNL     1       1.253  -4.177  -1.109  0.00  0.00    -0.010 A 
ATOM     12  C   UNL     1       2.461  -4.845  -1.040  0.00  0.00    +0.007 A 
ATOM     13  C   UNL     1       2.483  -6.216  -0.861  0.00  0.00    +0.000 A 
ATOM     14  C   UNL     1       1.297  -6.919  -0.763  0.00  0.00    +0.000 A 
ATOM     15  C   UNL     1       0.089  -6.251  -0.839  0.00  0.00    +0.000 A 
ATOM     16  C   UNL     1       0.067  -4.880  -1.012  0.00  0.00    +0.007 A 
ENDBRANCH  10  11
ENDBRANCH   9  10
ENDBRANCH   6   9
BRANCH   5  17
ATOM     17  C   UNL     1      -1.293  -0.775   0.011  0.00  0.00    -0.042 C 
BRANCH  17  18
ATOM     18  N   UNL     1      -1.577  -1.240   1.375  0.00  0.00    +0.386 N 
ATOM     19  H   UNL     1      -0.759  -1.891   1.718  0.00  0.00    -0.085 HD
ATOM     20  H   UNL     1      -1.662  -0.373   2.047  0.00  0.00    -0.085 HD
BRANCH  18  21
ATOM     21  C   UNL     1      -2.834  -1.997   1.422  0.00  0.00    -0.065 C 
ATOM     22  C   UNL     1      -3.986  -1.103   0.959  0.00  0.00    -0.009 C 
ATOM     23  C   UNL     1      -5.296  -1.892   1.008  0.00  0.00    -0.009 C 
ATOM     24  C   UNL     1      -5.193  -3.109   0.086  0.00  0.00    +0.007 C 
ATOM     25  C   UNL     1      -4.041  -4.004   0.550  0.00  0.00    -0.009 C 
ATOM     26  C   UNL     1      -2.731  -3.215   0.501  0.00  0.00    -0.009 C 
ATOM     27  C   UNL     1      -4.303  -4.470   1.984  0.00  0.00    +0.038 C 
ATOM     28  C   UNL     1      -4.406  -3.252   2.905  0.00  0.00    +0.065 C 
ATOM     29  C   UNL     1      -5.557  -2.358   2.441  0.00  0.00    +0.038 C 
ATOM     30  C   UNL     1      -3.096  -2.463   2.856  0.00  0.00    +0.022 C 
BRANCH  28  31
ATOM     31  O   UNL     1      -4.650  -3.688   4.244  0.00  0.00    -0.389 OA
ATOM     32  H   UNL     1      -4.754  -2.949   5.052  0.00  0.00    +0.210 HD
ENDBRANCH  28  31
ENDBRANCH  18  21
ENDBRANCH  17  18
ENDBRANCH   5  17
TORSDOF 8
