REMARK  Name = ZINC45523563
REMARK  6 active torsions:
REMARK  status: ('A' for Active; 'I' for Inactive)
REMARK    1  A    between atoms: C_1  and  C_2
REMARK    2  A    between atoms: N_5  and  C_11
REMARK    3  A    between atoms: C_7  and  C_10
REMARK    4  A    between atoms: C_11  and  C_12
REMARK    5  A    between atoms: C_12  and  N_13
REMARK    6  A    between atoms: C_24  and  C_26
REMARK                            x       y       z     vdW  Elec       q    Type
REMARK                         _______ _______ _______ _____ _____    ______ ____
ROOT
ATOM      1  N   UNL     1      -4.051  -4.627  -0.178  0.00  0.00    -0.298 N 
ATOM      2  C   UNL     1      -4.234  -5.954  -0.327  0.00  0.00    +0.303 C 
ATOM      3  O   UNL     1      -3.279  -6.681  -0.518  0.00  0.00    -0.253 OA
ATOM      4  N   UNL     1      -5.476  -6.474  -0.266  0.00  0.00    -0.278 N 
ATOM      5  C   UNL     1      -5.678  -7.930  -0.313  0.00  0.00    +0.115 C 
ATOM      6  C   UNL     1      -6.270  -8.379   1.032  0.00  0.00    +0.062 C 
ATOM      7  C   UNL     1      -7.330  -7.407   1.437  0.00  0.00    -0.004 A 
ATOM      8  C   UNL     1      -7.544  -6.153   0.953  0.00  0.00    -0.017 A 
ATOM      9  C   UNL     1      -8.605  -5.440   1.509  0.00  0.00    +0.013 A 
ATOM     10  C   UNL     1      -9.364  -6.003   2.477  0.00  0.00    +0.046 A 
ATOM     11  S   UNL     1      -8.601  -7.608   2.657  0.00  0.00    -0.101 S 
ATOM     12  C   UNL     1      -6.647  -5.595  -0.144  0.00  0.00    +0.105 C 
ATOM     13  C   UNL     1      -7.412  -5.565  -1.469  0.00  0.00    +0.033 C 
ATOM     14  H   UNL     1      -4.818  -4.037  -0.101  0.00  0.00    +0.150 HD
ENDROOT
BRANCH   1  15
ATOM     15  C   UNL     1      -2.695  -4.075  -0.134  0.00  0.00    +0.121 C 
BRANCH  15  16
ATOM     16  C   UNL     1      -2.768  -2.556   0.041  0.00  0.00    +0.103 C 
BRANCH  16  20
ATOM     17  C   UNL     1      -0.018   1.526   0.010  0.00  0.00    +0.039 C 
ATOM     18  C   UNL     1       0.002  -0.004   0.004  0.00  0.00    +0.130 C 
ATOM     19  C   UNL     1      -1.434  -0.535   0.014  0.00  0.00    +0.115 C 
ATOM     20  N   UNL     1      -1.408  -2.003   0.086  0.00  0.00    -0.296 NA
ATOM     21  C   UNL     1      -0.695  -2.453   1.290  0.00  0.00    +0.115 C 
ATOM     22  C   UNL     1       0.733  -1.903   1.267  0.00  0.00    +0.130 C 
ATOM     23  O   UNL     1       0.689  -0.477   1.165  0.00  0.00    -0.371 OA
ATOM     24  C   UNL     1       1.455  -2.302   2.556  0.00  0.00    +0.039 C 
ENDBRANCH  16  20
ENDBRANCH  15  16
ENDBRANCH   1  15
TORSDOF 3
