REMARK  Name = ZINC09484204
REMARK  3 active torsions:
REMARK  status: ('A' for Active; 'I' for Inactive)
REMARK    1  A    between atoms: N_13  and  C_17
REMARK    2  A    between atoms: C_17  and  C_18
REMARK    3  A    between atoms: N_20  and  C_21
REMARK                            x       y       z     vdW  Elec       q    Type
REMARK                         _______ _______ _______ _____ _____    ______ ____
ROOT
ATOM      1  C   UNL     1       2.394   0.022  -0.026  0.00  0.00    +0.001 A 
ATOM      2  C   UNL     1       1.204  -0.682  -0.015  0.00  0.00    +0.004 A 
ATOM      3  C   UNL     1       0.002  -0.004   0.002  0.00  0.00    +0.046 A 
ATOM      4  C   UNL     1      -0.017   1.387   0.010  0.00  0.00    +0.126 A 
ATOM      5  C   UNL     1       1.177   2.090   0.002  0.00  0.00    +0.027 A 
ATOM      6  C   UNL     1       2.379   1.403  -0.018  0.00  0.00    +0.010 A 
ATOM      7  C   UNL     1       1.193   3.593   0.021  0.00  0.00    +0.144 C 
ATOM      8  C   UNL     1      -0.172   4.154  -0.364  0.00  0.00    +0.081 C 
ATOM      9  C   UNL     1      -1.248   3.392   0.422  0.00  0.00    +0.232 C 
ATOM     10  O   UNL     1      -1.217   2.022   0.019  0.00  0.00    -0.492 OA
ATOM     11  C   UNL     1       1.605   4.098   1.385  0.00  0.00    +0.252 C 
ATOM     12  O   UNL     1       1.036   3.914   2.439  0.00  0.00    -0.272 OA
ATOM     13  N   UNL     1       2.741   4.797   1.181  0.00  0.00    -0.215 N 
ATOM     14  C   UNL     1       3.094   4.800  -0.110  0.00  0.00    +0.310 C 
ATOM     15  O   UNL     1       4.081   5.364  -0.540  0.00  0.00    -0.252 OA
ATOM     16  N   UNL     1       2.232   4.107  -0.880  0.00  0.00    -0.281 N 
ATOM     17  H   UNL     1       2.288   3.974  -1.839  0.00  0.00    +0.152 HD
ENDROOT
BRANCH  13  18
ATOM     18  C   UNL     1       3.495   5.470   2.242  0.00  0.00    +0.213 C 
BRANCH  18  19
ATOM     19  C   UNL     1       4.517   4.520   2.812  0.00  0.00    +0.231 C 
ATOM     20  O   UNL     1       4.607   3.392   2.375  0.00  0.00    -0.274 OA
ATOM     21  N   UNL     1       5.331   4.924   3.807  0.00  0.00    -0.311 N 
ATOM     22  H   UNL     1       5.259   5.827   4.156  0.00  0.00    +0.149 HD
BRANCH  21  23
ATOM     23  C   UNL     1       6.325   4.001   4.361  0.00  0.00    +0.073 C 
ATOM     24  C   UNL     1       5.636   3.090   5.398  0.00  0.00    +0.022 C 
ATOM     25  C   UNL     1       6.476   1.855   5.582  0.00  0.00    +0.002 C 
ATOM     26  C   UNL     1       7.455   1.979   6.765  0.00  0.00    +0.000 C 
ATOM     27  C   UNL     1       8.128   3.363   6.841  0.00  0.00    +0.000 C 
ATOM     28  C   UNL     1       8.543   3.877   5.489  0.00  0.00    +0.002 C 
ATOM     29  C   UNL     1       7.415   4.773   4.939  0.00  0.00    +0.022 C 
ENDBRANCH  21  23
ENDBRANCH  18  19
ENDBRANCH  13  18
TORSDOF 3
