REMARK  Name = ZINC63258123
REMARK  8 active torsions:
REMARK  status: ('A' for Active; 'I' for Inactive)
REMARK    1  A    between atoms: C_1  and  C_2
REMARK    2  A    between atoms: C_5  and  N_25
REMARK    3  A    between atoms: C_7  and  N_8
REMARK    4  A    between atoms: N_11  and  C_12
REMARK    5  A    between atoms: C_12  and  C_13
REMARK    6  A    between atoms: C_13  and  C_14
REMARK    7  A    between atoms: C_14  and  N_15
REMARK    8  A    between atoms: C_16  and  C_18
REMARK                            x       y       z     vdW  Elec       q    Type
REMARK                         _______ _______ _______ _____ _____    ______ ____
ROOT
ATOM      1  N   UNL     1       0.025  -0.015   2.417  0.00  0.00    -0.269 N 
ATOM      2  C   UNL     1      -0.056  -0.694   3.578  0.00  0.00    +0.304 C 
ATOM      3  O   UNL     1      -0.040  -1.910   3.573  0.00  0.00    -0.253 OA
ATOM      4  N   UNL     1      -0.156  -0.026   4.745  0.00  0.00    -0.299 N 
ATOM      5  H   UNL     1       0.078   0.954   2.425  0.00  0.00    +0.156 HD
ATOM      6  H   UNL     1      -0.169   0.944   4.748  0.00  0.00    +0.150 HD
ENDROOT
BRANCH   1  13
ATOM      7  C   UNL     1      -1.265   1.183   0.181  0.00  0.00    +0.045 C 
ATOM      8  C   UNL     1      -0.584  -0.158   0.084  0.00  0.00    -0.029 A 
ATOM      9  C   UNL     1      -0.569  -0.840  -1.117  0.00  0.00    +0.007 A 
ATOM     10  C   UNL     1       0.056  -2.070  -1.206  0.00  0.00    +0.033 A 
ATOM     11  C   UNL     1       0.667  -2.622  -0.095  0.00  0.00    +0.128 A 
ATOM     12  C   UNL     1       0.655  -1.945   1.108  0.00  0.00    +0.056 A 
ATOM     13  C   UNL     1       0.034  -0.706   1.200  0.00  0.00    +0.040 A 
BRANCH  11  14
ATOM     14  N   UNL     1       1.335  -3.939  -0.196  0.00  0.00    +0.056 N 
ATOM     15  O   UNL     1       1.345  -4.532  -1.249  0.00  0.00    -0.126 OA
ATOM     16  O   UNL     1       1.870  -4.421   0.775  0.00  0.00    -0.126 OA
ENDBRANCH  11  14
ENDBRANCH   1  13
BRANCH   4  17
ATOM     17  C   UNL     1      -0.245  -0.765   6.006  0.00  0.00    +0.107 C 
BRANCH  17  18
ATOM     18  C   UNL     1      -0.348   0.223   7.170  0.00  0.00    +0.037 C 
BRANCH  18  19
ATOM     19  C   UNL     1      -0.441  -0.549   8.488  0.00  0.00    +0.106 C 
BRANCH  19  20
ATOM     20  N   UNL     1      -0.540   0.398   9.602  0.00  0.00    -0.311 N 
ATOM     21  C   UNL     1      -0.632  -0.058  10.867  0.00  0.00    +0.247 C 
ATOM     22  O   UNL     1      -0.633  -1.254  11.083  0.00  0.00    -0.270 OA
ATOM     23  H   UNL     1      -0.539   1.352   9.429  0.00  0.00    +0.149 HD
BRANCH  21  24
ATOM     24  C   UNL     1      -0.732   0.896  11.990  0.00  0.00    +0.072 A 
ATOM     25  C   UNL     1      -0.737   2.271  11.744  0.00  0.00    +0.016 A 
ATOM     26  C   UNL     1      -0.831   3.156  12.797  0.00  0.00    +0.001 A 
ATOM     27  C   UNL     1      -0.920   2.686  14.097  0.00  0.00    +0.003 A 
ATOM     28  C   UNL     1      -0.916   1.328  14.350  0.00  0.00    +0.039 A 
ATOM     29  C   UNL     1      -0.829   0.427  13.304  0.00  0.00    +0.135 A 
ATOM     30  F   UNL     1      -0.830  -0.901  13.551  0.00  0.00    -0.205 F 
ENDBRANCH  21  24
ENDBRANCH  19  20
ENDBRANCH  18  19
ENDBRANCH  17  18
ENDBRANCH   4  17
TORSDOF 7
