REMARK  Name = ZINC12744027
REMARK  8 active torsions:
REMARK  status: ('A' for Active; 'I' for Inactive)
REMARK    1  A    between atoms: C_1  and  C_2
REMARK    2  A    between atoms: C_5  and  N_9
REMARK    3  A    between atoms: C_7  and  C_8
REMARK    4  A    between atoms: C_10  and  C_12
REMARK    5  A    between atoms: C_12  and  C_13
REMARK    6  A    between atoms: C_13  and  C_14
REMARK    7  A    between atoms: C_14  and  C_15
REMARK    8  A    between atoms: C_15  and  C_16
REMARK                            x       y       z     vdW  Elec       q    Type
REMARK                         _______ _______ _______ _____ _____    ______ ____
ROOT
ATOM      1  C   UNL     1      -0.008   1.526   0.016  0.00  0.00    +0.002 C 
ENDROOT
BRANCH   1   2
ATOM      2  C   UNL     1      -0.732   2.019   1.270  0.00  0.00    +0.009 C 
BRANCH   2   3
ATOM      3  C   UNL     1      -0.750   3.549   1.281  0.00  0.00    +0.096 C 
BRANCH   3   5
ATOM      4  N   UNL     1      -1.600   5.357   2.739  0.00  0.00    -0.285 N 
ATOM      5  C   UNL     1      -1.462   4.035   2.517  0.00  0.00    +0.217 C 
ATOM      6  O   UNL     1      -1.912   3.236   3.311  0.00  0.00    -0.275 OA
ATOM      7  H   UNL     1      -1.183   5.996   2.140  0.00  0.00    +0.155 HD
BRANCH   4  12
ATOM      8  C   UNL     1      -4.619   7.187   7.180  0.00  0.00    +0.044 C 
ATOM      9  C   UNL     1      -3.817   6.700   6.000  0.00  0.00    -0.047 A 
ATOM     10  C   UNL     1      -3.067   5.543   6.106  0.00  0.00    +0.005 A 
ATOM     11  C   UNL     1      -2.331   5.095   5.027  0.00  0.00    +0.023 A 
ATOM     12  C   UNL     1      -2.345   5.808   3.835  0.00  0.00    +0.034 A 
ATOM     13  C   UNL     1      -3.094   6.973   3.734  0.00  0.00    +0.027 A 
ATOM     14  C   UNL     1      -3.833   7.412   4.816  0.00  0.00    -0.046 A 
ATOM     15  C   UNL     1      -4.651   8.673   4.705  0.00  0.00    +0.044 C 
ENDBRANCH   4  12
ENDBRANCH   3   5
ENDBRANCH   2   3
ENDBRANCH   1   2
BRANCH   1  16
ATOM     16  C   UNL     1       0.009  -0.004   0.005  0.00  0.00    +0.028 C 
BRANCH  16  17
ATOM     17  C   UNL     1       0.733  -0.497  -1.249  0.00  0.00    +0.152 C 
ATOM     18  C   UNL     1       0.801  -2.003  -1.282  0.00  0.00    +0.120 C 
ATOM     19  C   UNL     1      -0.552  -2.548  -1.835  0.00  0.00    +0.117 C 
ATOM     20  C   UNL     1      -0.706  -1.923  -3.220  0.00  0.00    +0.190 C 
ATOM     21  S   UNL     1      -0.268  -0.165  -2.774  0.00  0.00    -0.025 S 
ATOM     22  O   UNL     1      -1.449   0.537  -2.410  0.00  0.00    -0.174 OA
ATOM     23  O   UNL     1       0.582   0.366  -3.780  0.00  0.00    -0.174 OA
ATOM     24  N   UNL     1      -0.324  -3.964  -1.657  0.00  0.00    -0.293 N 
ATOM     25  C   UNL     1       0.455  -4.069  -0.538  0.00  0.00    +0.300 C 
ATOM     26  O   UNL     1       0.640  -5.112   0.058  0.00  0.00    -0.253 OA
ATOM     27  N   UNL     1       1.002  -2.873  -0.161  0.00  0.00    -0.293 N 
ATOM     28  H   UNL     1      -0.653  -4.687  -2.213  0.00  0.00    +0.151 HD
ATOM     29  H   UNL     1       1.433  -2.660   0.682  0.00  0.00    +0.151 HD
ENDBRANCH  16  17
ENDBRANCH   1  16
TORSDOF 6
