REMARK  Name = ZINC45067973
REMARK  7 active torsions:
REMARK  status: ('A' for Active; 'I' for Inactive)
REMARK    1  A    between atoms: C_2  and  C_13
REMARK    2  A    between atoms: C_13  and  N_14
REMARK    3  A    between atoms: N_14  and  C_15
REMARK    4  A    between atoms: C_15  and  C_16
REMARK    5  A    between atoms: C_16  and  C_17
REMARK    6  A    between atoms: C_17  and  S_18
REMARK    7  A    between atoms: S_18  and  N_21
REMARK                            x       y       z     vdW  Elec       q    Type
REMARK                         _______ _______ _______ _____ _____    ______ ____
ROOT
ATOM      1  C   UNL     1       1.159   3.590   0.010  0.00  0.00    -0.047 C 
ENDROOT
BRANCH   1   3
ATOM      2  C   UNL     1      -0.017   1.380   0.010  0.00  0.00    +0.051 A 
ATOM      3  C   UNL     1       1.175   2.083   0.002  0.00  0.00    -0.060 A 
ATOM      4  C   UNL     1       2.381   1.407  -0.013  0.00  0.00    +0.021 A 
ATOM      5  C   UNL     1       2.404   0.023  -0.022  0.00  0.00    +0.063 A 
ATOM      6  C   UNL     1       1.212  -0.683  -0.014  0.00  0.00    +0.176 A 
ATOM      7  C   UNL     1       0.002  -0.004   0.002  0.00  0.00    +0.163 A 
ATOM      8  O   UNL     1      -1.167  -0.709   0.010  0.00  0.00    -0.488 OA
ATOM      9  C   UNL     1      -1.468  -1.433  -1.184  0.00  0.00    +0.232 C 
ATOM     10  C   UNL     1      -0.780  -2.789  -1.181  0.00  0.00    +0.082 C 
ATOM     11  C   UNL     1       0.736  -2.670  -1.212  0.00  0.00    +0.232 C 
ATOM     12  O   UNL     1       1.220  -2.048  -0.021  0.00  0.00    -0.487 OA
ATOM     13 BR   UNL     1       4.054  -0.900  -0.044  0.00  0.00    -0.046 Br
ENDBRANCH   1   3
BRANCH   1  14
ATOM     14  N   UNL     1       1.167   4.072   1.398  0.00  0.00    +0.382 N 
ATOM     15  H   UNL     1       0.351   3.724   1.879  0.00  0.00    -0.085 HD
ATOM     16  H   UNL     1       1.999   3.742   1.864  0.00  0.00    -0.085 HD
BRANCH  14  17
ATOM     17  C   UNL     1       1.151   5.541   1.405  0.00  0.00    -0.081 C 
BRANCH  17  18
ATOM     18  C   UNL     1       1.159   6.043   2.851  0.00  0.00    +0.005 C 
BRANCH  18  19
ATOM     19  C   UNL     1       1.143   7.573   2.859  0.00  0.00    +0.183 C 
BRANCH  19  20
ATOM     20  S   UNL     1       1.152   8.169   4.572  0.00  0.00    +0.027 S 
ATOM     21  O   UNL     1      -0.073   7.839   5.212  0.00  0.00    -0.158 OA
ATOM     22  O   UNL     1       2.396   7.866   5.189  0.00  0.00    -0.158 OA
BRANCH  20  23
ATOM     23  N   UNL     1       1.133   9.820   4.449  0.00  0.00    -0.208 NA
ATOM     24  H   UNL     1       0.714  10.353   5.142  0.00  0.00    +0.144 HD
ATOM     25  H   UNL     1       1.541  10.254   3.683  0.00  0.00    +0.144 HD
ENDBRANCH  20  23
ENDBRANCH  19  20
ENDBRANCH  18  19
ENDBRANCH  17  18
ENDBRANCH  14  17
ENDBRANCH   1  14
TORSDOF 7
