REMARK  Name = ZINC01373093
REMARK  9 active torsions:
REMARK  status: ('A' for Active; 'I' for Inactive)
REMARK    1  A    between atoms: C_1  and  C_2
REMARK    2  A    between atoms: C_7  and  C_14
REMARK    3  A    between atoms: C_14  and  N_15
REMARK    4  A    between atoms: N_15  and  C_16
REMARK    5  A    between atoms: N_15  and  C_28
REMARK    6  A    between atoms: C_16  and  C_17
REMARK    7  A    between atoms: N_21  and  C_22
REMARK    8  A    between atoms: C_22  and  C_23
REMARK    9  A    between atoms: C_28  and  C_29
REMARK                            x       y       z     vdW  Elec       q    Type
REMARK                         _______ _______ _______ _____ _____    ______ ____
ROOT
ATOM      1  N   UNL     1       1.597  -6.286   1.102  0.00  0.00    -0.288 NA
ENDROOT
BRANCH   1   2
ATOM      2  C   UNL     1       0.202  -5.849   1.243  0.00  0.00    +0.125 C 
BRANCH   2   9
ATOM      3  C   UNL     1      -0.153   2.119   1.354  0.00  0.00    +0.044 C 
ATOM      4  C   UNL     1      -0.119   0.633   1.103  0.00  0.00    -0.048 A 
ATOM      5  C   UNL     1      -0.280   0.151  -0.189  0.00  0.00    +0.004 A 
ATOM      6  C   UNL     1      -0.253  -1.191  -0.439  0.00  0.00    +0.010 A 
ATOM      7  C   UNL     1      -0.062  -2.089   0.617  0.00  0.00    -0.001 A 
ATOM      8  C   UNL     1      -0.027  -3.534   0.385  0.00  0.00    +0.020 A 
ATOM      9  C   UNL     1       0.162  -4.356   1.447  0.00  0.00    +0.031 A 
ATOM     10  C   UNL     1       0.320  -3.819   2.743  0.00  0.00    +0.254 A 
ATOM     11  O   UNL     1       0.489  -4.575   3.683  0.00  0.00    -0.268 OA
ATOM     12  N   UNL     1       0.289  -2.493   2.965  0.00  0.00    -0.322 N 
ATOM     13  H   UNL     1       0.402  -2.157   3.868  0.00  0.00    +0.169 HD
ATOM     14  C   UNL     1       0.101  -1.604   1.929  0.00  0.00    +0.049 A 
ATOM     15  C   UNL     1       0.076  -0.232   2.158  0.00  0.00    +0.029 A 
ENDBRANCH   2   9
ENDBRANCH   1   2
BRANCH   1  16
ATOM     16  C   UNL     1       1.669  -7.688   0.668  0.00  0.00    +0.162 C 
BRANCH  16  17
ATOM     17  C   UNL     1       1.287  -7.783  -0.787  0.00  0.00    +0.166 A 
ATOM     18  N   UNL     1       0.084  -7.973  -1.270  0.00  0.00    -0.112 NA
ATOM     19  N   UNL     1       0.170  -7.995  -2.555  0.00  0.00    -0.023 NA
ATOM     20  N   UNL     1       1.397  -7.823  -2.905  0.00  0.00    -0.043 NA
ATOM     21  N   UNL     1       2.116  -7.683  -1.843  0.00  0.00    -0.221 N 
BRANCH  21  22
ATOM     22  C   UNL     1       3.563  -7.460  -1.796  0.00  0.00    +0.221 C 
BRANCH  22  23
ATOM     23  C   UNL     1       4.274  -8.788  -1.750  0.00  0.00    +0.126 A 
ATOM     24  C   UNL     1       4.688  -9.496  -2.816  0.00  0.00    +0.046 A 
ATOM     25  C   UNL     1       5.301 -10.668  -2.317  0.00  0.00    +0.041 A 
ATOM     26  C   UNL     1       5.225 -10.607  -0.975  0.00  0.00    +0.195 A 
ATOM     27  O   UNL     1       4.607  -9.463  -0.637  0.00  0.00    -0.466 OA
ENDBRANCH  22  23
ENDBRANCH  21  22
ENDBRANCH  16  17
ENDBRANCH   1  16
BRANCH   1  28
ATOM     28  C   UNL     1       2.342  -6.084   2.352  0.00  0.00    +0.116 C 
BRANCH  28  29
ATOM     29  C   UNL     1       3.826  -6.370   2.114  0.00  0.00    +0.132 C 
ATOM     30  C   UNL     1       4.624  -6.110   3.410  0.00  0.00    +0.035 C 
ATOM     31  C   UNL     1       5.922  -5.450   2.871  0.00  0.00    +0.031 C 
ATOM     32  C   UNL     1       5.368  -4.656   1.662  0.00  0.00    +0.160 C 
ATOM     33  O   UNL     1       4.335  -5.489   1.106  0.00  0.00    -0.375 OA
ENDBRANCH  28  29
ENDBRANCH   1  28
TORSDOF 8
