REMARK  Name = ZINC51335458
REMARK  10 active torsions:
REMARK  status: ('A' for Active; 'I' for Inactive)
REMARK    1  A    between atoms: C_1  and  C_2
REMARK    2  A    between atoms: C_5  and  C_11
REMARK    3  A    between atoms: C_6  and  C_10
REMARK    4  A    between atoms: C_7  and  O_8
REMARK    5  A    between atoms: O_8  and  C_9
REMARK    6  A    between atoms: C_11  and  N_12
REMARK    7  A    between atoms: N_15  and  C_16
REMARK    8  A    between atoms: C_16  and  C_17
REMARK    9  A    between atoms: C_17  and  C_18
REMARK   10  A    between atoms: C_17  and  N_23
REMARK                            x       y       z     vdW  Elec       q    Type
REMARK                         _______ _______ _______ _____ _____    ______ ____
ROOT
ATOM      1  N   UNL     1       1.497  -4.650  -0.207  0.00  0.00    -0.294 N 
ATOM      2  C   UNL     1       1.741  -5.965  -0.375  0.00  0.00    +0.300 C 
ATOM      3  O   UNL     1       0.820  -6.735  -0.564  0.00  0.00    -0.253 OA
ATOM      4  N   UNL     1       3.007  -6.427  -0.332  0.00  0.00    -0.301 N 
ATOM      5  H   UNL     1       2.233  -4.036  -0.056  0.00  0.00    +0.151 HD
ATOM      6  H   UNL     1       3.742  -5.812  -0.181  0.00  0.00    +0.150 HD
ENDROOT
BRANCH   1   7
ATOM      7  C   UNL     1       0.122  -4.149  -0.253  0.00  0.00    +0.161 C 
BRANCH   7  12
ATOM      8  C   UNL     1       0.137   1.545   0.449  0.00  0.00    +0.049 C 
ATOM      9  C   UNL     1       0.129   0.045   0.304  0.00  0.00    +0.010 A 
ATOM     10  C   UNL     1       0.227  -0.537  -0.943  0.00  0.00    +0.118 A 
ATOM     11  N   UNL     1       0.221  -1.850  -1.079  0.00  0.00    -0.258 NA
ATOM     12  C   UNL     1       0.123  -2.657  -0.039  0.00  0.00    +0.065 A 
ATOM     13  C   UNL     1       0.022  -2.152   1.241  0.00  0.00    +0.014 A 
ATOM     14  C   UNL     1       0.030  -0.772   1.427  0.00  0.00    +0.129 A 
ATOM     15  C   UNL     1      -0.089  -3.082   2.421  0.00  0.00    +0.049 C 
BRANCH  14  16
ATOM     16  O   UNL     1      -0.063  -0.237   2.671  0.00  0.00    -0.494 OA
ATOM     17  C   UNL     1      -1.376   0.034   3.164  0.00  0.00    +0.277 C 
ENDBRANCH  14  16
ENDBRANCH   7  12
ENDBRANCH   1   7
BRANCH   4  18
ATOM     18  C   UNL     1       3.272  -7.856  -0.514  0.00  0.00    +0.098 C 
BRANCH  18  19
ATOM     19  C   UNL     1       4.783  -8.097  -0.525  0.00  0.00    +0.016 C 
BRANCH  19  20
ATOM     20  N   UNL     1       5.051  -9.507  -0.840  0.00  0.00    +0.387 N 
ATOM     21  C   UNL     1       4.562  -9.829  -2.204  0.00  0.00    -0.078 C 
ATOM     22  C   UNL     1       5.384 -11.085  -2.589  0.00  0.00    -0.020 C 
ATOM     23  C   UNL     1       6.772 -10.790  -1.974  0.00  0.00    -0.020 C 
ATOM     24  C   UNL     1       6.509  -9.754  -0.865  0.00  0.00    -0.078 C 
ATOM     25  H   UNL     1       4.609 -10.106  -0.159  0.00  0.00    -0.081 HD
ENDBRANCH  19  20
BRANCH  19  26
ATOM     26  C   UNL     1       5.354  -7.767   0.830  0.00  0.00    +0.093 A 
ATOM     27  C   UNL     1       5.980  -6.624   1.163  0.00  0.00    +0.043 A 
ATOM     28  C   UNL     1       6.348  -6.740   2.523  0.00  0.00    +0.041 A 
ATOM     29  C   UNL     1       5.925  -7.947   2.940  0.00  0.00    +0.195 A 
ATOM     30  O   UNL     1       5.318  -8.563   1.912  0.00  0.00    -0.469 OA
ENDBRANCH  19  26
ENDBRANCH  18  19
ENDBRANCH   4  18
TORSDOF 7
