REMARK  Name = ZINC39553707
REMARK  13 active torsions:
REMARK  status: ('A' for Active; 'I' for Inactive)
REMARK    1  A    between atoms: C_1  and  C_2
REMARK    2  A    between atoms: C_2  and  C_3
REMARK    3  A    between atoms: C_3  and  C_4
REMARK    4  A    between atoms: C_4  and  N_5
REMARK    5  A    between atoms: C_6  and  N_37
REMARK    6  A    between atoms: C_7  and  N_14
REMARK    7  A    between atoms: N_14  and  C_15
REMARK    8  A    between atoms: C_15  and  C_16
REMARK    9  A    between atoms: C_16  and  C_17
REMARK   10  A    between atoms: C_17  and  C_18
REMARK   11  A    between atoms: C_17  and  C_19
REMARK   12  A    between atoms: C_20  and  C_22
REMARK   13  A    between atoms: C_24  and  C_36
REMARK                            x       y       z     vdW  Elec       q    Type
REMARK                         _______ _______ _______ _____ _____    ______ ____
ROOT
ATOM      1  N   UNL     1      -5.206  -4.146   2.485  0.00  0.00    -0.260 N 
ATOM      2  C   UNL     1      -4.842  -3.280   3.451  0.00  0.00    +0.253 C 
ATOM      3  O   UNL     1      -5.656  -2.913   4.277  0.00  0.00    -0.270 OA
ENDROOT
BRANCH   2   4
ATOM      4  C   UNL     1      -3.455  -2.776   3.506  0.00  0.00    +0.068 A 
ATOM      5  C   UNL     1      -2.697  -2.619   2.344  0.00  0.00    +0.038 A 
ATOM      6  C   UNL     1      -1.402  -2.144   2.436  0.00  0.00    +0.041 A 
ATOM      7  N   UNL     1      -0.864  -1.833   3.598  0.00  0.00    -0.233 NA
ATOM      8  C   UNL     1      -1.529  -1.955   4.732  0.00  0.00    +0.161 A 
ATOM      9  C   UNL     1      -2.854  -2.432   4.735  0.00  0.00    +0.120 A 
ATOM     10  N   UNL     1      -3.268  -2.455   6.015  0.00  0.00    -0.230 NA
ATOM     11  C   UNL     1      -2.316  -2.023   6.796  0.00  0.00    +0.112 A 
ATOM     12  N   UNL     1      -1.223  -1.701   6.052  0.00  0.00    -0.312 N 
ATOM     13  C   UNL     1       0.041  -1.156   6.556  0.00  0.00    +0.125 C 
ATOM     14  C   UNL     1       0.271  -1.637   7.990  0.00  0.00    +0.022 C 
ATOM     15  C   UNL     1      -0.360  -0.650   8.970  0.00  0.00    +0.002 C 
ATOM     16  C   UNL     1      -1.866  -0.566   8.744  0.00  0.00    +0.008 C 
ATOM     17  C   UNL     1      -2.403  -1.911   8.300  0.00  0.00    +0.074 C 
ATOM     18  C   UNL     1      -0.586  -1.980   1.180  0.00  0.00    +0.065 C 
ENDBRANCH   2   4
BRANCH   1  21
ATOM     19  N   UNL     1      -3.702  -4.516  -0.846  0.00  0.00    -0.280 N 
ATOM     20  C   UNL     1      -4.604  -4.186   0.138  0.00  0.00    +0.127 A 
ATOM     21  C   UNL     1      -4.302  -4.473   1.453  0.00  0.00    +0.140 A 
ATOM     22  C   UNL     1      -3.075  -5.097   1.748  0.00  0.00    +0.277 A 
ATOM     23  O   UNL     1      -2.783  -5.362   2.902  0.00  0.00    -0.266 OA
ATOM     24  N   UNL     1      -2.226  -5.400   0.747  0.00  0.00    -0.273 N 
ATOM     25  H   UNL     1      -1.381  -5.830   0.948  0.00  0.00    +0.173 HD
ATOM     26  C   UNL     1      -2.540  -5.117  -0.530  0.00  0.00    +0.331 A 
ATOM     27  O   UNL     1      -1.758  -5.406  -1.415  0.00  0.00    -0.246 OA
BRANCH  20  28
ATOM     28  N   UNL     1      -5.793  -3.576  -0.186  0.00  0.00    -0.343 N 
ATOM     29  H   UNL     1      -5.970  -3.316  -1.103  0.00  0.00    +0.144 HD
ATOM     30  H   UNL     1      -6.454  -3.407   0.503  0.00  0.00    +0.144 HD
ENDBRANCH  20  28
BRANCH  19  31
ATOM     31  C   UNL     1      -4.009  -4.217  -2.247  0.00  0.00    +0.128 C 
BRANCH  31  32
ATOM     32  C   UNL     1      -4.747  -5.404  -2.871  0.00  0.00    +0.021 C 
BRANCH  32  34
ATOM     33  C   UNL     1      -5.806  -6.277  -4.959  0.00  0.00    +0.004 C 
ATOM     34  C   UNL     1      -5.068  -5.091  -4.334  0.00  0.00    -0.002 C 
ENDBRANCH  32  34
ENDBRANCH  31  32
ENDBRANCH  19  31
ENDBRANCH   1  21
BRANCH   1  35
ATOM     35  C   UNL     1      -6.542  -4.748   2.506  0.00  0.00    +0.114 C 
BRANCH  35  36
ATOM     36  C   UNL     1      -6.530  -5.984   3.407  0.00  0.00    +0.022 C 
BRANCH  36  37
ATOM     37  C   UNL     1      -7.887  -6.687   3.328  0.00  0.00    -0.016 C 
ATOM     38  C   UNL     1      -7.827  -8.001   4.108  0.00  0.00    +0.007 C 
ATOM     39  C   UNL     1      -8.965  -5.784   3.931  0.00  0.00    +0.007 C 
ENDBRANCH  36  37
ENDBRANCH  35  36
ENDBRANCH   1  35
TORSDOF 9
