REMARK  Name = ZINC13033214
REMARK  11 active torsions:
REMARK  status: ('A' for Active; 'I' for Inactive)
REMARK    1  A    between atoms: C_1  and  C_2
REMARK    2  A    between atoms: C_7  and  C_14
REMARK    3  A    between atoms: C_14  and  N_60
REMARK    4  A    between atoms: C_15  and  C_16
REMARK    5  A    between atoms: C_15  and  N_60
REMARK    6  A    between atoms: C_25  and  C_26
REMARK    7  A    between atoms: C_25  and  N_60
REMARK    8  A    between atoms: N_30  and  C_31
REMARK    9  A    between atoms: C_31  and  C_32
REMARK   10  A    between atoms: C_32  and  O_33
REMARK   11  A    between atoms: O_33  and  C_34
REMARK                            x       y       z     vdW  Elec       q    Type
REMARK                         _______ _______ _______ _____ _____    ______ ____
ROOT
ATOM      1  N   UNL     1      -1.391  -1.278   2.190  0.00  0.00    +0.390 N 
ATOM      2  H   UNL     1      -0.375  -1.137   2.138  0.00  0.00    -0.080 HD
ENDROOT
BRANCH   1   3
ATOM      3  C   UNL     1      -1.748  -2.481   1.408  0.00  0.00    -0.036 C 
BRANCH   3  10
ATOM      4  C   UNL     1       3.116  -3.009  -4.891  0.00  0.00    +0.044 C 
ATOM      5  C   UNL     1       2.357  -3.039  -3.589  0.00  0.00    -0.048 A 
ATOM      6  C   UNL     1       2.885  -3.720  -2.501  0.00  0.00    +0.004 A 
ATOM      7  C   UNL     1       2.213  -3.759  -1.312  0.00  0.00    +0.010 A 
ATOM      8  C   UNL     1       0.982  -3.106  -1.190  0.00  0.00    -0.001 A 
ATOM      9  C   UNL     1       0.234  -3.128   0.069  0.00  0.00    +0.017 A 
ATOM     10  C   UNL     1      -0.954  -2.478   0.128  0.00  0.00    +0.001 A 
ATOM     11  C   UNL     1      -1.452  -1.803  -1.008  0.00  0.00    +0.251 A 
ATOM     12  O   UNL     1      -2.525  -1.230  -0.934  0.00  0.00    -0.268 OA
ATOM     13  N   UNL     1      -0.771  -1.773  -2.166  0.00  0.00    -0.322 N 
ATOM     14  H   UNL     1      -1.141  -1.297  -2.926  0.00  0.00    +0.169 HD
ATOM     15  C   UNL     1       0.443  -2.414  -2.291  0.00  0.00    +0.049 A 
ATOM     16  C   UNL     1       1.146  -2.389  -3.492  0.00  0.00    +0.029 A 
ENDBRANCH   3  10
ENDBRANCH   1   3
BRANCH   1  17
ATOM     17  C   UNL     1      -1.778  -1.462   3.604  0.00  0.00    -0.042 C 
BRANCH  17  18
ATOM     18  C   UNL     1      -0.819  -2.430   4.248  0.00  0.00    -0.060 A 
ATOM     19  C   UNL     1      -1.154  -3.768   4.350  0.00  0.00    +0.005 A 
ATOM     20  C   UNL     1      -0.276  -4.660   4.934  0.00  0.00    +0.050 A 
ATOM     21  C   UNL     1       0.939  -4.214   5.430  0.00  0.00    +0.166 A 
ATOM     22  C   UNL     1       1.274  -2.866   5.331  0.00  0.00    +0.166 A 
ATOM     23  C   UNL     1       0.391  -1.978   4.739  0.00  0.00    +0.051 A 
ATOM     24  O   UNL     1       2.508  -2.682   5.886  0.00  0.00    -0.453 OA
ATOM     25  C   UNL     1       2.747  -3.853   6.689  0.00  0.00    +0.466 C 
ATOM     26  O   UNL     1       1.963  -4.875   6.046  0.00  0.00    -0.453 OA
ENDBRANCH  17  18
ENDBRANCH   1  17
BRANCH   1  27
ATOM     27  C   UNL     1      -2.070  -0.091   1.630  0.00  0.00    +0.001 C 
BRANCH  27  28
ATOM     28  C   UNL     1      -1.522   1.143   2.299  0.00  0.00    +0.135 A 
ATOM     29  N   UNL     1      -1.987   1.719   3.380  0.00  0.00    -0.115 NA
ATOM     30  N   UNL     1      -1.248   2.744   3.634  0.00  0.00    -0.023 NA
ATOM     31  N   UNL     1      -0.321   2.833   2.746  0.00  0.00    -0.044 NA
ATOM     32  N   UNL     1      -0.459   1.867   1.902  0.00  0.00    -0.229 N 
BRANCH  32  33
ATOM     33  C   UNL     1       0.387   1.604   0.735  0.00  0.00    +0.175 C 
BRANCH  33  34
ATOM     34  C   UNL     1      -0.183   2.336  -0.482  0.00  0.00    +0.183 C 
BRANCH  34  35
ATOM     35  O   UNL     1       0.642   2.080  -1.621  0.00  0.00    -0.381 OA
ATOM     36  C   UNL     1       0.196   2.721  -2.818  0.00  0.00    +0.194 C 
ENDBRANCH  34  35
ENDBRANCH  33  34
ENDBRANCH  32  33
ENDBRANCH  27  28
ENDBRANCH   1  27
TORSDOF 9
