REMARK  Name = ZINC21083901
REMARK  9 active torsions:
REMARK  status: ('A' for Active; 'I' for Inactive)
REMARK    1  A    between atoms: C_1  and  C_2
REMARK    2  A    between atoms: C_2  and  C_3
REMARK    3  A    between atoms: C_3  and  C_4
REMARK    4  A    between atoms: C_4  and  N_5
REMARK    5  A    between atoms: C_6  and  N_27
REMARK    6  A    between atoms: C_7  and  N_14
REMARK    7  A    between atoms: N_14  and  C_15
REMARK    8  A    between atoms: C_15  and  C_16
REMARK    9  A    between atoms: C_17  and  C_19
REMARK                            x       y       z     vdW  Elec       q    Type
REMARK                         _______ _______ _______ _____ _____    ______ ____
ROOT
ATOM      1  N   UNL     1       6.015   5.362   0.304  0.00  0.00    -0.280 N 
ATOM      2  C   UNL     1       4.718   4.904   0.308  0.00  0.00    +0.127 A 
ATOM      3  C   UNL     1       3.682   5.813   0.247  0.00  0.00    +0.140 A 
ATOM      4  C   UNL     1       3.986   7.186   0.176  0.00  0.00    +0.277 A 
ATOM      5  O   UNL     1       3.090   8.010   0.117  0.00  0.00    -0.266 OA
ATOM      6  N   UNL     1       5.274   7.582   0.182  0.00  0.00    -0.273 N 
ATOM      7  H   UNL     1       5.519   8.653   0.137  0.00  0.00    +0.173 HD
ATOM      8  C   UNL     1       6.270   6.682   0.242  0.00  0.00    +0.331 A 
ATOM      9  O   UNL     1       7.424   7.067   0.239  0.00  0.00    -0.246 OA
ENDROOT
BRANCH   3  10
ATOM     10  N   UNL     1       2.342   5.374   0.249  0.00  0.00    -0.260 N 
ATOM     11  C   UNL     1       1.877   4.633   1.275  0.00  0.00    +0.252 C 
ATOM     12  O   UNL     1       0.733   4.221   1.258  0.00  0.00    -0.270 OA
BRANCH  11  13
ATOM     13  C   UNL     1       2.758   4.321   2.419  0.00  0.00    +0.057 A 
ATOM     14  C   UNL     1       3.796   5.189   2.763  0.00  0.00    +0.034 A 
ATOM     15  C   UNL     1       4.615   4.891   3.833  0.00  0.00    +0.042 A 
ATOM     16  C   UNL     1       4.406   3.736   4.569  0.00  0.00    +0.021 A 
ATOM     17  C   UNL     1       3.384   2.869   4.231  0.00  0.00    +0.022 A 
ATOM     18  C   UNL     1       2.556   3.155   3.162  0.00  0.00    +0.053 A 
ATOM     19 CL   UNL     1       1.269   2.068   2.743  0.00  0.00    -0.083 Cl
ATOM     20 CL   UNL     1       5.905   5.970   4.262  0.00  0.00    -0.084 Cl
ENDBRANCH  11  13
BRANCH  10  21
ATOM     21  C   UNL     1       1.455   5.723  -0.863  0.00  0.00    +0.111 C 
ATOM     22  C   UNL     1       0.620   6.949  -0.484  0.00  0.00    +0.025 C 
ENDBRANCH  10  21
ENDBRANCH   3  10
BRANCH   2  23
ATOM     23  N   UNL     1       4.458   3.556   0.373  0.00  0.00    -0.343 N 
ATOM     24  H   UNL     1       3.418   3.196   0.375  0.00  0.00    +0.144 HD
ATOM     25  H   UNL     1       5.289   2.837   0.422  0.00  0.00    +0.144 HD
ENDBRANCH   2  23
BRANCH   1  26
ATOM     26  C   UNL     1       7.125   4.408   0.368  0.00  0.00    +0.128 C 
BRANCH  26  27
ATOM     27  C   UNL     1       7.533   4.004  -1.050  0.00  0.00    +0.021 C 
BRANCH  27  29
ATOM     28  C   UNL     1       9.100   2.604  -2.401  0.00  0.00    +0.004 C 
ATOM     29  C   UNL     1       8.692   3.008  -0.983  0.00  0.00    -0.002 C 
ENDBRANCH  27  29
ENDBRANCH  26  27
ENDBRANCH   1  26
TORSDOF 7
