REMARK  Name = ZINC35712403
REMARK  12 active torsions:
REMARK  status: ('A' for Active; 'I' for Inactive)
REMARK    1  A    between atoms: C_1  and  C_2
REMARK    2  A    between atoms: C_2  and  C_3
REMARK    3  A    between atoms: C_3  and  N_4
REMARK    4  A    between atoms: C_5  and  C_34
REMARK    5  A    between atoms: C_6  and  C_30
REMARK    6  A    between atoms: C_7  and  C_12
REMARK    7  A    between atoms: C_16  and  N_18
REMARK    8  A    between atoms: N_21  and  C_22
REMARK    9  A    between atoms: C_25  and  C_29
REMARK   10  A    between atoms: C_27  and  C_28
REMARK   11  A    between atoms: C_30  and  O_32
REMARK   12  A    between atoms: O_32  and  C_33
REMARK                            x       y       z     vdW  Elec       q    Type
REMARK                         _______ _______ _______ _____ _____    ______ ____
ROOT
ATOM      1  C   UNL     1      -0.256  -5.867  -0.753  0.00  0.00    -0.021 A 
ATOM      2  C   UNL     1      -1.182  -5.419   0.171  0.00  0.00    +0.006 A 
ATOM      3  C   UNL     1      -2.037  -6.314   0.787  0.00  0.00    +0.002 A 
ATOM      4  C   UNL     1      -1.968  -7.660   0.481  0.00  0.00    +0.023 A 
ATOM      5  C   UNL     1      -1.039  -8.113  -0.446  0.00  0.00    +0.035 A 
ATOM      6  C   UNL     1      -0.186  -7.210  -1.068  0.00  0.00    +0.029 A 
ENDROOT
BRANCH   1  10
ATOM      7  N   UNL     1       1.203  -2.308  -0.581  0.00  0.00    -0.259 N 
ATOM      8  C   UNL     1       2.002  -3.305  -0.100  0.00  0.00    +0.024 C 
ATOM      9  C   UNL     1       1.808  -4.591  -0.464  0.00  0.00    +0.078 C 
ATOM     10  C   UNL     1       0.674  -4.888  -1.423  0.00  0.00    +0.144 C 
ATOM     11  N   UNL     1      -0.129  -3.743  -1.883  0.00  0.00    -0.288 N 
ATOM     12  C   UNL     1       0.185  -2.514  -1.426  0.00  0.00    +0.307 C 
ATOM     13  O   UNL     1      -0.474  -1.563  -1.796  0.00  0.00    -0.252 OA
ATOM     14  C   UNL     1       3.120  -2.965   0.853  0.00  0.00    +0.061 C 
ATOM     15  H   UNL     1      -0.869  -3.869  -2.497  0.00  0.00    +0.151 HD
BRANCH   9  16
ATOM     16  C   UNL     1       2.636  -5.624   0.034  0.00  0.00    +0.339 C 
ATOM     17  O   UNL     1       3.541  -5.362   0.803  0.00  0.00    -0.245 OA
BRANCH  16  18
ATOM     18  O   UNL     1       2.421  -6.902  -0.345  0.00  0.00    -0.465 OA
ATOM     19  C   UNL     1       3.295  -7.894   0.196  0.00  0.00    +0.280 C 
ENDBRANCH  16  18
ENDBRANCH   9  16
BRANCH   7  20
ATOM     20  C   UNL     1       1.471  -0.935  -0.144  0.00  0.00    +0.114 C 
BRANCH  20  22
ATOM     21  C   UNL     1       2.843   1.110  -0.568  0.00  0.00    +0.005 C 
ATOM     22  C   UNL     1       2.563  -0.324  -1.024  0.00  0.00    +0.016 C 
ENDBRANCH  20  22
ENDBRANCH   7  20
ENDBRANCH   1  10
BRANCH   5  23
ATOM     23  N   UNL     1      -0.967  -9.475  -0.758  0.00  0.00    -0.269 N 
ATOM     24  C   UNL     1      -1.215 -10.398   0.192  0.00  0.00    +0.308 C 
ATOM     25  O   UNL     1      -1.411 -10.050   1.341  0.00  0.00    -0.252 OA
ATOM     26  N   UNL     1      -1.245 -11.706  -0.131  0.00  0.00    -0.269 N 
ATOM     27  H   UNL     1      -0.738  -9.755  -1.658  0.00  0.00    +0.156 HD
ATOM     28  H   UNL     1      -1.030 -11.988  -1.033  0.00  0.00    +0.156 HD
BRANCH  26  29
ATOM     29  C   UNL     1      -1.588 -12.658   0.837  0.00  0.00    +0.038 A 
ATOM     30  C   UNL     1      -1.325 -12.412   2.178  0.00  0.00    +0.024 A 
ATOM     31  C   UNL     1      -1.664 -13.353   3.130  0.00  0.00    +0.005 A 
ATOM     32  C   UNL     1      -2.265 -14.539   2.749  0.00  0.00    -0.050 A 
ATOM     33  C   UNL     1      -2.528 -14.787   1.415  0.00  0.00    +0.008 A 
ATOM     34  C   UNL     1      -2.197 -13.847   0.458  0.00  0.00    -0.029 A 
ATOM     35  C   UNL     1      -2.490 -14.114  -0.996  0.00  0.00    +0.045 C 
ATOM     36  C   UNL     1      -2.633 -15.564   3.791  0.00  0.00    +0.044 C 
ENDBRANCH  26  29
ENDBRANCH   5  23
TORSDOF 7
