REMARK  Name = ZINC22384499
REMARK  8 active torsions:
REMARK  status: ('A' for Active; 'I' for Inactive)
REMARK    1  A    between atoms: C_1  and  C_2
REMARK    2  A    between atoms: C_3  and  C_32
REMARK    3  A    between atoms: C_11  and  C_13
REMARK    4  A    between atoms: C_13  and  S_14
REMARK    5  A    between atoms: S_14  and  C_15
REMARK    6  A    between atoms: C_15  and  C_17
REMARK    7  A    between atoms: C_15  and  C_18
REMARK    8  A    between atoms: N_20  and  C_21
REMARK                            x       y       z     vdW  Elec       q    Type
REMARK                         _______ _______ _______ _____ _____    ______ ____
ROOT
ATOM      1  C   UNL     1       0.141  -6.145   5.441  0.00  0.00    +0.130 C 
ATOM      2  C   UNL     1      -1.157  -5.932   6.222  0.00  0.00    +0.029 C 
ENDROOT
BRANCH   1   3
ATOM      3  C   UNL     1       0.274  -7.601   5.074  0.00  0.00    +0.230 C 
ATOM      4  O   UNL     1      -0.018  -7.974   3.958  0.00  0.00    -0.274 OA
ATOM      5  N   UNL     1       0.716  -8.489   5.987  0.00  0.00    -0.285 N 
ATOM      6  H   UNL     1       1.013  -8.181   6.858  0.00  0.00    +0.155 HD
BRANCH   5   7
ATOM      7  C   UNL     1       0.748  -9.855   5.678  0.00  0.00    +0.035 A 
ATOM      8  C   UNL     1       1.051 -10.267   4.387  0.00  0.00    +0.027 A 
ATOM      9  C   UNL     1       1.083 -11.614   4.077  0.00  0.00    +0.049 A 
ATOM     10  C   UNL     1       0.812 -12.555   5.055  0.00  0.00    +0.142 A 
ATOM     11  C   UNL     1       0.507 -12.144   6.352  0.00  0.00    +0.077 A 
ATOM     12  C   UNL     1       0.481 -10.795   6.663  0.00  0.00    +0.050 A 
ATOM     13  N   UNL     1       0.234 -13.110   7.330  0.00  0.00    -0.280 N 
ATOM     14  C   UNL     1       0.574 -14.396   7.095  0.00  0.00    +0.255 C 
ATOM     15  O   UNL     1       0.320 -15.253   7.914  0.00  0.00    -0.272 OA
ATOM     16  C   UNL     1       1.271 -14.761   5.808  0.00  0.00    +0.325 C 
ATOM     17  O   UNL     1       0.842 -13.884   4.764  0.00  0.00    -0.481 OA
ATOM     18  H   UNL     1      -0.192 -12.859   8.165  0.00  0.00    +0.155 HD
ENDBRANCH   5   7
ENDBRANCH   1   3
BRANCH   1  19
ATOM     19  S   UNL     1       0.110  -5.141   3.931  0.00  0.00    -0.141 S 
BRANCH  19  20
ATOM     20  C   UNL     1       0.102  -3.433   4.540  0.00  0.00    +0.144 C 
BRANCH  20  31
ATOM     21  C   UNL     1      -0.011   1.493  -0.007  0.00  0.00    +0.045 C 
ATOM     22  C   UNL     1       0.003  -0.014  -0.012  0.00  0.00    -0.026 A 
ATOM     23  C   UNL     1      -0.002  -0.689  -1.173  0.00  0.00    -0.008 A 
ATOM     24  S   UNL     1       0.020  -2.396  -0.657  0.00  0.00    -0.073 S 
ATOM     25  C   UNL     1       0.036  -2.152   1.100  0.00  0.00    +0.116 A 
ATOM     26  C   UNL     1       0.029  -0.752   1.237  0.00  0.00    +0.075 A 
ATOM     27  C   UNL     1       0.044  -0.261   2.583  0.00  0.00    +0.260 A 
ATOM     28  O   UNL     1       0.035   0.938   2.805  0.00  0.00    -0.267 OA
ATOM     29  N   UNL     1       0.067  -1.144   3.598  0.00  0.00    -0.310 N 
ATOM     30  H   UNL     1       0.077  -0.818   4.512  0.00  0.00    +0.170 HD
ATOM     31  C   UNL     1       0.077  -2.483   3.370  0.00  0.00    +0.121 A 
ATOM     32  N   UNL     1       0.054  -2.962   2.155  0.00  0.00    -0.226 NA
ATOM     33  C   UNL     1      -0.023  -0.137  -2.575  0.00  0.00    +0.052 C 
ENDBRANCH  20  31
ENDBRANCH  19  20
ENDBRANCH   1  19
TORSDOF 5
