REMARK  Name = ZINC00568498
REMARK  10 active torsions:
REMARK  status: ('A' for Active; 'I' for Inactive)
REMARK    1  A    between atoms: C_1  and  C_2
REMARK    2  A    between atoms: C_2  and  O_3
REMARK    3  A    between atoms: O_3  and  C_4
REMARK    4  A    between atoms: C_4  and  C_6
REMARK    5  A    between atoms: C_7  and  C_25
REMARK    6  A    between atoms: C_8  and  N_13
REMARK    7  A    between atoms: C_11  and  C_12
REMARK    8  A    between atoms: N_16  and  C_17
REMARK    9  A    between atoms: C_19  and  C_24
REMARK   10  A    between atoms: C_22  and  C_23
REMARK                            x       y       z     vdW  Elec       q    Type
REMARK                         _______ _______ _______ _____ _____    ______ ____
ROOT
ATOM      1  N   UNL     1       3.492   5.918  -0.202  0.00  0.00    -0.255 N 
ATOM      2  C   UNL     1       2.336   5.233  -0.093  0.00  0.00    +0.309 C 
ATOM      3  O   UNL     1       1.276   5.828  -0.081  0.00  0.00    -0.252 OA
ATOM      4  N   UNL     1       2.356   3.889   0.001  0.00  0.00    -0.269 N 
ATOM      5  H   UNL     1       4.338   5.443  -0.212  0.00  0.00    +0.158 HD
ATOM      6  H   UNL     1       3.202   3.420   0.073  0.00  0.00    +0.156 HD
ENDROOT
BRANCH   1   9
ATOM      7  C   UNL     1       4.056   9.485  -0.483  0.00  0.00    +0.084 A 
ATOM      8  C   UNL     1       4.558   8.108  -0.407  0.00  0.00    +0.003 A 
ATOM      9  C   UNL     1       3.472   7.311  -0.300  0.00  0.00    +0.108 A 
ATOM     10  N   UNL     1       2.351   8.093  -0.296  0.00  0.00    -0.346 N 
ATOM     11  H   UNL     1       1.443   7.761  -0.225  0.00  0.00    +0.167 HD
ATOM     12  C   UNL     1       2.693   9.400  -0.407  0.00  0.00    +0.029 A 
ATOM     13  C   UNL     1       1.734  10.562  -0.438  0.00  0.00    +0.064 C 
ATOM     14  C   UNL     1       6.000   7.670  -0.444  0.00  0.00    +0.048 C 
BRANCH   7  15
ATOM     15  C   UNL     1       4.858  10.712  -0.612  0.00  0.00    +0.341 C 
ATOM     16  O   UNL     1       5.244  11.292   0.384  0.00  0.00    -0.245 OA
BRANCH  15  17
ATOM     17  O   UNL     1       5.164  11.192  -1.834  0.00  0.00    -0.461 OA
BRANCH  17  19
ATOM     18  C   UNL     1       6.204  12.795  -3.344  0.00  0.00    +0.048 C 
ATOM     19  C   UNL     1       5.959  12.406  -1.884  0.00  0.00    +0.229 C 
ENDBRANCH  17  19
ENDBRANCH  15  17
ENDBRANCH   7  15
ENDBRANCH   1   9
BRANCH   4  20
ATOM     20  C   UNL     1       1.155   3.169  -0.005  0.00  0.00    +0.038 A 
ATOM     21  C   UNL     1       0.024   3.710  -0.602  0.00  0.00    +0.027 A 
ATOM     22  C   UNL     1      -1.160   2.998  -0.605  0.00  0.00    -0.049 A 
ATOM     23  C   UNL     1      -1.217   1.745  -0.021  0.00  0.00    +0.004 A 
ATOM     24  C   UNL     1      -0.093   1.207   0.579  0.00  0.00    +0.005 A 
ATOM     25  C   UNL     1       1.093   1.914   0.586  0.00  0.00    -0.029 A 
ATOM     26  C   UNL     1       2.319   1.324   1.234  0.00  0.00    +0.045 C 
ATOM     27  C   UNL     1      -2.388   3.583  -1.253  0.00  0.00    +0.044 C 
ENDBRANCH   4  20
TORSDOF 5
