REMARK  Name = ZINC66535921
REMARK  8 active torsions:
REMARK  status: ('A' for Active; 'I' for Inactive)
REMARK    1  A    between atoms: C_1  and  C_2
REMARK    2  A    between atoms: C_3  and  C_8
REMARK    3  A    between atoms: C_4  and  C_7
REMARK    4  A    between atoms: C_8  and  N_9
REMARK    5  A    between atoms: C_15  and  C_17
REMARK    6  A    between atoms: C_17  and  N_18
REMARK    7  A    between atoms: C_22  and  C_24
REMARK    8  A    between atoms: C_24  and  N_25
REMARK                            x       y       z     vdW  Elec       q    Type
REMARK                         _______ _______ _______ _____ _____    ______ ____
ROOT
ATOM      1  N   UNL     1       1.375  -0.174  -3.042  0.00  0.00    -0.295 NA
ATOM      2  C   UNL     1       2.077  -1.463  -3.102  0.00  0.00    +0.103 C 
ATOM      3  C   UNL     1       3.557  -1.221  -3.420  0.00  0.00    +0.123 C 
ATOM      4  N   UNL     1       3.644  -0.408  -4.643  0.00  0.00    -0.301 N 
ATOM      5  C   UNL     1       2.857   0.833  -4.711  0.00  0.00    +0.123 C 
ATOM      6  C   UNL     1       1.406   0.510  -4.341  0.00  0.00    +0.103 C 
ATOM      7  C   UNL     1       4.425  -0.789  -5.673  0.00  0.00    +0.199 C 
ATOM      8  O   UNL     1       5.067  -1.815  -5.599  0.00  0.00    -0.278 OA
ENDROOT
BRANCH   1   9
ATOM      9  C   UNL     1      -0.005  -0.348  -2.571  0.00  0.00    +0.125 C 
BRANCH   9  12
ATOM     10  C   UNL     1      -0.018   1.503   0.010  0.00  0.00    +0.069 C 
ATOM     11  C   UNL     1       0.002  -0.004   0.002  0.00  0.00    +0.085 A 
ATOM     12  C   UNL     1       0.008  -0.824  -1.141  0.00  0.00    +0.031 A 
ATOM     13  C   UNL     1       0.027  -2.108  -0.735  0.00  0.00    +0.139 A 
ATOM     14  O   UNL     1       0.034  -2.119   0.606  0.00  0.00    -0.359 OA
ATOM     15  N   UNL     1       0.023  -0.775   1.052  0.00  0.00    -0.083 NA
ATOM     16  C   UNL     1       0.039  -3.320  -1.631  0.00  0.00    +0.089 C 
ENDBRANCH   9  12
ENDBRANCH   1   9
BRANCH   7  17
ATOM     17  C   UNL     1       4.500   0.059  -6.916  0.00  0.00    +0.019 C 
BRANCH  17  18
ATOM     18  N   UNL     1       5.410  -0.569  -7.883  0.00  0.00    +0.386 N 
ATOM     19  C   UNL     1       6.788  -0.561  -7.346  0.00  0.00    -0.078 C 
ATOM     20  C   UNL     1       7.693  -0.325  -8.581  0.00  0.00    -0.020 C 
ATOM     21  C   UNL     1       6.838   0.671  -9.409  0.00  0.00    -0.019 C 
ATOM     22  C   UNL     1       5.395   0.193  -9.146  0.00  0.00    -0.085 C 
ATOM     23  H   UNL     1       5.121  -1.519  -8.056  0.00  0.00    -0.081 HD
BRANCH  22  24
ATOM     24  C   UNL     1       4.928  -0.708 -10.291  0.00  0.00    -0.094 C 
BRANCH  24  25
ATOM     25  N   UNL     1       3.625  -1.296  -9.951  0.00  0.00    +0.379 N 
ATOM     26  C   UNL     1       2.576  -0.244  -9.938  0.00  0.00    -0.079 C 
ATOM     27  C   UNL     1       1.266  -1.047 -10.136  0.00  0.00    -0.020 C 
ATOM     28  C   UNL     1       1.685  -2.151 -11.134  0.00  0.00    -0.020 C 
ATOM     29  C   UNL     1       3.214  -2.262 -10.993  0.00  0.00    -0.079 C 
ATOM     30  H   UNL     1       3.672  -1.752  -9.053  0.00  0.00    -0.082 HD
ENDBRANCH  24  25
ENDBRANCH  22  24
ENDBRANCH  17  18
ENDBRANCH   7  17
TORSDOF 6
