REMARK  Name = ZINC13550938
REMARK  4 active torsions:
REMARK  status: ('A' for Active; 'I' for Inactive)
REMARK    1  A    between atoms: C_2  and  C_14
REMARK    2  A    between atoms: N_20  and  C_23
REMARK    3  A    between atoms: C_23  and  C_24
REMARK    4  A    between atoms: C_24  and  C_25
REMARK                            x       y       z     vdW  Elec       q    Type
REMARK                         _______ _______ _______ _____ _____    ______ ____
ROOT
ATOM      1  C   UNL     1       1.171   3.501   0.009  0.00  0.00    +0.026 C 
ATOM      2  C   UNL     1       2.360   4.207   0.106  0.00  0.00    +0.101 C 
ATOM      3  C   UNL     1       2.376   5.673   0.231  0.00  0.00    +0.274 C 
ATOM      4  O   UNL     1       1.224   6.376   0.256  0.00  0.00    -0.268 OA
ATOM      5  N   UNL     1       3.544   6.285   0.319  0.00  0.00    -0.154 NA
ATOM      6  C   UNL     1       4.695   5.617   0.298  0.00  0.00    +0.167 C 
ATOM      7  N   UNL     1       4.779   4.284   0.187  0.00  0.00    -0.247 N 
ATOM      8  C   UNL     1       3.668   3.521   0.094  0.00  0.00    +0.257 C 
ATOM      9  O   UNL     1       3.743   2.310  -0.001  0.00  0.00    -0.269 OA
ATOM     10  S   UNL     1       6.150   6.511   0.420  0.00  0.00    -0.016 S 
ENDROOT
BRANCH   1  12
ATOM     11  C   UNL     1       0.457   1.309  -0.807  0.00  0.00    +0.013 A 
ATOM     12  C   UNL     1       1.176   2.087   0.112  0.00  0.00    -0.024 A 
ATOM     13  C   UNL     1       1.899   1.456   1.135  0.00  0.00    +0.013 A 
ATOM     14  C   UNL     1       1.901   0.092   1.232  0.00  0.00    -0.025 A 
ATOM     15  C   UNL     1       1.183  -0.677   0.317  0.00  0.00    +0.036 A 
ATOM     16  C   UNL     1       0.464  -0.055  -0.705  0.00  0.00    -0.025 A 
ATOM     17  C   UNL     1      -0.310  -0.850  -1.723  0.00  0.00    +0.038 C 
ATOM     18  C   UNL     1       0.233  -2.277  -1.807  0.00  0.00    +0.024 C 
ATOM     19  C   UNL     1       0.266  -2.866  -0.392  0.00  0.00    +0.105 C 
ATOM     20  N   UNL     1       1.190  -2.063   0.415  0.00  0.00    -0.329 N 
ATOM     21  C   UNL     1       2.132  -2.732   1.318  0.00  0.00    +0.105 C 
ATOM     22  C   UNL     1       2.165  -1.949   2.637  0.00  0.00    +0.024 C 
ATOM     23  C   UNL     1       2.689  -0.542   2.349  0.00  0.00    +0.038 C 
ENDBRANCH   1  12
BRANCH   7  24
ATOM     24  C   UNL     1       6.096   3.643   0.172  0.00  0.00    +0.120 C 
BRANCH  24  25
ATOM     25  C   UNL     1       6.511   3.297   1.604  0.00  0.00    +0.050 C 
BRANCH  25  26
ATOM     26  C   UNL     1       7.866   2.638   1.589  0.00  0.00    -0.072 C 
ATOM     27  C   UNL     1       8.905   3.383   1.789  0.00  0.00    -0.028 C 
ATOM     28  C   UNL     1      10.317   2.873   1.793  0.00  0.00    +0.027 C 
ATOM     29  C   UNL     1      10.327   1.351   1.956  0.00  0.00    +0.004 C 
ATOM     30  C   UNL     1       9.345   0.748   0.944  0.00  0.00    +0.005 C 
ATOM     31  C   UNL     1       7.926   1.158   1.348  0.00  0.00    +0.030 C 
ENDBRANCH  25  26
ENDBRANCH  24  25
ENDBRANCH   7  24
TORSDOF 4
