REMARK  Name = ZINC29869468
REMARK  3 active torsions:
REMARK  status: ('A' for Active; 'I' for Inactive)
REMARK    1  A    between atoms: C_8  and  C_13
REMARK    2  A    between atoms: N_18  and  C_21
REMARK    3  A    between atoms: C_26  and  N_27
REMARK                            x       y       z     vdW  Elec       q    Type
REMARK                         _______ _______ _______ _____ _____    ______ ____
ROOT
ATOM      1  C   UNL     1       2.585  -4.212  -0.047  0.00  0.00    +0.263 C 
ATOM      2  O   UNL     1       1.565  -4.868   0.054  0.00  0.00    -0.268 OA
ATOM      3  N   UNL     1       3.776  -4.832  -0.164  0.00  0.00    -0.293 N 
ATOM      4  C   UNL     1       5.025  -4.058  -0.168  0.00  0.00    +0.127 C 
ATOM      5  C   UNL     1       5.941  -4.600   0.936  0.00  0.00    +0.124 C 
ATOM      6  N   UNL     1       6.013  -6.062   0.811  0.00  0.00    -0.325 N 
ATOM      7  C   UNL     1       4.764  -6.836   0.815  0.00  0.00    +0.124 C 
ATOM      8  C   UNL     1       3.849  -6.295  -0.284  0.00  0.00    +0.127 C 
ENDROOT
BRANCH   1  16
ATOM      9  C   UNL     1       2.299   1.489  -2.368  0.00  0.00    +0.001 A 
ATOM     10  C   UNL     1       2.282   2.154  -1.149  0.00  0.00    +0.001 A 
ATOM     11  C   UNL     1       2.327   1.453   0.037  0.00  0.00    +0.014 A 
ATOM     12  C   UNL     1       2.390   0.062   0.012  0.00  0.00    +0.046 A 
ATOM     13  C   UNL     1       2.407  -0.617  -1.228  0.00  0.00    -0.011 A 
ATOM     14  C   UNL     1       2.361   0.113  -2.417  0.00  0.00    +0.009 A 
ATOM     15  C   UNL     1       2.474  -2.078  -1.224  0.00  0.00    +0.039 A 
ATOM     16  C   UNL     1       2.518  -2.739  -0.040  0.00  0.00    +0.105 A 
ATOM     17  N   UNL     1       2.501  -2.077   1.168  0.00  0.00    -0.318 N 
ATOM     18  H   UNL     1       2.534  -2.595   1.988  0.00  0.00    +0.169 HD
ATOM     19  C   UNL     1       2.440  -0.733   1.247  0.00  0.00    +0.257 A 
ATOM     20  O   UNL     1       2.428  -0.182   2.333  0.00  0.00    -0.267 OA
ENDBRANCH   1  16
BRANCH   6  21
ATOM     21  C   UNL     1       7.248  -6.705   0.689  0.00  0.00    +0.060 A 
ATOM     22  C   UNL     1       7.926  -7.129   1.825  0.00  0.00    +0.025 A 
ATOM     23  C   UNL     1       9.146  -7.765   1.701  0.00  0.00    +0.002 A 
ATOM     24  C   UNL     1       9.692  -7.978   0.448  0.00  0.00    +0.002 A 
ATOM     25  C   UNL     1       9.020  -7.556  -0.684  0.00  0.00    +0.034 A 
ATOM     26  C   UNL     1       7.797  -6.925  -0.568  0.00  0.00    +0.147 A 
BRANCH  26  27
ATOM     27  N   UNL     1       7.075  -6.479  -1.780  0.00  0.00    +0.058 N 
ATOM     28  O   UNL     1       7.553  -6.672  -2.874  0.00  0.00    -0.126 OA
ATOM     29  O   UNL     1       6.006  -5.923  -1.677  0.00  0.00    -0.126 OA
ENDBRANCH  26  27
ENDBRANCH   6  21
TORSDOF 3
