REMARK  Name = ZINC49398770
REMARK  10 active torsions:
REMARK  status: ('A' for Active; 'I' for Inactive)
REMARK    1  A    between atoms: C_1  and  C_2
REMARK    2  A    between atoms: C_5  and  N_19
REMARK    3  A    between atoms: C_7  and  C_8
REMARK    4  A    between atoms: N_10  and  C_11
REMARK    5  A    between atoms: C_11  and  C_13
REMARK    6  A    between atoms: C_11  and  C_14
REMARK    7  A    between atoms: C_14  and  C_15
REMARK    8  A    between atoms: C_15  and  C_16
REMARK    9  A    between atoms: C_16  and  C_17
REMARK   10  A    between atoms: C_16  and  C_18
REMARK                            x       y       z     vdW  Elec       q    Type
REMARK                         _______ _______ _______ _____ _____    ______ ____
ROOT
ATOM      1  C   UNL     1       0.242   0.021   2.481  0.00  0.00    +0.245 C 
ATOM      2  O   UNL     1       0.134   1.232   2.503  0.00  0.00    -0.270 OA
ATOM      3  N   UNL     1       0.465  -0.656   3.625  0.00  0.00    -0.309 N 
ATOM      4  H   UNL     1       0.550  -1.622   3.607  0.00  0.00    +0.149 HD
ENDROOT
BRANCH   1  11
ATOM      5  C   UNL     1      -0.511   1.452   0.082  0.00  0.00    +0.044 C 
ATOM      6  C   UNL     1      -0.234  -0.028   0.036  0.00  0.00    -0.038 A 
ATOM      7  C   UNL     1      -0.334  -0.714  -1.157  0.00  0.00    +0.006 A 
ATOM      8  C   UNL     1      -0.080  -2.073  -1.200  0.00  0.00    +0.033 A 
ATOM      9  C   UNL     1       0.275  -2.754  -0.049  0.00  0.00    +0.127 A 
ATOM     10  C   UNL     1       0.378  -2.080   1.150  0.00  0.00    +0.046 A 
ATOM     11  C   UNL     1       0.128  -0.708   1.200  0.00  0.00    +0.042 A 
BRANCH   9  12
ATOM     12  N   UNL     1       0.545  -4.208  -0.105  0.00  0.00    +0.056 N 
ATOM     13  O   UNL     1       0.454  -4.800  -1.155  0.00  0.00    -0.126 OA
ATOM     14  O   UNL     1       0.855  -4.804   0.900  0.00  0.00    -0.126 OA
ENDBRANCH   9  12
ENDBRANCH   1  11
BRANCH   3  15
ATOM     15  C   UNL     1       0.577   0.067   4.894  0.00  0.00    +0.070 C 
ATOM     16  C   UNL     1      -0.819   0.298   5.475  0.00  0.00    +0.028 C 
BRANCH  15  17
ATOM     17  C   UNL     1       1.409  -0.758   5.878  0.00  0.00    +0.022 C 
BRANCH  17  18
ATOM     18  C   UNL     1       2.841  -0.883   5.356  0.00  0.00    +0.005 C 
BRANCH  18  19
ATOM     19  C   UNL     1       3.673  -1.708   6.340  0.00  0.00    -0.017 C 
ATOM     20  C   UNL     1       5.070  -1.939   5.759  0.00  0.00    +0.007 C 
ATOM     21  C   UNL     1       3.791  -0.953   7.665  0.00  0.00    +0.007 C 
ENDBRANCH  18  19
ENDBRANCH  17  18
ENDBRANCH  15  17
ENDBRANCH   3  15
TORSDOF 6
