REMARK  Name = ZINC40147969
REMARK  7 active torsions:
REMARK  status: ('A' for Active; 'I' for Inactive)
REMARK    1  A    between atoms: C_1  and  O_2
REMARK    2  A    between atoms: O_2  and  C_3
REMARK    3  A    between atoms: C_8  and  N_9
REMARK    4  A    between atoms: C_10  and  C_20
REMARK    5  A    between atoms: C_15  and  C_18
REMARK    6  A    between atoms: N_22  and  C_32
REMARK    7  A    between atoms: C_24  and  C_25
REMARK                            x       y       z     vdW  Elec       q    Type
REMARK                         _______ _______ _______ _____ _____    ______ ____
ROOT
ATOM      1  N   UNL     1      -0.198  -2.840  -0.292  0.00  0.00    -0.267 N 
ATOM      2  C   UNL     1      -1.288  -3.594   0.335  0.00  0.00    +0.201 C 
ATOM      3  N   UNL     1      -0.741  -4.527   1.321  0.00  0.00    -0.288 N 
ATOM      4  C   UNL     1       0.391  -4.232   1.990  0.00  0.00    +0.258 C 
ATOM      5  O   UNL     1       0.817  -4.995   2.840  0.00  0.00    -0.269 OA
ATOM      6  C   UNL     1       1.107  -2.991   1.689  0.00  0.00    +0.142 C 
ATOM      7  C   UNL     1       0.784  -2.309   0.506  0.00  0.00    +0.103 C 
ATOM      8  S   UNL     1       1.612  -0.818   0.064  0.00  0.00    -0.033 SA
ATOM      9  H   UNL     1      -1.198  -5.365   1.495  0.00  0.00    +0.151 HD
ENDROOT
BRANCH   1  15
ATOM     10  C   UNL     1      -0.846  -1.615  -2.276  0.00  0.00    +0.141 A 
ATOM     11  C   UNL     1      -0.796  -1.447  -3.651  0.00  0.00    +0.047 A 
ATOM     12  C   UNL     1      -0.067  -2.327  -4.429  0.00  0.00    +0.004 A 
ATOM     13  C   UNL     1       0.613  -3.377  -3.840  0.00  0.00    +0.002 A 
ATOM     14  C   UNL     1       0.569  -3.551  -2.469  0.00  0.00    +0.027 A 
ATOM     15  C   UNL     1      -0.156  -2.669  -1.681  0.00  0.00    +0.078 A 
BRANCH  10  17
ATOM     16  C   UNL     1      -2.333   0.239  -2.195  0.00  0.00    +0.277 C 
ATOM     17  O   UNL     1      -1.562  -0.750  -1.510  0.00  0.00    -0.493 OA
ENDBRANCH  10  17
ENDBRANCH   1  15
BRANCH   2  18
ATOM     18  C   UNL     1      -2.230  -2.638   1.019  0.00  0.00    +0.037 A 
ATOM     19  C   UNL     1      -1.915  -1.412   1.491  0.00  0.00    +0.122 A 
ATOM     20  N   UNL     1      -3.037  -0.873   2.034  0.00  0.00    -0.239 N 
ATOM     21  N   UNL     1      -4.077  -1.800   1.889  0.00  0.00    -0.166 NA
ATOM     22  C   UNL     1      -3.598  -2.861   1.275  0.00  0.00    +0.100 A 
BRANCH  22  23
ATOM     23  C   UNL     1      -4.363  -4.081   0.917  0.00  0.00    +0.003 A 
ATOM     24  C   UNL     1      -4.168  -4.691  -0.321  0.00  0.00    +0.011 A 
ATOM     25  C   UNL     1      -4.881  -5.825  -0.649  0.00  0.00    +0.020 A 
ATOM     26  C   UNL     1      -5.791  -6.357   0.249  0.00  0.00    +0.041 A 
ATOM     27  C   UNL     1      -5.989  -5.754   1.479  0.00  0.00    +0.020 A 
ATOM     28  C   UNL     1      -5.276  -4.623   1.819  0.00  0.00    +0.011 A 
ATOM     29 CL   UNL     1      -6.687  -7.784  -0.170  0.00  0.00    -0.084 Cl
ENDBRANCH  22  23
BRANCH  20  30
ATOM     30  C   UNL     1      -3.137   0.390   2.634  0.00  0.00    +0.065 A 
ATOM     31  C   UNL     1      -2.069   1.275   2.574  0.00  0.00    +0.028 A 
ATOM     32  C   UNL     1      -2.171   2.519   3.166  0.00  0.00    +0.002 A 
ATOM     33  C   UNL     1      -3.335   2.883   3.817  0.00  0.00    +0.000 A 
ATOM     34  C   UNL     1      -4.401   2.004   3.878  0.00  0.00    +0.002 A 
ATOM     35  C   UNL     1      -4.307   0.760   3.284  0.00  0.00    +0.028 A 
ENDBRANCH  20  30
ENDBRANCH   2  18
BRANCH   6  36
ATOM     36  C   UNL     1       2.112  -2.489   2.577  0.00  0.00    +0.107 C 
ATOM     37  N   UNL     1       2.910  -2.090   3.281  0.00  0.00    -0.191 NA
ENDBRANCH   6  36
TORSDOF 6
