REMARK  Name = ZINC35287832
REMARK  5 active torsions:
REMARK  status: ('A' for Active; 'I' for Inactive)
REMARK    1  A    between atoms: C_1  and  C_2
REMARK    2  A    between atoms: C_2  and  C_3
REMARK    3  A    between atoms: C_3  and  C_4
REMARK    4  A    between atoms: C_7  and  C_11
REMARK    5  A    between atoms: C_11  and  C_12
REMARK                            x       y       z     vdW  Elec       q    Type
REMARK                         _______ _______ _______ _____ _____    ______ ____
ROOT
ATOM      1  C   UNL     1      -1.413  -2.041   0.005  0.00  0.00    +0.090 A 
ATOM      2  N   UNL     1      -1.399  -2.690   1.156  0.00  0.00    -0.312 N 
ATOM      3  C   UNL     1      -1.380  -4.037   1.189  0.00  0.00    +0.258 A 
ATOM      4  C   UNL     1      -1.376  -4.744  -0.010  0.00  0.00    +0.081 A 
ATOM      5  C   UNL     1      -1.392  -4.024  -1.202  0.00  0.00    +0.258 A 
ATOM      6  N   UNL     1      -1.415  -2.677  -1.154  0.00  0.00    -0.312 N 
ATOM      7  O   UNL     1      -1.388  -4.662  -2.380  0.00  0.00    -0.267 OA
ATOM      8  O   UNL     1      -1.364  -4.688   2.360  0.00  0.00    -0.267 OA
ATOM      9  H   UNL     1      -1.430  -2.169  -1.980  0.00  0.00    +0.170 HD
ATOM     10  H   UNL     1      -1.401  -2.190   1.988  0.00  0.00    +0.170 HD
ENDROOT
BRANCH   4  11
ATOM     11  C   UNL     1      -1.354  -6.250  -0.018  0.00  0.00    +0.043 C 
ATOM     12  C   UNL     1       0.090  -6.740   0.097  0.00  0.00    +0.009 C 
ENDBRANCH   4  11
BRANCH   1  13
ATOM     13  C   UNL     1      -1.433  -0.534   0.013  0.00  0.00    +0.072 C 
BRANCH  13  15
ATOM     14  C   UNL     1      -0.019   1.526   0.010  0.00  0.00    +0.004 C 
ATOM     15  C   UNL     1       0.002  -0.004   0.002  0.00  0.00    +0.004 C 
ENDBRANCH  13  15
ENDBRANCH   1  13
TORSDOF 3
