REMARK  Name = ZINC47415828
REMARK  4 active torsions:
REMARK  status: ('A' for Active; 'I' for Inactive)
REMARK    1  A    between atoms: C_1  and  C_2
REMARK    2  A    between atoms: C_2  and  C_4
REMARK    3  A    between atoms: C_2  and  N_14
REMARK    4  A    between atoms: C_15  and  C_17
REMARK                            x       y       z     vdW  Elec       q    Type
REMARK                         _______ _______ _______ _____ _____    ______ ____
ROOT
ATOM      1  C   UNL     1      -0.019   1.526   0.010  0.00  0.00    +0.028 C 
ATOM      2  C   UNL     1       0.002  -0.004   0.002  0.00  0.00    +0.076 C 
ENDROOT
BRANCH   2   3
ATOM      3  C   UNL     1       0.718  -0.497  -1.257  0.00  0.00    -0.010 C 
ATOM      4  C   UNL     1       0.739  -2.027  -1.265  0.00  0.00    +0.012 C 
ATOM      5  C   UNL     1       1.455  -2.521  -2.524  0.00  0.00    -0.010 C 
ATOM      6  C   UNL     1       0.715  -2.014  -3.764  0.00  0.00    +0.007 C 
ATOM      7  C   UNL     1       0.694  -0.484  -3.755  0.00  0.00    -0.010 C 
ATOM      8  C   UNL     1      -0.022   0.009  -2.496  0.00  0.00    +0.012 C 
ATOM      9  C   UNL     1       2.130   0.045  -3.766  0.00  0.00    +0.007 C 
ATOM     10  C   UNL     1       2.870  -0.461  -2.526  0.00  0.00    -0.010 C 
ATOM     11  C   UNL     1       2.890  -1.991  -2.535  0.00  0.00    +0.007 C 
ATOM     12  C   UNL     1       2.154   0.032  -1.268  0.00  0.00    +0.012 C 
ENDBRANCH   2   3
BRANCH   2  13
ATOM     13  N   UNL     1       0.711  -0.489   1.189  0.00  0.00    -0.308 N 
ATOM     14  C   UNL     1       0.051  -0.633   2.355  0.00  0.00    +0.254 C 
ATOM     15  O   UNL     1      -1.132  -0.361   2.423  0.00  0.00    -0.270 OA
ATOM     16  H   UNL     1       1.654  -0.707   1.135  0.00  0.00    +0.149 HD
BRANCH  14  17
ATOM     17  C   UNL     1       0.763  -1.121   3.548  0.00  0.00    +0.114 A 
ATOM     18  C   UNL     1       0.294  -1.350   4.836  0.00  0.00    +0.157 A 
ATOM     19  N   UNL     1       1.201  -1.790   5.673  0.00  0.00    -0.149 NA
ATOM     20  N   UNL     1       2.421  -1.990   5.321  0.00  0.00    -0.110 NA
ATOM     21  S   UNL     1       2.472  -1.594   3.749  0.00  0.00    +0.041 S 
ENDBRANCH  14  17
ENDBRANCH   2  13
TORSDOF 3
