REMARK  Name = ZINC45547393
REMARK  7 active torsions:
REMARK  status: ('A' for Active; 'I' for Inactive)
REMARK    1  A    between atoms: C_1  and  C_2
REMARK    2  A    between atoms: C_2  and  C_4
REMARK    3  A    between atoms: C_2  and  S_18
REMARK    4  A    between atoms: N_9  and  C_10
REMARK    5  A    between atoms: C_13  and  C_16
REMARK    6  A    between atoms: S_18  and  C_19
REMARK    7  A    between atoms: N_31  and  C_32
REMARK                            x       y       z     vdW  Elec       q    Type
REMARK                         _______ _______ _______ _____ _____    ______ ____
ROOT
ATOM      1  C   UNL     1      -0.016   1.515  -0.007  0.00  0.00    +0.029 C 
ATOM      2  C   UNL     1       0.002  -0.015  -0.003  0.00  0.00    +0.137 C 
ENDROOT
BRANCH   2   3
ATOM      3  C   UNL     1       0.731  -0.506   1.221  0.00  0.00    +0.234 C 
ATOM      4  O   UNL     1       0.105  -0.885   2.188  0.00  0.00    -0.274 OA
ATOM      5  N   UNL     1       2.079  -0.524   1.242  0.00  0.00    -0.239 N 
ATOM      6  C   UNL     1       2.730  -0.963   2.337  0.00  0.00    +0.310 C 
ATOM      7  O   UNL     1       2.103  -1.343   3.306  0.00  0.00    -0.252 OA
ATOM      8  N   UNL     1       4.078  -0.981   2.357  0.00  0.00    -0.269 N 
ATOM      9  H   UNL     1       2.579  -0.221   0.468  0.00  0.00    +0.159 HD
ATOM     10  H   UNL     1       4.578  -0.741   1.561  0.00  0.00    +0.156 HD
BRANCH   8  11
ATOM     11  C   UNL     1       4.753  -1.343   3.523  0.00  0.00    +0.035 A 
ATOM     12  C   UNL     1       4.223  -2.324   4.355  0.00  0.00    +0.024 A 
ATOM     13  C   UNL     1       4.887  -2.685   5.506  0.00  0.00    +0.020 A 
ATOM     14  C   UNL     1       6.095  -2.064   5.838  0.00  0.00    +0.052 A 
ATOM     15  C   UNL     1       6.624  -1.079   5.000  0.00  0.00    +0.020 A 
ATOM     16  C   UNL     1       5.958  -0.728   3.847  0.00  0.00    +0.024 A 
BRANCH  14  17
ATOM     17  C   UNL     1       6.787  -2.436   7.035  0.00  0.00    +0.099 C 
ATOM     18  N   UNL     1       7.337  -2.731   7.985  0.00  0.00    -0.191 NA
ENDBRANCH  14  17
ENDBRANCH   8  11
ENDBRANCH   2   3
BRANCH   2  19
ATOM     19  S   UNL     1      -1.701  -0.640   0.016  0.00  0.00    -0.075 S 
BRANCH  19  20
ATOM     20  C   UNL     1      -2.365  -0.112  -1.528  0.00  0.00    +0.173 A 
ATOM     21  N   UNL     1      -1.607   0.570  -2.363  0.00  0.00    -0.216 NA
ATOM     22  C   UNL     1      -2.084   0.980  -3.533  0.00  0.00    +0.117 A 
ATOM     23  C   UNL     1      -3.400   0.712  -3.937  0.00  0.00    +0.076 A 
ATOM     24  C   UNL     1      -3.787   1.229  -5.260  0.00  0.00    -0.023 A 
ATOM     25  C   UNL     1      -2.850   1.900  -5.948  0.00  0.00    -0.004 A 
ATOM     26  S   UNL     1      -1.414   1.892  -4.898  0.00  0.00    -0.073 S 
ATOM     27  C   UNL     1      -3.356   2.374  -7.283  0.00  0.00    +0.043 C 
ATOM     28  C   UNL     1      -4.629   1.537  -7.535  0.00  0.00    +0.010 C 
ATOM     29  C   UNL     1      -5.068   1.195  -6.098  0.00  0.00    +0.037 C 
ATOM     30  C   UNL     1      -4.201  -0.030  -3.013  0.00  0.00    +0.263 A 
ATOM     31  O   UNL     1      -5.357  -0.309  -3.281  0.00  0.00    -0.267 OA
ATOM     32  N   UNL     1      -3.656  -0.421  -1.845  0.00  0.00    -0.290 N 
ATOM     33  C   UNL     1      -4.467  -1.187  -0.895  0.00  0.00    +0.154 C 
ENDBRANCH  19  20
ENDBRANCH   2  19
TORSDOF 5
