REMARK  Name = ZINC56644412
REMARK  10 active torsions:
REMARK  status: ('A' for Active; 'I' for Inactive)
REMARK    1  A    between atoms: C_1  and  C_2
REMARK    2  A    between atoms: C_7  and  O_8
REMARK    3  A    between atoms: O_8  and  C_9
REMARK    4  A    between atoms: C_9  and  C_10
REMARK    5  A    between atoms: C_10  and  C_12
REMARK    6  A    between atoms: C_10  and  N_13
REMARK    7  A    between atoms: N_16  and  C_17
REMARK    8  A    between atoms: C_22  and  S_23
REMARK    9  A    between atoms: S_23  and  C_24
REMARK   10  A    between atoms: C_24  and  C_25
REMARK                            x       y       z     vdW  Elec       q    Type
REMARK                         _______ _______ _______ _____ _____    ______ ____
ROOT
ATOM      1  N   UNL     1      -1.223   0.833   4.845  0.00  0.00    -0.293 N 
ATOM      2  C   UNL     1      -1.676   1.314   6.019  0.00  0.00    +0.304 C 
ATOM      3  O   UNL     1      -1.040   1.128   7.038  0.00  0.00    -0.252 OA
ATOM      4  N   UNL     1      -2.834   2.002   6.064  0.00  0.00    -0.268 N 
ATOM      5  H   UNL     1      -1.731   0.982   4.031  0.00  0.00    +0.151 HD
ATOM      6  H   UNL     1      -3.300   2.221   5.242  0.00  0.00    +0.156 HD
ENDROOT
BRANCH   4   7
ATOM      7  C   UNL     1      -3.366   2.400   7.299  0.00  0.00    +0.048 A 
ATOM      8  C   UNL     1      -3.042   1.703   8.452  0.00  0.00    +0.024 A 
ATOM      9  C   UNL     1      -3.567   2.097   9.669  0.00  0.00    +0.002 A 
ATOM     10  C   UNL     1      -4.416   3.187   9.740  0.00  0.00    +0.001 A 
ATOM     11  C   UNL     1      -4.744   3.888   8.596  0.00  0.00    +0.016 A 
ATOM     12  C   UNL     1      -4.217   3.503   7.371  0.00  0.00    +0.030 A 
BRANCH  12  13
ATOM     13  S   UNL     1      -4.627   4.400   5.911  0.00  0.00    -0.114 S 
BRANCH  13  14
ATOM     14  C   UNL     1      -5.733   5.713   6.498  0.00  0.00    +0.169 C 
BRANCH  14  15
ATOM     15  C   UNL     1      -6.164   6.565   5.333  0.00  0.00    +0.221 C 
ATOM     16  O   UNL     1      -5.764   6.312   4.216  0.00  0.00    -0.275 OA
ATOM     17  N   UNL     1      -6.993   7.609   5.532  0.00  0.00    -0.329 N 
ATOM     18  H   UNL     1      -7.313   7.811   6.425  0.00  0.00    +0.145 HD
ATOM     19  H   UNL     1      -7.271   8.158   4.781  0.00  0.00    +0.145 HD
ENDBRANCH  14  15
ENDBRANCH  13  14
ENDBRANCH  12  13
ENDBRANCH   4   7
BRANCH   1  20
ATOM     20  C   UNL     1       0.036   0.086   4.796  0.00  0.00    +0.109 C 
ATOM     21  C   UNL     1       1.206   1.064   4.678  0.00  0.00    +0.031 C 
BRANCH  20  22
ATOM     22  C   UNL     1       0.028  -0.848   3.583  0.00  0.00    +0.251 C 
BRANCH  22  23
ATOM     23  O   UNL     1       0.003  -0.071   2.384  0.00  0.00    -0.490 OA
BRANCH  23  30
ATOM     24  C   UNL     1      -0.047   1.446   0.002  0.00  0.00    +0.047 C 
ATOM     25  C   UNL     1      -0.031  -0.061   0.006  0.00  0.00    -0.009 A 
ATOM     26  C   UNL     1      -0.035  -0.755  -1.189  0.00  0.00    +0.007 A 
ATOM     27  C   UNL     1      -0.021  -2.138  -1.186  0.00  0.00    +0.000 A 
ATOM     28  C   UNL     1      -0.002  -2.829   0.011  0.00  0.00    +0.004 A 
ATOM     29  C   UNL     1       0.002  -2.139   1.208  0.00  0.00    +0.046 A 
ATOM     30  C   UNL     1      -0.007  -0.752   1.208  0.00  0.00    +0.123 A 
ENDBRANCH  23  30
ENDBRANCH  22  23
ENDBRANCH  20  22
ENDBRANCH   1  20
TORSDOF 8
