REMARK  Name = ZINC37194807
REMARK  5 active torsions:
REMARK  status: ('A' for Active; 'I' for Inactive)
REMARK    1  A    between atoms: C_3  and  C_6
REMARK    2  A    between atoms: C_8  and  C_11
REMARK    3  A    between atoms: C_11  and  S_12
REMARK    4  A    between atoms: S_12  and  C_13
REMARK    5  A    between atoms: C_18  and  N_19
REMARK                            x       y       z     vdW  Elec       q    Type
REMARK                         _______ _______ _______ _____ _____    ______ ____
ROOT
ATOM      1  C   UNL     1       7.333   1.324  -0.070  0.00  0.00    +0.173 C 
ENDROOT
BRANCH   1   4
ATOM      2  C   UNL     1       3.738   1.826  -0.024  0.00  0.00    +0.209 A 
ATOM      3  N   UNL     1       4.846   1.060  -0.044  0.00  0.00    -0.190 NA
ATOM      4  C   UNL     1       5.908   1.813  -0.049  0.00  0.00    +0.238 A 
ATOM      5  O   UNL     1       5.522   3.095  -0.032  0.00  0.00    -0.337 OA
ATOM      6  N   UNL     1       4.102   3.087  -0.022  0.00  0.00    -0.056 NA
BRANCH   2   9
ATOM      7  C   UNL     1      -0.016   1.355   0.009  0.00  0.00    +0.008 A 
ATOM      8  C   UNL     1       1.176   2.042   0.002  0.00  0.00    +0.019 A 
ATOM      9  C   UNL     1       2.346   1.330  -0.013  0.00  0.00    +0.060 A 
ATOM     10  S   UNL     1       1.753  -0.354  -0.017  0.00  0.00    -0.093 S 
ATOM     11  C   UNL     1       0.002  -0.004   0.002  0.00  0.00    +0.046 A 
ENDBRANCH   2   9
ENDBRANCH   1   4
BRANCH   1  12
ATOM     12  S   UNL     1       7.886   1.143  -1.788  0.00  0.00    -0.114 S 
BRANCH  12  13
ATOM     13  C   UNL     1       9.546   0.573  -1.644  0.00  0.00    +0.029 A 
ATOM     14  C   UNL     1      10.105   0.368  -0.391  0.00  0.00    +0.019 A 
ATOM     15  C   UNL     1      11.408  -0.081  -0.279  0.00  0.00    +0.039 A 
ATOM     16  C   UNL     1      12.159  -0.327  -1.416  0.00  0.00    +0.125 A 
ATOM     17  C   UNL     1      11.609  -0.124  -2.670  0.00  0.00    +0.062 A 
ATOM     18  C   UNL     1      10.301   0.320  -2.790  0.00  0.00    +0.041 A 
ATOM     19  F   UNL     1      13.432  -0.765  -1.301  0.00  0.00    -0.205 F 
BRANCH  18  20
ATOM     20  N   UNL     1       9.741   0.520  -4.057  0.00  0.00    -0.357 N 
ATOM     21  H   UNL     1       8.827   0.834  -4.139  0.00  0.00    +0.142 HD
ATOM     22  H   UNL     1      10.266   0.344  -4.853  0.00  0.00    +0.142 HD
ENDBRANCH  18  20
ENDBRANCH  12  13
ENDBRANCH   1  12
TORSDOF 5
