REMARK  Name = ZINC36896997
REMARK  5 active torsions:
REMARK  status: ('A' for Active; 'I' for Inactive)
REMARK    1  A    between atoms: C_6  and  O_12
REMARK    2  A    between atoms: C_7  and  O_11
REMARK    3  A    between atoms: O_12  and  C_13
REMARK    4  A    between atoms: C_13  and  C_14
REMARK    5  A    between atoms: C_18  and  C_20
REMARK                            x       y       z     vdW  Elec       q    Type
REMARK                         _______ _______ _______ _____ _____    ______ ____
ROOT
ATOM      1  C   UNL     1      -0.016   1.357   0.009  0.00  0.00    +0.001 A 
ATOM      2  C   UNL     1       1.168   2.091   0.002  0.00  0.00    +0.001 A 
ATOM      3  C   UNL     1       2.378   1.467  -0.013  0.00  0.00    +0.008 A 
ATOM      4  C   UNL     1       2.438   0.063  -0.021  0.00  0.00    -0.014 A 
ATOM      5  C   UNL     1       3.670  -0.613  -0.035  0.00  0.00    +0.058 A 
ATOM      6  C   UNL     1       3.692  -1.977  -0.043  0.00  0.00    +0.163 A 
ATOM      7  C   UNL     1       2.499  -2.716  -0.035  0.00  0.00    +0.159 A 
ATOM      8  C   UNL     1       1.288  -2.088  -0.021  0.00  0.00    +0.057 A 
ATOM      9  C   UNL     1       1.232  -0.683  -0.013  0.00  0.00    -0.014 A 
ATOM     10  C   UNL     1       0.002  -0.004   0.002  0.00  0.00    +0.008 A 
ENDROOT
BRANCH   7  11
ATOM     11  O   UNL     1       2.550  -4.074  -0.043  0.00  0.00    -0.503 OA
ATOM     12  H   UNL     1       2.574  -4.471   0.839  0.00  0.00    +0.292 HD
ENDBRANCH   7  11
BRANCH   6  13
ATOM     13  O   UNL     1       4.885  -2.629  -0.057  0.00  0.00    -0.484 OA
BRANCH  13  14
ATOM     14  C   UNL     1       6.065  -1.822  -0.065  0.00  0.00    +0.264 C 
BRANCH  14  15
ATOM     15  C   UNL     1       7.281  -2.712  -0.081  0.00  0.00    -0.009 A 
ATOM     16  C   UNL     1       7.846  -3.130   1.111  0.00  0.00    +0.007 A 
ATOM     17  C   UNL     1       8.963  -3.947   1.105  0.00  0.00    +0.002 A 
ATOM     18  C   UNL     1       9.520  -4.350  -0.090  0.00  0.00    +0.019 A 
ATOM     19  C   UNL     1       8.955  -3.933  -1.297  0.00  0.00    +0.052 A 
ATOM     20  C   UNL     1       7.825  -3.112  -1.284  0.00  0.00    +0.025 A 
BRANCH  19  21
ATOM     21  C   UNL     1       9.528  -4.347  -2.542  0.00  0.00    +0.099 C 
ATOM     22  N   UNL     1       9.983  -4.676  -3.529  0.00  0.00    -0.191 NA
ENDBRANCH  19  21
ENDBRANCH  14  15
ENDBRANCH  13  14
ENDBRANCH   6  13
TORSDOF 5
