REMARK  Name = ZINC51705955
REMARK  9 active torsions:
REMARK  status: ('A' for Active; 'I' for Inactive)
REMARK    1  A    between atoms: C_1  and  C_2
REMARK    2  A    between atoms: C_3  and  C_8
REMARK    3  A    between atoms: C_4  and  C_7
REMARK    4  A    between atoms: C_8  and  N_9
REMARK    5  A    between atoms: N_9  and  C_10
REMARK    6  A    between atoms: N_9  and  C_11
REMARK    7  A    between atoms: C_11  and  C_12
REMARK    8  A    between atoms: N_14  and  C_15
REMARK    9  A    between atoms: C_21  and  C_23
REMARK                            x       y       z     vdW  Elec       q    Type
REMARK                         _______ _______ _______ _____ _____    ______ ____
ROOT
ATOM      1  C   UNL     1       1.441   2.709  -5.320  0.00  0.00    +0.197 C 
ATOM      2  O   UNL     1       2.099   2.045  -4.547  0.00  0.00    -0.278 OA
ATOM      3  N   UNL     1       1.987   3.136  -6.475  0.00  0.00    -0.314 N 
ATOM      4  H   UNL     1       1.461   3.668  -7.093  0.00  0.00    +0.149 HD
ENDROOT
BRANCH   3   5
ATOM      5  C   UNL     1       3.376   2.799  -6.798  0.00  0.00    +0.076 C 
ATOM      6  C   UNL     1       4.313   3.818  -6.146  0.00  0.00    +0.041 C 
ATOM      7  C   UNL     1       5.765   3.442  -6.457  0.00  0.00    +0.109 C 
ATOM      8  N   UNL     1       5.921   3.323  -7.914  0.00  0.00    -0.301 N 
ATOM      9  C   UNL     1       5.010   2.438  -8.652  0.00  0.00    +0.109 C 
ATOM     10  C   UNL     1       3.567   2.825  -8.316  0.00  0.00    +0.041 C 
ATOM     11  C   UNL     1       6.882   4.014  -8.560  0.00  0.00    +0.219 C 
ATOM     12  O   UNL     1       7.575   4.801  -7.952  0.00  0.00    -0.275 OA
BRANCH  11  13
ATOM     13  C   UNL     1       7.094   3.807 -10.037  0.00  0.00    +0.075 C 
ATOM     14  C   UNL     1       7.956   2.562 -10.259  0.00  0.00    +0.013 C 
ATOM     15  C   UNL     1       8.171   2.353 -11.760  0.00  0.00    +0.001 C 
ATOM     16  C   UNL     1       8.878   3.575 -12.350  0.00  0.00    +0.000 C 
ATOM     17  C   UNL     1       8.016   4.819 -12.127  0.00  0.00    +0.001 C 
ATOM     18  C   UNL     1       7.801   5.029 -10.627  0.00  0.00    +0.013 C 
ENDBRANCH  11  13
ENDBRANCH   3   5
BRANCH   1  19
ATOM     19  C   UNL     1       0.013   3.056  -4.987  0.00  0.00    +0.019 C 
BRANCH  19  20
ATOM     20  N   UNL     1      -0.342   2.477  -3.685  0.00  0.00    +0.386 N 
ATOM     21  C   UNL     1      -0.309   1.011  -3.775  0.00  0.00    -0.095 C 
ATOM     22  H   UNL     1       0.320   2.786  -2.988  0.00  0.00    -0.081 HD
BRANCH  20  23
ATOM     23  C   UNL     1      -1.692   2.915  -3.305  0.00  0.00    -0.037 C 
BRANCH  23  26
ATOM     24  C   UNL     1      -1.104   4.468  -0.599  0.00  0.00    +0.069 C 
ATOM     25  C   UNL     1      -1.748   3.111  -0.718  0.00  0.00    +0.082 A 
ATOM     26  C   UNL     1      -2.008   2.422  -1.917  0.00  0.00    +0.001 A 
ATOM     27  C   UNL     1      -2.589   1.247  -1.607  0.00  0.00    +0.136 A 
ATOM     28  O   UNL     1      -2.700   1.178  -0.272  0.00  0.00    -0.359 OA
ATOM     29  N   UNL     1      -2.155   2.367   0.272  0.00  0.00    -0.083 NA
ATOM     30  C   UNL     1      -3.037   0.195  -2.589  0.00  0.00    +0.089 C 
ENDBRANCH  23  26
ENDBRANCH  20  23
ENDBRANCH  19  20
ENDBRANCH   1  19
TORSDOF 6
