REMARK  Name = ZINC42144004
REMARK  4 active torsions:
REMARK  status: ('A' for Active; 'I' for Inactive)
REMARK    1  A    between atoms: C_4  and  S_9
REMARK    2  A    between atoms: C_5  and  C_7
REMARK    3  A    between atoms: S_9  and  C_10
REMARK    4  A    between atoms: C_14  and  N_19
REMARK                            x       y       z     vdW  Elec       q    Type
REMARK                         _______ _______ _______ _____ _____    ______ ____
ROOT
ATOM      1  C   UNL     1       5.157   0.495  -0.197  0.00  0.00    +0.263 A 
ATOM      2  N   UNL     1       6.444   0.317  -0.351  0.00  0.00    -0.203 NA
ATOM      3  C   UNL     1       7.047   1.535  -0.434  0.00  0.00    +0.112 A 
ATOM      4  C   UNL     1       8.371   1.944  -0.597  0.00  0.00    +0.054 A 
ATOM      5  C   UNL     1       8.670   3.294  -0.644  0.00  0.00    +0.027 A 
ATOM      6  C   UNL     1       7.656   4.241  -0.530  0.00  0.00    +0.026 A 
ATOM      7  C   UNL     1       6.345   3.844  -0.368  0.00  0.00    +0.050 A 
ATOM      8  C   UNL     1       6.030   2.495  -0.319  0.00  0.00    +0.156 A 
ATOM      9  O   UNL     1       4.871   1.810  -0.179  0.00  0.00    -0.430 OA
ENDROOT
BRANCH   5  10
ATOM     10  N   UNL     1       9.996   3.709  -0.807  0.00  0.00    -0.358 N 
ATOM     11  H   UNL     1      10.704   3.051  -0.887  0.00  0.00    +0.142 HD
ATOM     12  H   UNL     1      10.207   4.655  -0.841  0.00  0.00    +0.142 HD
ENDBRANCH   5  10
BRANCH   1  13
ATOM     13  S   UNL     1       3.970  -0.798  -0.043  0.00  0.00    -0.030 S 
BRANCH  13  17
ATOM     14  C   UNL     1       0.077   1.377   0.808  0.00  0.00    +0.001 A 
ATOM     15  C   UNL     1       0.325   0.855  -0.451  0.00  0.00    +0.001 A 
ATOM     16  C   UNL     1       1.507   0.193  -0.713  0.00  0.00    +0.016 A 
ATOM     17  C   UNL     1       2.459   0.047   0.288  0.00  0.00    +0.034 A 
ATOM     18  C   UNL     1       2.212   0.576   1.565  0.00  0.00    +0.066 A 
ATOM     19  C   UNL     1       1.010   1.243   1.814  0.00  0.00    +0.020 A 
BRANCH  18  20
ATOM     20  C   UNL     1       3.185   0.432   2.606  0.00  0.00    +0.100 C 
ATOM     21  N   UNL     1       3.957   0.318   3.431  0.00  0.00    -0.191 NA
ENDBRANCH  18  20
ENDBRANCH  13  17
ENDBRANCH   1  13
TORSDOF 4
