REMARK  Name = ZINC13077288
REMARK  9 active torsions:
REMARK  status: ('A' for Active; 'I' for Inactive)
REMARK    1  A    between atoms: C_1  and  C_2
REMARK    2  A    between atoms: C_2  and  C_4
REMARK    3  A    between atoms: C_2  and  O_6
REMARK    4  A    between atoms: O_6  and  C_7
REMARK    5  A    between atoms: C_10  and  C_13
REMARK    6  A    between atoms: C_15  and  C_23
REMARK    7  A    between atoms: C_25  and  O_31
REMARK    8  A    between atoms: C_26  and  O_30
REMARK    9  A    between atoms: O_31  and  C_32
REMARK                            x       y       z     vdW  Elec       q    Type
REMARK                         _______ _______ _______ _____ _____    ______ ____
ROOT
ATOM      1  C   UNL     1       1.108   2.320  -0.885  0.00  0.00    +0.039 C 
ATOM      2  C   UNL     1       0.022   1.560  -0.881  0.00  0.00    +0.028 C 
ATOM      3  C   UNL     1       0.050   0.073  -1.117  0.00  0.00    +0.167 C 
ATOM      4  N   UNL     1       1.425  -0.406  -1.061  0.00  0.00    -0.202 N 
ATOM      5  C   UNL     1       2.512   0.409  -1.063  0.00  0.00    +0.240 A 
ATOM      6  N   UNL     1       3.568  -0.352  -1.013  0.00  0.00    -0.092 NA
ATOM      7  N   UNL     1       3.222  -1.593  -0.976  0.00  0.00    -0.021 NA
ATOM      8  N   UNL     1       1.933  -1.703  -1.000  0.00  0.00    -0.042 NA
ATOM      9  N   UNL     1       2.386   1.789  -1.106  0.00  0.00    -0.282 N 
ATOM     10  H   UNL     1       3.149   2.362  -1.282  0.00  0.00    +0.155 HD
ENDROOT
BRANCH   3  11
ATOM     11  C   UNL     1      -0.532  -0.230  -2.474  0.00  0.00    -0.014 A 
ATOM     12  C   UNL     1      -1.645  -1.044  -2.580  0.00  0.00    +0.055 A 
ATOM     13  C   UNL     1      -2.186  -1.319  -3.826  0.00  0.00    +0.163 A 
ATOM     14  C   UNL     1      -1.599  -0.785  -4.969  0.00  0.00    +0.173 A 
ATOM     15  C   UNL     1      -0.480   0.025  -4.856  0.00  0.00    +0.063 A 
ATOM     16  C   UNL     1       0.051   0.301  -3.608  0.00  0.00    +0.025 A 
ATOM     17 BR   UNL     1       0.320   0.754  -6.407  0.00  0.00    -0.046 Br
BRANCH  14  18
ATOM     18  O   UNL     1      -2.123  -1.057  -6.194  0.00  0.00    -0.503 OA
ATOM     19  H   UNL     1      -1.753  -1.846  -6.614  0.00  0.00    +0.292 HD
ENDBRANCH  14  18
BRANCH  13  20
ATOM     20  O   UNL     1      -3.284  -2.115  -3.932  0.00  0.00    -0.491 OA
ATOM     21  C   UNL     1      -3.832  -2.628  -2.716  0.00  0.00    +0.277 C 
ENDBRANCH  13  20
ENDBRANCH   3  11
BRANCH   1  25
ATOM     22  C   UNL     1       0.702   6.497  -0.209  0.00  0.00    +0.122 A 
ATOM     23  C   UNL     1       1.959   5.950  -0.430  0.00  0.00    +0.046 A 
ATOM     24  C   UNL     1       2.094   4.596  -0.650  0.00  0.00    +0.013 A 
ATOM     25  C   UNL     1       0.967   3.775  -0.650  0.00  0.00    -0.004 A 
ATOM     26  C   UNL     1      -0.295   4.329  -0.434  0.00  0.00    +0.013 A 
ATOM     27  C   UNL     1      -0.423   5.683  -0.209  0.00  0.00    +0.046 A 
BRANCH  22  28
ATOM     28  O   UNL     1       0.572   7.832   0.006  0.00  0.00    -0.478 OA
BRANCH  28  30
ATOM     29  C   UNL     1       2.256   8.982  -1.290  0.00  0.00    +0.064 C 
ATOM     30  C   UNL     1       1.777   8.593   0.110  0.00  0.00    +0.282 C 
BRANCH  30  31
ATOM     31  C   UNL     1       1.517   9.839   0.916  0.00  0.00    +0.395 C 
ATOM     32  O   UNL     1       0.413  10.054   1.357  0.00  0.00    -0.242 OA
ATOM     33  O   UNL     1       2.512  10.711   1.145  0.00  0.00    -0.242 OA
ENDBRANCH  30  31
ENDBRANCH  28  30
ENDBRANCH  22  28
ENDBRANCH   1  25
TORSDOF 7
