REMARK  Name = ZINC45800739
REMARK  9 active torsions:
REMARK  status: ('A' for Active; 'I' for Inactive)
REMARK    1  A    between atoms: C_1  and  C_2
REMARK    2  A    between atoms: N_7  and  C_8
REMARK    3  A    between atoms: C_15  and  C_17
REMARK    4  A    between atoms: C_20  and  S_23
REMARK    5  A    between atoms: S_23  and  N_26
REMARK    6  A    between atoms: N_26  and  C_27
REMARK    7  A    between atoms: C_27  and  C_28
REMARK    8  A    between atoms: C_27  and  C_29
REMARK    9  A    between atoms: C_27  and  C_30
REMARK                            x       y       z     vdW  Elec       q    Type
REMARK                         _______ _______ _______ _____ _____    ______ ____
ROOT
ATOM      1  C   UNL     1      -3.234  -2.943   3.700  0.00  0.00    +0.044 C 
ATOM      2  C   UNL     1      -2.300  -3.858   2.951  0.00  0.00    -0.046 A 
ATOM      3  C   UNL     1      -2.267  -3.835   1.544  0.00  0.00    +0.021 A 
ATOM      4  C   UNL     1      -1.435  -4.649   0.866  0.00  0.00    +0.096 A 
ATOM      5  N   UNL     1      -0.607  -5.513   1.531  0.00  0.00    -0.269 N 
ATOM      6  C   UNL     1      -0.617  -5.559   2.911  0.00  0.00    +0.114 A 
ATOM      7  N   UNL     1       0.177  -6.388   3.551  0.00  0.00    -0.368 N 
ATOM      8  C   UNL     1      -1.484  -4.703   3.631  0.00  0.00    +0.048 A 
ATOM      9  C   UNL     1       0.219  -6.321   0.837  0.00  0.00    +0.264 C 
ATOM     10  O   UNL     1       1.030  -7.010   1.424  0.00  0.00    -0.267 OA
ATOM     11  H   UNL     1       0.828  -6.914   3.059  0.00  0.00    +0.161 HD
ENDROOT
BRANCH   7  12
ATOM     12  C   UNL     1       0.080  -6.519   5.006  0.00  0.00    +0.081 C 
ATOM     13  C   UNL     1       0.921  -5.430   5.674  0.00  0.00    +0.024 C 
ATOM     14  C   UNL     1       0.819  -5.566   7.195  0.00  0.00    +0.002 C 
ATOM     15  C   UNL     1       1.337  -6.942   7.619  0.00  0.00    +0.000 C 
ATOM     16  C   UNL     1       0.495  -8.032   6.951  0.00  0.00    +0.002 C 
ATOM     17  C   UNL     1       0.597  -7.895   5.431  0.00  0.00    +0.024 C 
ENDBRANCH   7  12
BRANCH   9  18
ATOM     18  C   UNL     1       0.138  -6.369  -0.637  0.00  0.00    +0.040 A 
ATOM     19  C   UNL     1       0.584  -5.288  -1.400  0.00  0.00    +0.015 A 
ATOM     20  C   UNL     1       0.506  -5.340  -2.776  0.00  0.00    +0.029 A 
ATOM     21  C   UNL     1      -0.013  -6.460  -3.401  0.00  0.00    +0.105 A 
ATOM     22  C   UNL     1      -0.457  -7.535  -2.651  0.00  0.00    +0.029 A 
ATOM     23  C   UNL     1      -0.380  -7.499  -1.275  0.00  0.00    +0.015 A 
BRANCH  21  24
ATOM     24  S   UNL     1      -0.109  -6.518  -5.160  0.00  0.00    +0.059 S 
ATOM     25  O   UNL     1      -0.944  -7.620  -5.485  0.00  0.00    -0.153 OA
ATOM     26  O   UNL     1      -0.390  -5.194  -5.595  0.00  0.00    -0.153 OA
BRANCH  24  27
ATOM     27  N   UNL     1       1.405  -6.888  -5.720  0.00  0.00    -0.185 NA
ATOM     28  H   UNL     1       1.907  -6.234  -6.231  0.00  0.00    +0.149 HD
BRANCH  27  29
ATOM     29  C   UNL     1       1.985  -8.205  -5.446  0.00  0.00    +0.032 C 
ATOM     30  C   UNL     1       1.204  -9.276  -6.210  0.00  0.00    +0.029 C 
ATOM     31  C   UNL     1       3.447  -8.222  -5.896  0.00  0.00    +0.029 C 
ATOM     32  C   UNL     1       1.910  -8.493  -3.945  0.00  0.00    +0.029 C 
ENDBRANCH  27  29
ENDBRANCH  24  27
ENDBRANCH  21  24
ENDBRANCH   9  18
TORSDOF 5
