REMARK  Name = ZINC00655614
REMARK  7 active torsions:
REMARK  status: ('A' for Active; 'I' for Inactive)
REMARK    1  A    between atoms: C_1  and  O_2
REMARK    2  A    between atoms: O_2  and  C_3
REMARK    3  A    between atoms: C_3  and  C_5
REMARK    4  A    between atoms: C_6  and  N_25
REMARK    5  A    between atoms: C_11  and  N_22
REMARK    6  A    between atoms: C_13  and  S_14
REMARK    7  A    between atoms: S_14  and  C_15
REMARK                            x       y       z     vdW  Elec       q    Type
REMARK                         _______ _______ _______ _____ _____    ______ ____
ROOT
ATOM      1  C   UNL     1      -0.101  -0.173   0.393  0.00  0.00    +0.118 A 
ATOM      2  C   UNL     1      -1.149  -1.069   0.069  0.00  0.00    +0.055 A 
ATOM      3  C   UNL     1      -0.820  -2.398  -0.219  0.00  0.00    +0.025 A 
ATOM      4  C   UNL     1       0.557  -2.704  -0.139  0.00  0.00    +0.025 A 
ATOM      5  S   UNL     1       1.317  -1.166   0.313  0.00  0.00    -0.080 S 
ATOM      6  C   UNL     1       1.039  -3.970  -0.388  0.00  0.00    +0.048 A 
ATOM      7  C   UNL     1       0.168  -5.013  -0.734  0.00  0.00    +0.128 A 
ATOM      8  C   UNL     1      -1.167  -4.795  -0.830  0.00  0.00    +0.048 A 
ATOM      9  C   UNL     1      -1.717  -3.514  -0.585  0.00  0.00    +0.025 A 
ENDROOT
BRANCH   7  10
ATOM     10  N   UNL     1       0.712  -6.365  -0.996  0.00  0.00    +0.056 N 
ATOM     11  O   UNL     1       2.007  -6.583  -0.904  0.00  0.00    -0.126 OA
ATOM     12  O   UNL     1      -0.101  -7.349  -1.321  0.00  0.00    -0.126 OA
ENDBRANCH   7  10
BRANCH   2  13
ATOM     13  N   UNL     1      -2.450  -0.644   0.034  0.00  0.00    -0.356 N 
ATOM     14  H   UNL     1      -2.650   0.301  -0.054  0.00  0.00    +0.142 HD
ATOM     15  H   UNL     1      -3.173  -1.288   0.098  0.00  0.00    +0.142 HD
ENDBRANCH   2  13
BRANCH   1  16
ATOM     16  C   UNL     1      -0.195   1.259   0.725  0.00  0.00    +0.347 C 
ATOM     17  O   UNL     1      -1.278   1.811   0.733  0.00  0.00    -0.244 OA
BRANCH  16  19
ATOM     18  C   UNL     1       0.752   3.365   1.334  0.00  0.00    +0.280 C 
ATOM     19  O   UNL     1       0.920   1.958   1.016  0.00  0.00    -0.464 OA
ENDBRANCH  16  19
ENDBRANCH   1  16
BRANCH   9  20
ATOM     20  S   UNL     1      -3.406  -3.260  -0.711  0.00  0.00    -0.089 S 
BRANCH  20  21
ATOM     21  C   UNL     1      -3.909  -4.840  -1.308  0.00  0.00    +0.013 A 
ATOM     22  C   UNL     1      -3.914  -5.102  -2.682  0.00  0.00    +0.016 A 
ATOM     23  C   UNL     1      -4.302  -6.340  -3.142  0.00  0.00    +0.021 A 
ATOM     24  C   UNL     1      -4.700  -7.323  -2.247  0.00  0.00    +0.041 A 
ATOM     25  C   UNL     1      -4.703  -7.067  -0.884  0.00  0.00    +0.021 A 
ATOM     26  C   UNL     1      -4.310  -5.834  -0.411  0.00  0.00    +0.016 A 
ATOM     27 CL   UNL     1      -5.195  -8.879  -2.836  0.00  0.00    -0.084 Cl
ENDBRANCH  20  21
ENDBRANCH   9  20
TORSDOF 6
