REMARK  Name = ZINC43460637
REMARK  6 active torsions:
REMARK  status: ('A' for Active; 'I' for Inactive)
REMARK    1  A    between atoms: C_1  and  C_2
REMARK    2  A    between atoms: C_2  and  C_24
REMARK    3  A    between atoms: C_4  and  O_23
REMARK    4  A    between atoms: C_9  and  O_13
REMARK    5  A    between atoms: O_13  and  C_14
REMARK    6  A    between atoms: C_20  and  O_22
REMARK                            x       y       z     vdW  Elec       q    Type
REMARK                         _______ _______ _______ _____ _____    ______ ____
ROOT
ATOM      1  C   UNL     1       0.591   1.622  -0.122  0.00  0.00    +0.055 C 
ATOM      2  C   UNL     1       0.632   0.093  -0.171  0.00  0.00    +0.108 C 
ATOM      3  C   UNL     1       1.587  -0.362  -1.282  0.00  0.00    +0.083 C 
ATOM      4  C   UNL     1       1.520  -1.889  -1.377  0.00  0.00    +0.152 C 
ATOM      5  C   UNL     1       1.651  -2.489  -0.000  0.00  0.00    +0.023 A 
ATOM      6  C   UNL     1       1.992  -3.828   0.112  0.00  0.00    +0.013 A 
ATOM      7  C   UNL     1       2.117  -4.414   1.355  0.00  0.00    +0.046 A 
ATOM      8  C   UNL     1       1.901  -3.661   2.501  0.00  0.00    +0.125 A 
ATOM      9  C   UNL     1       1.562  -2.323   2.392  0.00  0.00    +0.091 A 
ATOM     10  C   UNL     1       1.439  -1.733   1.139  0.00  0.00    +0.130 A 
ATOM     11  O   UNL     1       1.115  -0.415   1.074  0.00  0.00    -0.486 OA
ATOM     12  C   UNL     1      -0.771  -0.452  -0.440  0.00  0.00    +0.055 C 
ENDROOT
BRANCH   4  13
ATOM     13  O   UNL     1       2.586  -2.361  -2.204  0.00  0.00    -0.387 OA
ATOM     14  H   UNL     1       2.606  -3.322  -2.309  0.00  0.00    +0.210 HD
ENDBRANCH   4  13
BRANCH   8  15
ATOM     15  O   UNL     1       2.020  -4.236   3.727  0.00  0.00    -0.486 OA
BRANCH  15  16
ATOM     16  C   UNL     1       2.255  -5.646   3.762  0.00  0.00    +0.202 C 
ATOM     17  C   UNL     1       3.753  -5.917   3.618  0.00  0.00    +0.047 C 
ATOM     18  C   UNL     1       4.005  -7.426   3.656  0.00  0.00    +0.004 C 
ATOM     19  C   UNL     1       3.509  -7.992   4.988  0.00  0.00    +0.003 C 
ATOM     20  C   UNL     1       2.010  -7.720   5.132  0.00  0.00    +0.035 C 
ATOM     21  C   UNL     1       1.759  -6.212   5.094  0.00  0.00    +0.155 C 
BRANCH  21  22
ATOM     22  O   UNL     1       0.359  -5.958   5.228  0.00  0.00    -0.388 OA
ATOM     23  H   UNL     1      -0.023  -6.290   6.052  0.00  0.00    +0.210 HD
ENDBRANCH  21  22
ENDBRANCH  15  16
ENDBRANCH   8  15
TORSDOF 4
