REMARK  Name = ZINC39611211
REMARK  7 active torsions:
REMARK  status: ('A' for Active; 'I' for Inactive)
REMARK    1  A    between atoms: C_3  and  O_26
REMARK    2  A    between atoms: C_6  and  C_7
REMARK    3  A    between atoms: C_8  and  C_9
REMARK    4  A    between atoms: C_9  and  O_11
REMARK    5  A    between atoms: O_11  and  C_12
REMARK    6  A    between atoms: C_12  and  C_13
REMARK    7  A    between atoms: O_26  and  C_27
REMARK                            x       y       z     vdW  Elec       q    Type
REMARK                         _______ _______ _______ _____ _____    ______ ____
ROOT
ATOM      1  O   UNL     1      -2.046  -4.514   0.291  0.00  0.00    -0.452 OA
ENDROOT
BRANCH   1   2
ATOM      2  C   UNL     1      -1.880  -3.177   0.351  0.00  0.00    +0.332 C 
ATOM      3  O   UNL     1      -2.848  -2.441   0.303  0.00  0.00    -0.246 OA
BRANCH   2   5
ATOM      4  C   UNL     1      -0.412  -1.289   0.529  0.00  0.00    +0.015 C 
ATOM      5  C   UNL     1      -0.578  -2.628   0.469  0.00  0.00    +0.092 C 
BRANCH   4  11
ATOM      6  C   UNL     1       1.113   0.667   0.714  0.00  0.00    +0.011 A 
ATOM      7  C   UNL     1       2.379   1.194   0.829  0.00  0.00    +0.046 A 
ATOM      8  C   UNL     1       3.483   0.352   0.883  0.00  0.00    +0.127 A 
ATOM      9  C   UNL     1       3.315  -1.027   0.821  0.00  0.00    +0.046 A 
ATOM     10  C   UNL     1       2.053  -1.565   0.707  0.00  0.00    +0.011 A 
ATOM     11  C   UNL     1       0.938  -0.721   0.651  0.00  0.00    -0.025 A 
BRANCH   8  12
ATOM     12  O   UNL     1       4.730   0.877   0.996  0.00  0.00    -0.434 OA
BRANCH  12  13
ATOM     13  C   UNL     1       5.820  -0.046   1.047  0.00  0.00    +0.541 C 
ATOM     14  F   UNL     1       5.666  -0.890   2.151  0.00  0.00    -0.166 F 
ATOM     15  F   UNL     1       5.839  -0.810  -0.125  0.00  0.00    -0.166 F 
ENDBRANCH  12  13
ENDBRANCH   8  12
ENDBRANCH   4  11
ENDBRANCH   2   5
ENDBRANCH   1   2
BRANCH   1  16
ATOM     16  C   UNL     1      -3.385  -4.998   0.173  0.00  0.00    +0.328 C 
BRANCH  16  17
ATOM     17  C   UNL     1      -3.373  -6.504   0.120  0.00  0.00    +0.255 C 
ATOM     18  O   UNL     1      -2.321  -7.104   0.179  0.00  0.00    -0.272 OA
ATOM     19  N   UNL     1      -4.532  -7.183   0.009  0.00  0.00    -0.283 N 
ATOM     20  C   UNL     1      -4.703  -8.035  -0.984  0.00  0.00    +0.036 C 
ATOM     21  C   UNL     1      -3.685  -8.153  -2.035  0.00  0.00    +0.025 C 
ATOM     22  C   UNL     1      -3.853  -9.021  -3.051  0.00  0.00    +0.032 C 
ATOM     23  C   UNL     1      -5.057  -9.856  -3.113  0.00  0.00    +0.095 C 
ATOM     24  N   UNL     1      -5.499 -10.771  -3.954  0.00  0.00    -0.190 NA
ATOM     25  C   UNL     1      -6.688 -11.230  -3.526  0.00  0.00    +0.369 C 
ATOM     26  O   UNL     1      -7.413 -12.180  -4.163  0.00  0.00    -0.243 OA
ATOM     27  N   UNL     1      -7.057 -10.641  -2.412  0.00  0.00    -0.190 NA
ATOM     28  C   UNL     1      -6.088  -9.747  -2.062  0.00  0.00    +0.097 C 
ATOM     29  C   UNL     1      -5.918  -8.877  -1.034  0.00  0.00    +0.053 C 
ATOM     30  H   UNL     1      -5.239  -7.046   0.658  0.00  0.00    +0.155 HD
ENDBRANCH  16  17
ENDBRANCH   1  16
TORSDOF 7
