REMARK  Name = ZINC38601108
REMARK  12 active torsions:
REMARK  status: ('A' for Active; 'I' for Inactive)
REMARK    1  A    between atoms: C_1  and  C_2
REMARK    2  A    between atoms: C_2  and  N_3
REMARK    3  A    between atoms: N_3  and  C_4
REMARK    4  A    between atoms: N_3  and  C_6
REMARK    5  A    between atoms: C_4  and  C_5
REMARK    6  A    between atoms: C_6  and  C_7
REMARK    7  A    between atoms: C_7  and  C_8
REMARK    8  A    between atoms: N_10  and  C_11
REMARK    9  A    between atoms: C_19  and  C_21
REMARK   10  A    between atoms: C_21  and  O_23
REMARK   11  A    between atoms: O_23  and  C_24
REMARK   12  A    between atoms: C_24  and  C_25
REMARK                            x       y       z     vdW  Elec       q    Type
REMARK                         _______ _______ _______ _____ _____    ______ ____
ROOT
ATOM      1  C   UNL     1      -3.695  -6.093   0.556  0.00  0.00    +0.053 C 
ATOM      2  C   UNL     1      -4.673  -7.013   0.894  0.00  0.00    +0.019 A 
ATOM      3  C   UNL     1      -6.085  -6.982   0.805  0.00  0.00    +0.026 A 
ATOM      4  C   UNL     1      -6.809  -8.052   1.221  0.00  0.00    +0.019 A 
ATOM      5  C   UNL     1      -6.194  -9.195   1.741  0.00  0.00    +0.017 A 
ATOM      6  C   UNL     1      -4.848  -9.294   1.856  0.00  0.00    +0.027 A 
ATOM      7  C   UNL     1      -4.022  -8.216   1.442  0.00  0.00    +0.045 A 
ATOM      8  N   UNL     1      -2.713  -8.068   1.450  0.00  0.00    -0.367 N 
ATOM      9  C   UNL     1      -2.377  -6.750   0.900  0.00  0.00    +0.234 C 
ATOM     10 BR   UNL     1      -8.695  -7.995   1.096  0.00  0.00    -0.050 Br
ATOM     11  H   UNL     1      -2.074  -8.726   1.764  0.00  0.00    +0.161 HD
ENDROOT
BRANCH   1  14
ATOM     12  C   UNL     1      -2.836  -4.016  -0.118  0.00  0.00    +0.215 C 
ATOM     13  O   UNL     1      -1.720  -4.385   0.177  0.00  0.00    -0.276 OA
ATOM     14  N   UNL     1      -3.882  -4.855   0.019  0.00  0.00    -0.286 N 
ATOM     15  H   UNL     1      -4.767  -4.578  -0.264  0.00  0.00    +0.155 HD
BRANCH  12  16
ATOM     16  C   UNL     1      -3.055  -2.618  -0.637  0.00  0.00    +0.077 C 
BRANCH  16  17
ATOM     17  C   UNL     1      -1.716  -1.880  -0.695  0.00  0.00    -0.070 C 
BRANCH  17  18
ATOM     18  N   UNL     1      -1.909  -0.565  -1.321  0.00  0.00    +0.380 N 
ATOM     19  H   UNL     1      -2.358  -0.682  -2.217  0.00  0.00    -0.082 HD
BRANCH  18  21
ATOM     20  C   UNL     1      -3.056   1.593  -1.163  0.00  0.00    -0.017 C 
ATOM     21  C   UNL     1      -2.753   0.271  -0.456  0.00  0.00    -0.082 C 
ENDBRANCH  18  21
BRANCH  18  22
ATOM     22  C   UNL     1      -0.605   0.084  -1.508  0.00  0.00    -0.082 C 
ATOM     23  C   UNL     1       0.217  -0.705  -2.529  0.00  0.00    -0.017 C 
ENDBRANCH  18  22
ENDBRANCH  17  18
ENDBRANCH  16  17
ENDBRANCH  12  16
ENDBRANCH   1  14
BRANCH   9  24
ATOM     24  C   UNL     1      -1.533  -6.901  -0.339  0.00  0.00    +0.336 C 
ATOM     25  O   UNL     1      -1.716  -7.833  -1.085  0.00  0.00    -0.248 OA
BRANCH  24  26
ATOM     26  O   UNL     1      -0.578  -5.999  -0.614  0.00  0.00    -0.463 OA
BRANCH  26  27
ATOM     27  C   UNL     1       0.184  -6.204  -1.806  0.00  0.00    +0.229 C 
ATOM     28  C   UNL     1       1.216  -5.084  -1.950  0.00  0.00    +0.048 C 
ENDBRANCH  26  27
ENDBRANCH  24  26
ENDBRANCH   9  24
TORSDOF 9
