REMARK  Name = ZINC20029228
REMARK  12 active torsions:
REMARK  status: ('A' for Active; 'I' for Inactive)
REMARK    1  A    between atoms: C_1  and  C_2
REMARK    2  A    between atoms: C_2  and  C_4
REMARK    3  A    between atoms: C_4  and  O_5
REMARK    4  A    between atoms: O_5  and  C_6
REMARK    5  A    between atoms: C_9  and  C_14
REMARK    6  A    between atoms: C_11  and  O_12
REMARK    7  A    between atoms: O_12  and  C_13
REMARK    8  A    between atoms: N_19  and  C_33
REMARK    9  A    between atoms: C_23  and  C_31
REMARK   10  A    between atoms: C_24  and  N_30
REMARK   11  A    between atoms: C_25  and  C_26
REMARK   12  A    between atoms: C_25  and  C_28
REMARK                            x       y       z     vdW  Elec       q    Type
REMARK                         _______ _______ _______ _____ _____    ______ ____
ROOT
ATOM      1  C   UNL     1      -1.124   7.543   1.855  0.00  0.00    +0.068 C 
ATOM      2  C   UNL     1      -1.784   8.155   0.619  0.00  0.00    +0.044 C 
ATOM      3  C   UNL     1      -3.067   7.447   0.249  0.00  0.00    +0.093 C 
ATOM      4  N   UNL     1      -4.253   8.185   0.694  0.00  0.00    -0.301 NA
ATOM      5  C   UNL     1      -4.273   9.528   0.086  0.00  0.00    +0.111 C 
ATOM      6  C   UNL     1      -3.065  10.279   0.596  0.00  0.00    -0.007 C 
ATOM      7  C   UNL     1      -1.947   9.629   0.859  0.00  0.00    -0.026 C 
ATOM      8  C   UNL     1      -0.781  10.355   1.422  0.00  0.00    +0.074 C 
ATOM      9  C   UNL     1       0.237   9.646   1.972  0.00  0.00    +0.054 C 
ATOM     10  C   UNL     1       0.270   8.149   2.026  0.00  0.00    +0.188 C 
ATOM     11  C   UNL     1      -5.482   7.446   0.378  0.00  0.00    +0.105 C 
ENDROOT
BRANCH   1  15
ATOM     12  C   UNL     1      -0.794   3.310   1.348  0.00  0.00    +0.162 A 
ATOM     13  C   UNL     1      -0.464   4.163   0.307  0.00  0.00    +0.050 A 
ATOM     14  C   UNL     1      -0.572   5.531   0.475  0.00  0.00    +0.008 A 
ATOM     15  C   UNL     1      -1.008   6.051   1.679  0.00  0.00    -0.037 A 
ATOM     16  C   UNL     1      -1.339   5.205   2.721  0.00  0.00    +0.053 A 
ATOM     17  C   UNL     1      -1.239   3.833   2.558  0.00  0.00    +0.162 A 
BRANCH  17  18
ATOM     18  O   UNL     1      -1.569   2.999   3.581  0.00  0.00    -0.491 OA
ATOM     19  C   UNL     1      -2.018   3.607   4.794  0.00  0.00    +0.277 C 
ENDBRANCH  17  18
BRANCH  12  20
ATOM     20  O   UNL     1      -0.689   1.964   1.185  0.00  0.00    -0.484 OA
BRANCH  20  21
ATOM     21  C   UNL     1      -0.231   1.498  -0.086  0.00  0.00    +0.259 C 
BRANCH  21  23
ATOM     22  C   UNL     1       0.275  -0.752  -1.309  0.00  0.00    +0.042 C 
ATOM     23  C   UNL     1      -0.179  -0.009  -0.079  0.00  0.00    -0.043 C 
ATOM     24  C   UNL     1      -0.527  -0.672   0.995  0.00  0.00    +0.011 C 
ENDBRANCH  21  23
ENDBRANCH  20  21
ENDBRANCH  12  20
ENDBRANCH   1  15
BRANCH   9  25
ATOM     25  N   UNL     1       1.290  10.335   2.507  0.00  0.00    -0.358 N 
ATOM     26  H   UNL     1       2.130   9.789   2.961  0.00  0.00    +0.142 HD
ATOM     27  H   UNL     1       1.296  11.434   2.484  0.00  0.00    +0.142 HD
ENDBRANCH   9  25
BRANCH  10  28
ATOM     28  C   UNL     1       0.820   7.727   3.325  0.00  0.00    +0.091 C 
ATOM     29  N   UNL     1       1.244   7.402   4.327  0.00  0.00    -0.194 NA
ENDBRANCH  10  28
BRANCH  10  30
ATOM     30  C   UNL     1       1.144   7.651   0.951  0.00  0.00    +0.091 C 
ATOM     31  N   UNL     1       1.818   7.266   0.122  0.00  0.00    -0.194 NA
ENDBRANCH  10  30
BRANCH   8  32
ATOM     32  C   UNL     1      -0.731  11.786   1.385  0.00  0.00    +0.101 C 
ATOM     33  N   UNL     1      -0.691  12.921   1.355  0.00  0.00    -0.191 NA
ENDBRANCH   8  32
TORSDOF 9
