REMARK  Name = ZINC67559833
REMARK  6 active torsions:
REMARK  status: ('A' for Active; 'I' for Inactive)
REMARK    1  A    between atoms: C_3  and  C_8
REMARK    2  A    between atoms: C_11  and  N_13
REMARK    3  A    between atoms: N_16  and  C_17
REMARK    4  A    between atoms: C_17  and  C_18
REMARK    5  A    between atoms: C_21  and  S_23
REMARK    6  A    between atoms: S_23  and  N_26
REMARK                            x       y       z     vdW  Elec       q    Type
REMARK                         _______ _______ _______ _____ _____    ______ ____
ROOT
ATOM      1  N   UNL     1       5.418   3.107   1.609  0.00  0.00    -0.296 N 
ATOM      2  C   UNL     1       5.879   3.140   2.875  0.00  0.00    +0.300 C 
ATOM      3  O   UNL     1       5.648   2.216   3.630  0.00  0.00    -0.253 OA
ATOM      4  N   UNL     1       6.597   4.197   3.303  0.00  0.00    -0.295 N 
ATOM      5  H   UNL     1       5.604   3.844   1.006  0.00  0.00    +0.151 HD
ATOM      6  H   UNL     1       6.782   4.934   2.701  0.00  0.00    +0.151 HD
ENDROOT
BRANCH   1   9
ATOM      7  C   UNL     1       3.672   2.186  -0.021  0.00  0.00    +0.041 C 
ATOM      8  C   UNL     1       4.964   1.398  -0.244  0.00  0.00    +0.033 C 
ATOM      9  C   UNL     1       4.638   1.958   1.143  0.00  0.00    +0.082 C 
BRANCH   7  12
ATOM     10  C   UNL     1      -0.017   1.377   0.010  0.00  0.00    +0.003 A 
ATOM     11  C   UNL     1       1.171   2.086   0.002  0.00  0.00    +0.004 A 
ATOM     12  C   UNL     1       2.378   1.413  -0.013  0.00  0.00    -0.040 A 
ATOM     13  C   UNL     1       2.399   0.030  -0.021  0.00  0.00    +0.042 A 
ATOM     14  C   UNL     1       1.211  -0.679  -0.013  0.00  0.00    +0.124 A 
ATOM     15  C   UNL     1       0.002  -0.004   0.002  0.00  0.00    +0.038 A 
ATOM     16  F   UNL     1       1.230  -2.030  -0.022  0.00  0.00    -0.205 F 
ENDBRANCH   7  12
ENDBRANCH   1   9
BRANCH   4  17
ATOM     17  C   UNL     1       7.098   4.232   4.680  0.00  0.00    +0.148 C 
BRANCH  17  18
ATOM     18  C   UNL     1       7.864   5.511   4.903  0.00  0.00    +0.009 A 
ATOM     19  C   UNL     1       7.412   6.710   5.345  0.00  0.00    +0.015 A 
ATOM     20  C   UNL     1       8.305   7.757   5.475  0.00  0.00    +0.036 A 
ATOM     21  C   UNL     1       9.607   7.553   5.157  0.00  0.00    +0.142 A 
ATOM     22  S   UNL     1       9.602   5.838   4.661  0.00  0.00    -0.072 S 
BRANCH  21  23
ATOM     23  S   UNL     1      10.955   8.685   5.222  0.00  0.00    +0.062 S 
ATOM     24  O   UNL     1      11.930   8.209   4.304  0.00  0.00    -0.153 OA
ATOM     25  O   UNL     1      10.396   9.989   5.131  0.00  0.00    -0.153 OA
BRANCH  23  26
ATOM     26  N   UNL     1      11.626   8.562   6.731  0.00  0.00    -0.203 NA
ATOM     27  H   UNL     1      11.255   7.941   7.377  0.00  0.00    +0.144 HD
ATOM     28  H   UNL     1      12.390   9.110   6.968  0.00  0.00    +0.144 HD
ENDBRANCH  23  26
ENDBRANCH  21  23
ENDBRANCH  17  18
ENDBRANCH   4  17
TORSDOF 6
