REMARK  Name = ZINC04775575
REMARK  4 active torsions:
REMARK  status: ('A' for Active; 'I' for Inactive)
REMARK    1  A    between atoms: C_3  and  N_11
REMARK    2  A    between atoms: C_4  and  O_10
REMARK    3  A    between atoms: C_6  and  N_7
REMARK    4  A    between atoms: N_14  and  C_15
REMARK                            x       y       z     vdW  Elec       q    Type
REMARK                         _______ _______ _______ _____ _____    ______ ____
ROOT
ATOM      1  N   UNL     1       2.404   1.103  -0.033  0.00  0.00    -0.266 N 
ATOM      2  C   UNL     1       2.427  -0.241   0.074  0.00  0.00    +0.308 C 
ATOM      3  O   UNL     1       1.385  -0.867   0.089  0.00  0.00    -0.252 OA
ATOM      4  N   UNL     1       3.605  -0.890   0.165  0.00  0.00    -0.268 N 
ATOM      5  H   UNL     1       3.234   1.596  -0.126  0.00  0.00    +0.156 HD
ATOM      6  H   UNL     1       4.431  -0.387   0.235  0.00  0.00    +0.156 HD
ENDROOT
BRANCH   4   7
ATOM      7  C   UNL     1       3.635  -2.289   0.157  0.00  0.00    +0.055 A 
ATOM      8  C   UNL     1       2.604  -3.004  -0.438  0.00  0.00    +0.044 A 
ATOM      9  C   UNL     1       2.640  -4.386  -0.449  0.00  0.00    +0.043 A 
ATOM     10  C   UNL     1       3.697  -5.057   0.141  0.00  0.00    +0.021 A 
ATOM     11  C   UNL     1       4.722  -4.348   0.739  0.00  0.00    +0.023 A 
ATOM     12  C   UNL     1       4.695  -2.966   0.748  0.00  0.00    +0.062 A 
ATOM     13 CL   UNL     1       5.983  -2.077   1.499  0.00  0.00    -0.082 Cl
ATOM     14 CL   UNL     1       1.354  -5.280  -1.197  0.00  0.00    -0.083 Cl
ENDBRANCH   4   7
BRANCH   1  17
ATOM     15  C   UNL     1      -1.127   1.894   0.633  0.00  0.00    +0.035 A 
ATOM     16  C   UNL     1       0.080   1.220   0.615  0.00  0.00    +0.029 A 
ATOM     17  C   UNL     1       1.181   1.787  -0.008  0.00  0.00    +0.077 A 
ATOM     18  C   UNL     1       1.069   3.038  -0.610  0.00  0.00    +0.140 A 
ATOM     19  C   UNL     1      -0.142   3.710  -0.582  0.00  0.00    +0.080 A 
ATOM     20  C   UNL     1      -1.236   3.138   0.041  0.00  0.00    +0.130 A 
BRANCH  20  21
ATOM     21  N   UNL     1      -2.530   3.857   0.068  0.00  0.00    +0.057 N 
ATOM     22  O   UNL     1      -2.630   4.951  -0.458  0.00  0.00    -0.126 OA
ATOM     23  O   UNL     1      -3.494   3.355   0.617  0.00  0.00    -0.126 OA
ENDBRANCH  20  21
BRANCH  18  24
ATOM     24  O   UNL     1       2.146   3.599  -1.222  0.00  0.00    -0.505 OA
ATOM     25  H   UNL     1       2.226   3.376  -2.159  0.00  0.00    +0.292 HD
ENDBRANCH  18  24
ENDBRANCH   1  17
TORSDOF 4
