REMARK  Name = ZINC44608137
REMARK  4 active torsions:
REMARK  status: ('A' for Active; 'I' for Inactive)
REMARK    1  A    between atoms: N_7  and  C_10
REMARK    2  A    between atoms: C_12  and  O_22
REMARK    3  A    between atoms: C_14  and  O_21
REMARK    4  A    between atoms: C_16  and  C_19
REMARK                            x       y       z     vdW  Elec       q    Type
REMARK                         _______ _______ _______ _____ _____    ______ ____
ROOT
ATOM      1  C   UNL     1      -0.016   1.312   0.009  0.00  0.00    +0.225 A 
ATOM      2  N   UNL     1       1.089   2.036   0.003  0.00  0.00    -0.219 NA
ATOM      3  C   UNL     1       2.288   1.462  -0.012  0.00  0.00    +0.147 A 
ATOM      4  C   UNL     1       2.358   0.059  -0.020  0.00  0.00    +0.147 A 
ATOM      5  C   UNL     1       1.155  -0.666  -0.013  0.00  0.00    +0.167 A 
ATOM      6  N   UNL     1       0.002  -0.004   0.002  0.00  0.00    -0.216 NA
ATOM      7  N   UNL     1       1.511  -1.991  -0.023  0.00  0.00    -0.286 N 
ATOM      8  C   UNL     1       2.873  -2.048  -0.036  0.00  0.00    +0.203 A 
ATOM      9  N   UNL     1       3.368  -0.844  -0.034  0.00  0.00    -0.231 NA
ATOM     10  N   UNL     1       3.439   2.229  -0.019  0.00  0.00    -0.341 N 
ATOM     11  H   UNL     1       3.377   3.197  -0.014  0.00  0.00    +0.144 HD
ATOM     12  H   UNL     1       4.309   1.799  -0.030  0.00  0.00    +0.144 HD
ENDROOT
BRANCH   7  13
ATOM     13  C   UNL     1       0.596  -3.135  -0.019  0.00  0.00    +0.253 C 
ATOM     14  C   UNL     1       0.177  -3.493  -1.463  0.00  0.00    +0.195 C 
ATOM     15  C   UNL     1       0.106  -5.036  -1.461  0.00  0.00    +0.177 C 
ATOM     16  C   UNL     1       0.489  -5.428  -0.017  0.00  0.00    +0.166 C 
ATOM     17  O   UNL     1       1.266  -4.314   0.476  0.00  0.00    -0.347 OA
BRANCH  16  18
ATOM     18  C   UNL     1       1.327  -6.708  -0.016  0.00  0.00    +0.143 C 
ATOM     19 CL   UNL     1       1.636  -7.223   1.683  0.00  0.00    -0.123 Cl
ENDBRANCH  16  18
BRANCH  15  20
ATOM     20  O   UNL     1       1.039  -5.582  -2.395  0.00  0.00    -0.386 OA
ATOM     21  H   UNL     1       1.036  -6.548  -2.435  0.00  0.00    +0.210 HD
ENDBRANCH  15  20
BRANCH  14  22
ATOM     22  O   UNL     1      -1.100  -2.930  -1.768  0.00  0.00    -0.385 OA
ATOM     23  H   UNL     1      -1.411  -3.124  -2.663  0.00  0.00    +0.210 HD
ENDBRANCH  14  22
ENDBRANCH   7  13
TORSDOF 4
