REMARK  Name = ZINC32558252
REMARK  4 active torsions:
REMARK  status: ('A' for Active; 'I' for Inactive)
REMARK    1  A    between atoms: C_4  and  C_7
REMARK    2  A    between atoms: C_14  and  N_25
REMARK    3  A    between atoms: C_15  and  C_23
REMARK    4  A    between atoms: C_16  and  C_18
REMARK                            x       y       z     vdW  Elec       q    Type
REMARK                         _______ _______ _______ _____ _____    ______ ____
ROOT
ATOM      1  C   UNL     1       3.696  -0.686  -0.038  0.00  0.00    +0.074 A 
ATOM      2  C   UNL     1       4.018  -1.743  -0.822  0.00  0.00    +0.054 A 
ATOM      3  C   UNL     1       5.341  -2.122  -0.523  0.00  0.00    +0.245 A 
ATOM      4  N   UNL     1       5.797  -1.326   0.401  0.00  0.00    -0.135 NA
ATOM      5  N   UNL     1       4.791  -0.404   0.730  0.00  0.00    -0.273 N 
ATOM      6  H   UNL     1       4.860   0.306   1.387  0.00  0.00    +0.189 HD
ATOM      7  O   UNL     1       5.951  -3.164  -1.151  0.00  0.00    -0.421 OA
ATOM      8  C   UNL     1       5.173  -3.997  -1.871  0.00  0.00    +0.201 C 
ATOM      9  C   UNL     1       3.898  -3.736  -2.228  0.00  0.00    +0.099 C 
ATOM     10  C   UNL     1       3.188  -2.458  -1.857  0.00  0.00    +0.108 C 
ENDROOT
BRANCH   1  14
ATOM     11  C   UNL     1      -0.017   1.379   0.010  0.00  0.00    +0.000 A 
ATOM     12  C   UNL     1       1.168   2.093   0.002  0.00  0.00    +0.001 A 
ATOM     13  C   UNL     1       2.377   1.428  -0.013  0.00  0.00    +0.010 A 
ATOM     14  C   UNL     1       2.403   0.033  -0.021  0.00  0.00    +0.000 A 
ATOM     15  C   UNL     1       1.205  -0.680  -0.013  0.00  0.00    +0.010 A 
ATOM     16  C   UNL     1       0.002  -0.004   0.002  0.00  0.00    +0.001 A 
ENDBRANCH   1  14
BRANCH  10  17
ATOM     17  C   UNL     1       3.036  -1.588  -3.078  0.00  0.00    +0.003 A 
ATOM     18  C   UNL     1       1.904  -1.100  -3.643  0.00  0.00    +0.012 A 
ATOM     19  C   UNL     1       2.006  -0.312  -4.774  0.00  0.00    +0.008 A 
ATOM     20  C   UNL     1       3.234  -0.051  -5.285  0.00  0.00    +0.045 A 
ATOM     21  S   UNL     1       4.300  -0.926  -4.151  0.00  0.00    -0.101 S 
ENDBRANCH  10  17
BRANCH   8  22
ATOM     22  N   UNL     1       5.716  -5.193  -2.271  0.00  0.00    -0.328 N 
ATOM     23  H   UNL     1       6.630  -5.414  -2.033  0.00  0.00    +0.145 HD
ATOM     24  H   UNL     1       5.186  -5.816  -2.790  0.00  0.00    +0.145 HD
ENDBRANCH   8  22
BRANCH   9  25
ATOM     25  C   UNL     1       3.188  -4.716  -2.993  0.00  0.00    +0.101 C 
ATOM     26  N   UNL     1       2.624  -5.493  -3.600  0.00  0.00    -0.191 NA
ENDBRANCH   9  25
TORSDOF 4
