REMARK  Name = ZINC11854770
REMARK  13 active torsions:
REMARK  status: ('A' for Active; 'I' for Inactive)
REMARK    1  A    between atoms: C_1  and  C_2
REMARK    2  A    between atoms: C_2  and  C_3
REMARK    3  A    between atoms: C_3  and  C_4
REMARK    4  A    between atoms: C_13  and  N_22
REMARK    5  A    between atoms: C_15  and  C_17
REMARK    6  A    between atoms: C_23  and  C_25
REMARK    7  A    between atoms: C_26  and  C_27
REMARK    8  A    between atoms: C_29  and  O_37
REMARK    9  A    between atoms: C_30  and  O_35
REMARK   10  A    between atoms: C_31  and  O_33
REMARK   11  A    between atoms: O_33  and  C_34
REMARK   12  A    between atoms: O_35  and  C_36
REMARK   13  A    between atoms: O_37  and  C_38
REMARK                            x       y       z     vdW  Elec       q    Type
REMARK                         _______ _______ _______ _____ _____    ______ ____
ROOT
ATOM      1  C   UNL     1       3.321  -9.432   1.010  0.00  0.00    +0.050 A 
ATOM      2  C   UNL     1       3.132 -10.759   1.262  0.00  0.00    +0.093 A 
ATOM      3  C   UNL     1       1.820 -11.269   1.273  0.00  0.00    +0.253 A 
ATOM      4  O   UNL     1       1.613 -12.451   1.495  0.00  0.00    -0.268 OA
ATOM      5  N   UNL     1       0.794 -10.423   1.037  0.00  0.00    -0.291 N 
ATOM      6  H   UNL     1      -0.118 -10.752   1.043  0.00  0.00    +0.172 HD
ATOM      7  C   UNL     1       1.045  -9.111   0.787  0.00  0.00    +0.234 A 
ATOM      8  N   UNL     1       2.274  -8.641   0.779  0.00  0.00    -0.217 NA
ATOM      9  N   UNL     1      -0.009  -8.253   0.542  0.00  0.00    -0.185 N 
ATOM     10  C   UNL     1       0.086  -6.915   0.282  0.00  0.00    +0.132 A 
ATOM     11  C   UNL     1      -1.171  -6.441   0.093  0.00  0.00    +0.074 A 
ATOM     12  C   UNL     1      -2.067  -7.520   0.248  0.00  0.00    +0.102 A 
ATOM     13  N   UNL     1      -1.366  -8.602   0.521  0.00  0.00    -0.162 NA
ENDROOT
BRANCH  12  14
ATOM     14  C   UNL     1      -3.539  -7.449   0.126  0.00  0.00    +0.039 A 
ATOM     15  C   UNL     1      -4.471  -8.425   0.352  0.00  0.00    +0.018 A 
ATOM     16  C   UNL     1      -5.803  -8.124   0.172  0.00  0.00    +0.008 A 
ATOM     17  C   UNL     1      -6.150  -6.872  -0.225  0.00  0.00    +0.046 A 
ATOM     18  S   UNL     1      -4.563  -6.065  -0.348  0.00  0.00    -0.095 S 
ENDBRANCH  12  14
BRANCH  10  19
ATOM     19  N   UNL     1       1.262  -6.174   0.216  0.00  0.00    -0.267 N 
ATOM     20  C   UNL     1       1.208  -4.837   0.055  0.00  0.00    +0.242 C 
ATOM     21  O   UNL     1       0.134  -4.287  -0.112  0.00  0.00    -0.270 OA
ATOM     22  H   UNL     1       2.121  -6.619   0.286  0.00  0.00    +0.157 HD
BRANCH  20  23
ATOM     23  C   UNL     1       2.438  -4.047   0.080  0.00  0.00    +0.068 C 
ATOM     24  C   UNL     1       2.402  -2.732  -0.226  0.00  0.00    +0.013 C 
BRANCH  24  25
ATOM     25  C   UNL     1       1.190  -2.148  -0.819  0.00  0.00    -0.018 A 
ATOM     26  C   UNL     1       0.565  -2.778  -1.901  0.00  0.00    +0.057 A 
ATOM     27  C   UNL     1      -0.574  -2.226  -2.455  0.00  0.00    +0.166 A 
ATOM     28  C   UNL     1      -1.104  -1.048  -1.934  0.00  0.00    +0.204 A 
ATOM     29  C   UNL     1      -0.482  -0.416  -0.861  0.00  0.00    +0.166 A 
ATOM     30  C   UNL     1       0.658  -0.962  -0.301  0.00  0.00    +0.057 A 
BRANCH  29  31
ATOM     31  O   UNL     1      -1.000   0.737  -0.358  0.00  0.00    -0.491 OA
ATOM     32  C   UNL     1      -0.314   1.329   0.747  0.00  0.00    +0.277 C 
ENDBRANCH  29  31
BRANCH  28  33
ATOM     33  O   UNL     1      -2.228  -0.512  -2.478  0.00  0.00    -0.488 OA
ATOM     34  C   UNL     1      -2.051   0.418  -3.548  0.00  0.00    +0.277 C 
ENDBRANCH  28  33
BRANCH  27  35
ATOM     35  O   UNL     1      -1.182  -2.837  -3.507  0.00  0.00    -0.491 OA
ATOM     36  C   UNL     1      -0.652  -4.098  -3.919  0.00  0.00    +0.277 C 
ENDBRANCH  27  35
ENDBRANCH  24  25
ENDBRANCH  20  23
ENDBRANCH  10  19
BRANCH   1  37
ATOM     37  C   UNL     1       4.715  -8.860   0.993  0.00  0.00    +0.055 C 
BRANCH  37  39
ATOM     38  C   UNL     1       6.653  -8.253  -0.461  0.00  0.00    +0.004 C 
ATOM     39  C   UNL     1       5.238  -8.834  -0.444  0.00  0.00    +0.003 C 
ENDBRANCH  37  39
ENDBRANCH   1  37
TORSDOF 9
