REMARK  Name = ZINC39662105
REMARK  5 active torsions:
REMARK  status: ('A' for Active; 'I' for Inactive)
REMARK    1  A    between atoms: C_9  and  C_12
REMARK    2  A    between atoms: C_16  and  C_25
REMARK    3  A    between atoms: N_27  and  C_28
REMARK    4  A    between atoms: C_28  and  C_29
REMARK    5  A    between atoms: C_29  and  S_30
REMARK                            x       y       z     vdW  Elec       q    Type
REMARK                         _______ _______ _______ _____ _____    ______ ____
ROOT
ATOM      1  C   UNL     1       4.686  -2.626  -0.061  0.00  0.00    +0.260 C 
ATOM      2  O   UNL     1       5.479  -1.961  -0.692  0.00  0.00    -0.271 OA
ATOM      3  N   UNL     1       5.030  -3.855   0.371  0.00  0.00    -0.297 N 
ATOM      4  C   UNL     1       4.172  -4.850   1.057  0.00  0.00    +0.121 C 
ATOM      5  C   UNL     1       4.591  -6.209   0.453  0.00  0.00    +0.100 C 
ATOM      6  C   UNL     1       6.022  -5.985  -0.062  0.00  0.00    -0.004 C 
ATOM      7  C   UNL     1       6.350  -4.521   0.261  0.00  0.00    +0.115 C 
ATOM      8  C   UNL     1       6.994  -6.917   0.656  0.00  0.00    -0.010 C 
ATOM      9  C   UNL     1       8.401  -6.716   0.086  0.00  0.00    -0.082 C 
ATOM     10  N   UNL     1       8.393  -7.002  -1.353  0.00  0.00    +0.379 N 
ATOM     11  C   UNL     1       7.528  -6.042  -2.049  0.00  0.00    -0.082 C 
ATOM     12  C   UNL     1       6.083  -6.214  -1.570  0.00  0.00    -0.010 C 
ATOM     13  H   UNL     1       9.333  -6.929  -1.714  0.00  0.00    -0.086 HD
ATOM     14  H   UNL     1       8.049  -7.937  -1.508  0.00  0.00    -0.086 HD
ENDROOT
BRANCH   1  23
ATOM     15  C   UNL     1      -0.436   1.120  -0.249  0.00  0.00    +0.004 A 
ATOM     16  C   UNL     1       0.703   1.889  -0.099  0.00  0.00    +0.004 A 
ATOM     17  C   UNL     1       1.944   1.285  -0.031  0.00  0.00    +0.049 A 
ATOM     18  C   UNL     1       2.050  -0.096  -0.114  0.00  0.00    +0.163 A 
ATOM     19  C   UNL     1       0.905  -0.869  -0.263  0.00  0.00    +0.162 A 
ATOM     20  C   UNL     1      -0.337  -0.256  -0.332  0.00  0.00    +0.049 A 
ATOM     21  O   UNL     1       0.986  -2.226  -0.339  0.00  0.00    -0.484 OA
ATOM     22  C   UNL     1       2.272  -2.778  -0.641  0.00  0.00    +0.283 C 
ATOM     23  C   UNL     1       3.315  -2.078   0.240  0.00  0.00    +0.296 C 
ATOM     24  O   UNL     1       3.279  -0.676  -0.051  0.00  0.00    -0.473 OA
ENDBRANCH   1  23
BRANCH   5  25
ATOM     25  C   UNL     1       4.573  -7.282   1.511  0.00  0.00    +0.218 C 
ATOM     26  O   UNL     1       4.813  -6.998   2.666  0.00  0.00    -0.275 OA
ATOM     27  N   UNL     1       4.290  -8.556   1.175  0.00  0.00    -0.314 N 
ATOM     28  H   UNL     1       4.098  -8.783   0.251  0.00  0.00    +0.149 HD
BRANCH  27  29
ATOM     29  C   UNL     1       4.273  -9.599   2.204  0.00  0.00    +0.114 C 
BRANCH  29  30
ATOM     30  C   UNL     1       3.928 -10.944   1.561  0.00  0.00    +0.084 C 
BRANCH  30  31
ATOM     31  S   UNL     1       3.906 -12.235   2.835  0.00  0.00    -0.177 S 
ATOM     32  H   UNL     1       3.595 -13.355   2.158  0.00  0.00    +0.102 HD
ENDBRANCH  30  31
ENDBRANCH  29  30
ENDBRANCH  27  29
ENDBRANCH   5  25
TORSDOF 5
