REMARK  Name = ZINC38718884
REMARK  6 active torsions:
REMARK  status: ('A' for Active; 'I' for Inactive)
REMARK    1  A    between atoms: C_1  and  C_2
REMARK    2  A    between atoms: C_5  and  N_11
REMARK    3  A    between atoms: C_6  and  N_8
REMARK    4  A    between atoms: C_12  and  C_14
REMARK    5  A    between atoms: N_16  and  C_17
REMARK    6  A    between atoms: C_17  and  C_18
REMARK                            x       y       z     vdW  Elec       q    Type
REMARK                         _______ _______ _______ _____ _____    ______ ____
ROOT
ATOM      1  N   UNL     1       0.044  -3.995  -0.034  0.00  0.00    -0.276 N 
ATOM      2  C   UNL     1       0.519  -4.604  -1.139  0.00  0.00    +0.303 C 
ATOM      3  O   UNL     1       0.996  -3.944  -2.038  0.00  0.00    -0.265 OA
ATOM      4  H   UNL     1      -0.263  -4.525   0.718  0.00  0.00    +0.155 HD
ENDROOT
BRANCH   1   9
ATOM      5  C   UNL     1      -0.161   1.667   0.216  0.00  0.00    +0.044 C 
ATOM      6  C   UNL     1      -0.106   0.162   0.149  0.00  0.00    -0.048 A 
ATOM      7  C   UNL     1      -0.134  -0.475  -1.077  0.00  0.00    +0.005 A 
ATOM      8  C   UNL     1      -0.084  -1.854  -1.142  0.00  0.00    +0.026 A 
ATOM      9  C   UNL     1      -0.006  -2.600   0.027  0.00  0.00    +0.064 A 
ATOM     10  C   UNL     1       0.021  -1.956   1.258  0.00  0.00    +0.148 A 
ATOM     11  C   UNL     1      -0.024  -0.577   1.315  0.00  0.00    +0.038 A 
BRANCH  10  12
ATOM     12  N   UNL     1       0.104  -2.747   2.506  0.00  0.00    +0.058 N 
ATOM     13  O   UNL     1       0.032  -2.193   3.579  0.00  0.00    -0.126 OA
ATOM     14  O   UNL     1       0.244  -3.947   2.454  0.00  0.00    -0.126 OA
ENDBRANCH  10  12
ENDBRANCH   1   9
BRANCH   2  15
ATOM     15  C   UNL     1       0.457  -6.092  -1.256  0.00  0.00    +0.300 C 
ATOM     16  O   UNL     1      -0.020  -6.752  -0.357  0.00  0.00    -0.265 OA
ATOM     17  N   UNL     1       0.931  -6.701  -2.361  0.00  0.00    -0.299 N 
ATOM     18  H   UNL     1       1.313  -6.173  -3.080  0.00  0.00    +0.149 HD
BRANCH  17  19
ATOM     19  C   UNL     1       0.871  -8.160  -2.476  0.00  0.00    +0.217 C 
BRANCH  19  20
ATOM     20  C   UNL     1       1.471  -8.591  -3.816  0.00  0.00    +0.405 C 
ATOM     21  F   UNL     1       2.804  -8.173  -3.886  0.00  0.00    -0.169 F 
ATOM     22  F   UNL     1       1.413  -9.985  -3.925  0.00  0.00    -0.169 F 
ATOM     23  F   UNL     1       0.744  -8.011  -4.861  0.00  0.00    -0.169 F 
ENDBRANCH  19  20
ENDBRANCH  17  19
ENDBRANCH   2  15
TORSDOF 5
