REMARK  Name = ZINC12601020
REMARK  4 active torsions:
REMARK  status: ('A' for Active; 'I' for Inactive)
REMARK    1  A    between atoms: C_3  and  O_19
REMARK    2  A    between atoms: C_6  and  N_7
REMARK    3  A    between atoms: C_8  and  C_10
REMARK    4  A    between atoms: O_19  and  C_20
REMARK                            x       y       z     vdW  Elec       q    Type
REMARK                         _______ _______ _______ _____ _____    ______ ____
ROOT
ATOM      1  N   UNL     1      -1.200  -0.721   0.010  0.00  0.00    -0.280 N 
ATOM      2  C   UNL     1      -2.325  -0.154  -0.470  0.00  0.00    +0.267 C 
ATOM      3  O   UNL     1      -2.279   0.942  -0.991  0.00  0.00    -0.268 OA
ATOM      4  H   UNL     1      -1.223  -1.626   0.356  0.00  0.00    +0.155 HD
ENDROOT
BRANCH   2   5
ATOM      5  C   UNL     1      -3.622  -0.871  -0.361  0.00  0.00    +0.136 A 
ATOM      6  N   UNL     1      -3.677  -2.078   0.219  0.00  0.00    -0.188 NA
ATOM      7  C   UNL     1      -4.811  -2.732   0.328  0.00  0.00    +0.349 A 
ATOM      8  O   UNL     1      -4.817  -3.945   0.919  0.00  0.00    -0.245 OA
ATOM      9  N   UNL     1      -5.977  -2.217  -0.140  0.00  0.00    -0.274 N 
ATOM     10  C   UNL     1      -5.991  -1.005  -0.735  0.00  0.00    +0.255 A 
ATOM     11  O   UNL     1      -7.032  -0.532  -1.159  0.00  0.00    -0.268 OA
ATOM     12  C   UNL     1      -4.777  -0.293  -0.852  0.00  0.00    +0.103 A 
ATOM     13  H   UNL     1      -6.801  -2.720  -0.047  0.00  0.00    +0.173 HD
ENDBRANCH   2   5
BRANCH   1  19
ATOM     14  C   UNL     1      -0.013   1.374   0.194  0.00  0.00    +0.027 A 
ATOM     15  C   UNL     1       1.173   2.083   0.192  0.00  0.00    +0.049 A 
ATOM     16  C   UNL     1       2.377   1.421   0.003  0.00  0.00    +0.145 A 
ATOM     17  C   UNL     1       2.392   0.045  -0.185  0.00  0.00    +0.084 A 
ATOM     18  C   UNL     1       1.207  -0.665  -0.182  0.00  0.00    +0.047 A 
ATOM     19  C   UNL     1       0.001  -0.002   0.007  0.00  0.00    +0.035 A 
ATOM     20 CL   UNL     1       3.899  -0.782  -0.423  0.00  0.00    -0.080 Cl
BRANCH  16  21
ATOM     21  O   UNL     1       3.543   2.120   0.000  0.00  0.00    -0.433 OA
BRANCH  21  22
ATOM     22  C   UNL     1       3.454   3.533   0.198  0.00  0.00    +0.541 C 
ATOM     23  F   UNL     1       2.675   4.097  -0.818  0.00  0.00    -0.166 F 
ATOM     24  F   UNL     1       2.862   3.793   1.439  0.00  0.00    -0.166 F 
ENDBRANCH  21  22
ENDBRANCH  16  21
ENDBRANCH   1  19
TORSDOF 4
