REMARK  Name = ZINC39898034
REMARK  7 active torsions:
REMARK  status: ('A' for Active; 'I' for Inactive)
REMARK    1  A    between atoms: C_6  and  C_7
REMARK    2  A    between atoms: C_10  and  C_22
REMARK    3  A    between atoms: N_17  and  C_18
REMARK    4  A    between atoms: C_18  and  C_19
REMARK    5  A    between atoms: C_19  and  C_20
REMARK    6  A    between atoms: C_20  and  O_21
REMARK    7  A    between atoms: C_27  and  O_28
REMARK                            x       y       z     vdW  Elec       q    Type
REMARK                         _______ _______ _______ _____ _____    ______ ____
ROOT
ATOM      1  C   UNL     1      -0.810  -0.805  -0.160  0.00  0.00    +0.141 C 
ATOM      2  C   UNL     1      -1.452  -1.200  -1.462  0.00  0.00    +0.035 A 
ATOM      3  C   UNL     1      -1.978  -0.787  -2.691  0.00  0.00    +0.102 A 
ATOM      4  N   UNL     1      -2.384  -1.867  -3.329  0.00  0.00    -0.173 NA
ATOM      5  N   UNL     1      -2.166  -2.921  -2.626  0.00  0.00    -0.272 N 
ATOM      6  H   UNL     1      -2.384  -3.826  -2.897  0.00  0.00    +0.189 HD
ATOM      7  C   UNL     1      -1.583  -2.576  -1.440  0.00  0.00    +0.126 A 
ATOM      8  C   UNL     1      -1.046  -3.075  -0.169  0.00  0.00    +0.265 C 
ATOM      9  O   UNL     1      -1.014  -4.245   0.159  0.00  0.00    -0.268 OA
ATOM     10  N   UNL     1      -0.595  -2.053   0.584  0.00  0.00    -0.285 N 
ENDROOT
BRANCH   1  16
ATOM     11  C   UNL     1       0.650   1.227  -0.150  0.00  0.00    +0.007 A 
ATOM     12  C   UNL     1       1.858   1.856  -0.386  0.00  0.00    +0.022 A 
ATOM     13  C   UNL     1       2.925   1.135  -0.890  0.00  0.00    +0.059 A 
ATOM     14  C   UNL     1       2.783  -0.215  -1.159  0.00  0.00    +0.060 A 
ATOM     15  C   UNL     1       1.573  -0.843  -0.923  0.00  0.00    +0.027 A 
ATOM     16  C   UNL     1       0.507  -0.121  -0.418  0.00  0.00    -0.021 A 
ATOM     17 CL   UNL     1       4.121  -1.121  -1.793  0.00  0.00    -0.082 Cl
ATOM     18 CL   UNL     1       4.443   1.925  -1.187  0.00  0.00    -0.082 Cl
ENDBRANCH   1  16
BRANCH   3  19
ATOM     19  C   UNL     1      -2.065   0.610  -3.184  0.00  0.00    +0.045 A 
ATOM     20  C   UNL     1      -1.710   1.669  -2.352  0.00  0.00    +0.033 A 
ATOM     21  C   UNL     1      -1.792   2.967  -2.816  0.00  0.00    +0.042 A 
ATOM     22  C   UNL     1      -2.226   3.220  -4.107  0.00  0.00    +0.023 A 
ATOM     23  C   UNL     1      -2.581   2.175  -4.939  0.00  0.00    +0.047 A 
ATOM     24  C   UNL     1      -2.497   0.868  -4.488  0.00  0.00    +0.126 A 
ATOM     25 CL   UNL     1      -1.350   4.287  -1.778  0.00  0.00    -0.084 Cl
BRANCH  24  26
ATOM     26  O   UNL     1      -2.840  -0.160  -5.309  0.00  0.00    -0.506 OA
ATOM     27  H   UNL     1      -3.773  -0.407  -5.260  0.00  0.00    +0.292 HD
ENDBRANCH  24  26
ENDBRANCH   3  19
BRANCH  10  28
ATOM     28  C   UNL     1       0.008  -2.166   1.914  0.00  0.00    +0.111 C 
BRANCH  28  29
ATOM     29  C   UNL     1      -1.086  -2.071   2.979  0.00  0.00    +0.047 C 
BRANCH  29  30
ATOM     30  C   UNL     1      -0.457  -2.189   4.369  0.00  0.00    +0.157 C 
BRANCH  30  31
ATOM     31  O   UNL     1      -1.479  -2.101   5.364  0.00  0.00    -0.395 OA
ATOM     32  H   UNL     1      -1.151  -2.168   6.271  0.00  0.00    +0.209 HD
ENDBRANCH  30  31
ENDBRANCH  29  30
ENDBRANCH  28  29
ENDBRANCH  10  28
TORSDOF 7
