REMARK  Name = ZINC25886019
REMARK  7 active torsions:
REMARK  status: ('A' for Active; 'I' for Inactive)
REMARK    1  A    between atoms: C_1  and  C_2
REMARK    2  A    between atoms: C_4  and  C_8
REMARK    3  A    between atoms: C_5  and  C_7
REMARK    4  A    between atoms: C_10  and  C_18
REMARK    5  A    between atoms: C_12  and  C_17
REMARK    6  A    between atoms: N_20  and  C_21
REMARK    7  A    between atoms: C_24  and  N_27
REMARK                            x       y       z     vdW  Elec       q    Type
REMARK                         _______ _______ _______ _____ _____    ______ ____
ROOT
ATOM      1  C   UNL     1      -8.485   5.154  -2.180  0.00  0.00    +0.079 A 
ATOM      2  C   UNL     1      -7.282   4.476  -1.959  0.00  0.00    +0.042 A 
ATOM      3  C   UNL     1      -6.090   5.193  -1.964  0.00  0.00    +0.053 A 
ATOM      4  C   UNL     1      -6.157   6.585  -2.188  0.00  0.00    +0.076 A 
ATOM      5  C   UNL     1      -5.157   7.648  -2.259  0.00  0.00    +0.091 A 
ATOM      6  N   UNL     1      -5.789   8.758  -2.493  0.00  0.00    -0.080 NA
ATOM      7  O   UNL     1      -7.175   8.505  -2.597  0.00  0.00    -0.334 OA
ATOM      8  C   UNL     1      -7.406   7.190  -2.408  0.00  0.00    +0.260 A 
ATOM      9  N   UNL     1      -8.511   6.461  -2.393  0.00  0.00    -0.210 NA
ATOM     10  C   UNL     1      -3.668   7.486  -2.091  0.00  0.00    +0.070 C 
ENDROOT
BRANCH   1  14
ATOM     11  C   UNL     1     -11.911   1.376  -1.887  0.00  0.00    +0.086 C 
ATOM     12  C   UNL     1     -11.248   2.720  -2.043  0.00  0.00    +0.103 A 
ATOM     13  C   UNL     1      -9.928   2.954  -1.959  0.00  0.00    +0.054 A 
ATOM     14  C   UNL     1      -9.757   4.395  -2.176  0.00  0.00    +0.041 A 
ATOM     15  C   UNL     1     -11.009   4.891  -2.367  0.00  0.00    +0.111 A 
ATOM     16  O   UNL     1     -11.882   3.877  -2.289  0.00  0.00    -0.464 OA
ATOM     17  C   UNL     1     -11.356   6.334  -2.625  0.00  0.00    +0.087 C 
ENDBRANCH   1  14
BRANCH   3  18
ATOM     18  C   UNL     1      -4.794   4.518  -1.734  0.00  0.00    +0.249 C 
ATOM     19  O   UNL     1      -3.798   4.900  -2.319  0.00  0.00    -0.270 OA
ATOM     20  N   UNL     1      -4.716   3.481  -0.878  0.00  0.00    -0.281 N 
ATOM     21  H   UNL     1      -5.599   3.183  -0.294  0.00  0.00    +0.155 HD
BRANCH  20  22
ATOM     22  C   UNL     1      -3.512   2.783  -0.731  0.00  0.00    +0.034 A 
ATOM     23  C   UNL     1      -3.198   2.187   0.484  0.00  0.00    +0.025 A 
ATOM     24  C   UNL     1      -2.010   1.498   0.628  0.00  0.00    +0.025 A 
ATOM     25  C   UNL     1      -1.129   1.401  -0.441  0.00  0.00    +0.035 A 
ATOM     26  C   UNL     1      -1.441   2.001  -1.654  0.00  0.00    +0.025 A 
ATOM     27  C   UNL     1      -2.631   2.685  -1.800  0.00  0.00    +0.025 A 
BRANCH  25  28
ATOM     28  N   UNL     1       0.075   0.701  -0.295  0.00  0.00    -0.270 N 
ATOM     29  C   UNL     1       0.631   0.085  -1.357  0.00  0.00    +0.301 C 
ATOM     30  O   UNL     1       0.048   0.070  -2.424  0.00  0.00    -0.253 OA
ATOM     31  N   UNL     1       1.832  -0.514  -1.237  0.00  0.00    -0.313 N 
ATOM     32  H   UNL     1       0.569   0.654   0.687  0.00  0.00    +0.156 HD
ATOM     33  H   UNL     1       2.285  -1.017  -2.105  0.00  0.00    +0.146 HD
ATOM     34  H   UNL     1       2.360  -0.500  -0.272  0.00  0.00    +0.146 HD
ENDBRANCH  25  28
ENDBRANCH  20  22
ENDBRANCH   3  18
TORSDOF 4
