REMARK  Name = ZINC59282960
REMARK  3 active torsions:
REMARK  status: ('A' for Active; 'I' for Inactive)
REMARK    1  A    between atoms: C_1  and  C_2
REMARK    2  A    between atoms: C_9  and  C_11
REMARK    3  A    between atoms: C_11  and  C_12
REMARK                            x       y       z     vdW  Elec       q    Type
REMARK                         _______ _______ _______ _____ _____    ______ ____
ROOT
ATOM      1  C   UNL     1       2.232  -0.133   3.120  0.00  0.00    +0.124 C 
ENDROOT
BRANCH   1   9
ATOM      2  C   UNL     1       0.008   1.528  -0.006  0.00  0.00    +0.028 C 
ATOM      3  C   UNL     1       0.016  -0.002  -0.007  0.00  0.00    +0.073 C 
ATOM      4  C   UNL     1       0.633  -0.512  -1.313  0.00  0.00    +0.022 C 
ATOM      5  C   UNL     1       0.765  -2.035  -1.250  0.00  0.00    +0.003 C 
ATOM      6  C   UNL     1       1.692  -2.421  -0.095  0.00  0.00    +0.019 C 
ATOM      7  C   UNL     1       1.087  -1.933   1.225  0.00  0.00    +0.108 C 
ATOM      8  N   UNL     1       0.819  -0.492   1.122  0.00  0.00    -0.299 N 
ATOM      9  C   UNL     1       1.304   0.365   2.042  0.00  0.00    +0.218 C 
ATOM     10  O   UNL     1       0.994   1.537   2.003  0.00  0.00    -0.276 OA
ENDBRANCH   1   9
BRANCH   1  11
ATOM     11  C   UNL     1       2.633   1.033   4.026  0.00  0.00    +0.149 C 
ATOM     12  C   UNL     1       3.656   0.562   5.021  0.00  0.00    +0.231 C 
ATOM     13  O   UNL     1       4.550  -0.163   4.637  0.00  0.00    -0.274 OA
ATOM     14  N   UNL     1       3.623   0.909   6.312  0.00  0.00    -0.313 N 
ATOM     15  C   UNL     1       2.571   1.746   6.882  0.00  0.00    +0.119 C 
ATOM     16  C   UNL     1       1.839   2.498   5.769  0.00  0.00    +0.100 C 
ATOM     17  N   UNL     1       1.445   1.534   4.730  0.00  0.00    -0.304 NA
ATOM     18  H   UNL     1       4.329   0.589   6.896  0.00  0.00    +0.149 HD
ATOM     19  H   UNL     1       0.789   1.948   4.084  0.00  0.00    +0.123 HD
ENDBRANCH   1  11
TORSDOF 2
