REMARK  Name = ZINC40824368
REMARK  6 active torsions:
REMARK  status: ('A' for Active; 'I' for Inactive)
REMARK    1  A    between atoms: C_1  and  C_2
REMARK    2  A    between atoms: C_6  and  C_7
REMARK    3  A    between atoms: N_9  and  C_10
REMARK    4  A    between atoms: C_13  and  N_16
REMARK    5  A    between atoms: N_17  and  C_18
REMARK    6  A    between atoms: N_28  and  N_29
REMARK                            x       y       z     vdW  Elec       q    Type
REMARK                         _______ _______ _______ _____ _____    ______ ____
ROOT
ATOM      1  C   UNL     1      -0.012   1.502   0.010  0.00  0.00    +0.048 C 
ATOM      2  C   UNL     1      -0.003  -0.005   0.002  0.00  0.00    +0.009 A 
ATOM      3  C   UNL     1      -0.007  -0.839  -1.122  0.00  0.00    +0.042 A 
ATOM      4  C   UNL     1       0.004  -2.138  -0.672  0.00  0.00    +0.115 A 
ATOM      5  O   UNL     1       0.018  -2.112   0.658  0.00  0.00    -0.454 OA
ATOM      6  C   UNL     1       0.018  -0.831   1.091  0.00  0.00    +0.193 A 
ATOM      7  C   UNL     1      -0.002  -3.327  -1.599  0.00  0.00    +0.075 C 
ATOM      8  C   UNL     1      -0.530  -2.900  -2.971  0.00  0.00    +0.014 C 
ATOM      9  C   UNL     1       0.247  -1.688  -3.496  0.00  0.00    +0.058 C 
ATOM     10  C   UNL     1      -0.019  -0.513  -2.566  0.00  0.00    +0.070 C 
ATOM     11  N   UNL     1      -0.240   0.686  -3.007  0.00  0.00    -0.183 NA
ENDROOT
BRANCH  11  12
ATOM     12  N   UNL     1      -0.240   0.938  -4.385  0.00  0.00    -0.191 N 
ATOM     13  C   UNL     1      -0.470   2.184  -4.843  0.00  0.00    +0.317 C 
ATOM     14  O   UNL     1      -0.470   2.402  -6.040  0.00  0.00    -0.251 OA
ATOM     15  N   UNL     1      -0.701   3.189  -3.975  0.00  0.00    -0.312 N 
ATOM     16  H   UNL     1      -0.074   0.214  -5.010  0.00  0.00    +0.179 HD
ATOM     17  H   UNL     1      -0.701   3.015  -3.021  0.00  0.00    +0.147 HD
ATOM     18  H   UNL     1      -0.867   4.086  -4.305  0.00  0.00    +0.147 HD
ENDBRANCH  11  12
BRANCH   6  19
ATOM     19  C   UNL     1       0.034  -0.400   2.493  0.00  0.00    +0.284 C 
ATOM     20  O   UNL     1       0.029   0.786   2.765  0.00  0.00    -0.266 OA
ATOM     21  N   UNL     1       0.054  -1.318   3.480  0.00  0.00    -0.279 N 
ATOM     22  H   UNL     1      -0.010  -2.262   3.266  0.00  0.00    +0.155 HD
BRANCH  21  23
ATOM     23  C   UNL     1       0.166  -0.910   4.809  0.00  0.00    +0.034 A 
ATOM     24  C   UNL     1      -0.446   0.268   5.228  0.00  0.00    +0.025 A 
ATOM     25  C   UNL     1      -0.337   0.673   6.539  0.00  0.00    +0.031 A 
ATOM     26  C   UNL     1       0.389  -0.100   7.450  0.00  0.00    +0.086 A 
ATOM     27  C   UNL     1       1.002  -1.284   7.026  0.00  0.00    +0.031 A 
ATOM     28  C   UNL     1       0.884  -1.686   5.714  0.00  0.00    +0.025 A 
BRANCH  26  29
ATOM     29  N   UNL     1       0.499   0.299   8.751  0.00  0.00    -0.149 NA
ATOM     30  N   UNL     1       1.169  -0.416   9.590  0.00  0.00    -0.149 NA
BRANCH  30  31
ATOM     31  C   UNL     1       1.279  -0.016  10.893  0.00  0.00    +0.086 A 
ATOM     32  C   UNL     1       0.663   1.163  11.320  0.00  0.00    +0.029 A 
ATOM     33  C   UNL     1       0.778   1.559  12.636  0.00  0.00    +0.002 A 
ATOM     34  C   UNL     1       1.502   0.793  13.533  0.00  0.00    +0.000 A 
ATOM     35  C   UNL     1       2.115  -0.376  13.117  0.00  0.00    +0.002 A 
ATOM     36  C   UNL     1       2.004  -0.788  11.805  0.00  0.00    +0.029 A 
ENDBRANCH  30  31
ENDBRANCH  26  29
ENDBRANCH  21  23
ENDBRANCH   6  19
TORSDOF 5
