REMARK  Name = ZINC67519195
REMARK  14 active torsions:
REMARK  status: ('A' for Active; 'I' for Inactive)
REMARK    1  A    between atoms: C_1  and  C_2
REMARK    2  A    between atoms: C_2  and  C_3
REMARK    3  A    between atoms: C_2  and  C_4
REMARK    4  A    between atoms: C_4  and  O_5
REMARK    5  A    between atoms: O_5  and  C_6
REMARK    6  A    between atoms: N_8  and  C_9
REMARK    7  A    between atoms: C_13  and  N_15
REMARK    8  A    between atoms: C_16  and  C_18
REMARK    9  A    between atoms: C_18  and  C_19
REMARK   10  A    between atoms: C_19  and  N_20
REMARK   11  A    between atoms: C_21  and  C_23
REMARK   12  A    between atoms: C_23  and  C_24
REMARK   13  A    between atoms: C_23  and  C_25
REMARK   14  A    between atoms: C_23  and  C_26
REMARK                            x       y       z     vdW  Elec       q    Type
REMARK                         _______ _______ _______ _____ _____    ______ ____
ROOT
ATOM      1  C   UNL     1      -3.880  -4.628  -0.147  0.00  0.00    +0.038 A 
ATOM      2  C   UNL     1      -5.085  -3.944  -0.041  0.00  0.00    +0.023 A 
ATOM      3  C   UNL     1      -6.273  -4.644   0.038  0.00  0.00    +0.004 A 
ATOM      4  C   UNL     1      -6.268  -6.025   0.011  0.00  0.00    +0.023 A 
ATOM      5  C   UNL     1      -5.067  -6.715  -0.095  0.00  0.00    +0.035 A 
ATOM      6  C   UNL     1      -3.872  -6.014  -0.179  0.00  0.00    +0.046 A 
ENDROOT
BRANCH   1   9
ATOM      7  C   UNL     1      -2.526  -2.768   0.461  0.00  0.00    +0.405 C 
ATOM      8  O   UNL     1      -3.461  -2.304   1.082  0.00  0.00    -0.226 OA
ATOM      9  N   UNL     1      -2.677  -3.918  -0.226  0.00  0.00    -0.251 N 
ATOM     10  H   UNL     1      -1.951  -4.253  -0.776  0.00  0.00    +0.158 HD
BRANCH   7  11
ATOM     11  O   UNL     1      -1.338  -2.134   0.460  0.00  0.00    -0.450 OA
BRANCH  11  12
ATOM     12  C   UNL     1      -1.249  -0.921   1.209  0.00  0.00    +0.236 C 
BRANCH  12  14
ATOM     13  C   UNL     1       0.226   1.011   1.788  0.00  0.00    +0.010 C 
ATOM     14  C   UNL     1       0.165  -0.349   1.089  0.00  0.00    +0.021 C 
ATOM     15  C   UNL     1       1.160  -1.306   1.749  0.00  0.00    +0.010 C 
ENDBRANCH  12  14
ENDBRANCH  11  12
ENDBRANCH   7  11
ENDBRANCH   1   9
BRANCH   5  16
ATOM     16  N   UNL     1      -5.062  -8.114  -0.121  0.00  0.00    -0.285 N 
ATOM     17  C   UNL     1      -6.064  -8.780  -0.730  0.00  0.00    +0.219 C 
ATOM     18  O   UNL     1      -7.011  -8.171  -1.181  0.00  0.00    -0.275 OA
ATOM     19  H   UNL     1      -4.338  -8.604   0.298  0.00  0.00    +0.155 HD
BRANCH  17  20
ATOM     20  C   UNL     1      -6.007 -10.281  -0.850  0.00  0.00    +0.115 C 
BRANCH  20  21
ATOM     21  C   UNL     1      -7.257 -10.782  -1.576  0.00  0.00    +0.113 C 
BRANCH  21  22
ATOM     22  N   UNL     1      -7.201 -12.241  -1.693  0.00  0.00    -0.314 N 
ATOM     23  C   UNL     1      -8.203 -12.907  -2.301  0.00  0.00    +0.218 C 
ATOM     24  O   UNL     1      -9.150 -12.298  -2.752  0.00  0.00    -0.275 OA
ATOM     25  H   UNL     1      -6.444 -12.728  -1.332  0.00  0.00    +0.149 HD
BRANCH  23  26
ATOM     26  C   UNL     1      -8.146 -14.408  -2.421  0.00  0.00    +0.039 C 
ATOM     27  C   UNL     1      -9.396 -14.909  -3.148  0.00  0.00    +0.020 C 
ATOM     28  C   UNL     1      -6.900 -14.809  -3.214  0.00  0.00    +0.020 C 
ATOM     29  C   UNL     1      -8.084 -15.030  -1.025  0.00  0.00    +0.020 C 
ENDBRANCH  23  26
ENDBRANCH  21  22
ENDBRANCH  20  21
ENDBRANCH  17  20
ENDBRANCH   5  16
TORSDOF 9
