REMARK  Name = ZINC05955481
REMARK  5 active torsions:
REMARK  status: ('A' for Active; 'I' for Inactive)
REMARK    1  A    between atoms: C_3  and  C_26
REMARK    2  A    between atoms: C_5  and  S_7
REMARK    3  A    between atoms: S_7  and  N_10
REMARK    4  A    between atoms: N_10  and  N_11
REMARK    5  A    between atoms: C_12  and  C_18
REMARK                            x       y       z     vdW  Elec       q    Type
REMARK                         _______ _______ _______ _____ _____    ______ ____
ROOT
ATOM      1  N   UNL     1       3.877   6.103  -1.476  0.00  0.00    -0.104 NA
ATOM      2  H   UNL     1       4.720   5.661  -1.665  0.00  0.00    +0.172 HD
ENDROOT
BRANCH   1   3
ATOM      3  N   UNL     1       3.274   6.906  -2.453  0.00  0.00    -0.199 N 
ATOM      4  C   UNL     1       3.753   8.281  -2.689  0.00  0.00    +0.184 C 
ATOM      5  S   UNL     1       2.365   8.982  -3.681  0.00  0.00    -0.123 S 
ATOM      6  C   UNL     1       1.653   7.366  -4.215  0.00  0.00    +0.168 C 
ATOM      7  C   UNL     1       2.268   6.436  -3.180  0.00  0.00    +0.242 C 
ATOM      8  O   UNL     1       1.851   5.308  -3.022  0.00  0.00    -0.273 OA
BRANCH   4   9
ATOM      9  C   UNL     1       3.921   9.026  -1.391  0.00  0.00    +0.003 A 
ATOM     10  C   UNL     1       2.811   9.497  -0.715  0.00  0.00    +0.009 A 
ATOM     11  C   UNL     1       2.964  10.176   0.479  0.00  0.00    +0.020 A 
ATOM     12  C   UNL     1       4.230  10.395   0.993  0.00  0.00    +0.042 A 
ATOM     13  C   UNL     1       5.341   9.929   0.315  0.00  0.00    +0.040 A 
ATOM     14  C   UNL     1       5.187   9.244  -0.877  0.00  0.00    +0.048 A 
ATOM     15 CL   UNL     1       6.582   8.659  -1.729  0.00  0.00    -0.083 Cl
ATOM     16 CL   UNL     1       4.422  11.253   2.490  0.00  0.00    -0.083 Cl
ENDBRANCH   4   9
ENDBRANCH   1   3
BRANCH   1  17
ATOM     17  S   UNL     1       3.152   5.909  -0.000  0.00  0.00    +0.074 S 
ATOM     18  O   UNL     1       3.032   7.207   0.567  0.00  0.00    -0.152 OA
ATOM     19  O   UNL     1       3.841   4.853   0.655  0.00  0.00    -0.152 OA
BRANCH  17  24
ATOM     20  C   UNL     1      -0.808   5.801  -0.689  0.00  0.00    +0.003 A 
ATOM     21  C   UNL     1      -1.074   4.450  -0.769  0.00  0.00    +0.015 A 
ATOM     22  C   UNL     1      -0.039   3.527  -0.605  0.00  0.00    +0.065 A 
ATOM     23  C   UNL     1       1.261   3.981  -0.370  0.00  0.00    +0.043 A 
ATOM     24  C   UNL     1       1.513   5.335  -0.296  0.00  0.00    +0.108 A 
ATOM     25  C   UNL     1       0.481   6.244  -0.455  0.00  0.00    +0.028 A 
BRANCH  22  26
ATOM     26  C   UNL     1      -0.316   2.079  -0.685  0.00  0.00    +0.387 C 
ATOM     27  O   UNL     1       0.588   1.279  -0.547  0.00  0.00    -0.241 OA
ATOM     28  O   UNL     1      -1.571   1.645  -0.912  0.00  0.00    -0.241 OA
ENDBRANCH  22  26
ENDBRANCH  17  24
ENDBRANCH   1  17
TORSDOF 5
