REMARK  Name = ZINC00641187
REMARK  10 active torsions:
REMARK  status: ('A' for Active; 'I' for Inactive)
REMARK    1  A    between atoms: C_1  and  C_2
REMARK    2  A    between atoms: C_2  and  O_3
REMARK    3  A    between atoms: O_3  and  C_4
REMARK    4  A    between atoms: C_9  and  N_10
REMARK    5  A    between atoms: C_11  and  C_13
REMARK    6  A    between atoms: C_14  and  C_30
REMARK    7  A    between atoms: C_19  and  C_21
REMARK    8  A    between atoms: C_24  and  C_27
REMARK    9  A    between atoms: C_27  and  C_28
REMARK   10  A    between atoms: C_27  and  C_29
REMARK                            x       y       z     vdW  Elec       q    Type
REMARK                         _______ _______ _______ _____ _____    ______ ____
ROOT
ATOM      1  C   UNL     1      -1.487   2.537  -1.246  0.00  0.00    +0.056 C 
ATOM      2  C   UNL     1      -1.734   3.859  -1.363  0.00  0.00    +0.017 C 
ATOM      3  N   UNL     1      -1.652   4.690  -0.282  0.00  0.00    -0.300 N 
ATOM      4  C   UNL     1      -1.329   4.276   0.950  0.00  0.00    +0.135 C 
ATOM      5  S   UNL     1      -1.262   5.424   2.218  0.00  0.00    -0.019 S 
ATOM      6  N   UNL     1      -1.054   2.985   1.223  0.00  0.00    -0.315 N 
ATOM      7  C   UNL     1      -1.116   2.007   0.124  0.00  0.00    +0.139 C 
ATOM      8  C   UNL     1      -2.108   4.427  -2.708  0.00  0.00    +0.061 C 
ATOM      9  H   UNL     1      -1.839   5.632  -0.414  0.00  0.00    +0.154 HD
ATOM     10  H   UNL     1      -0.822   2.707   2.123  0.00  0.00    +0.149 HD
ENDROOT
BRANCH   7  11
ATOM     11  C   UNL     1       0.234   1.345   0.016  0.00  0.00    -0.023 A 
ATOM     12  C   UNL     1       1.375   2.116  -0.106  0.00  0.00    +0.006 A 
ATOM     13  C   UNL     1       2.612   1.508  -0.212  0.00  0.00    +0.004 A 
ATOM     14  C   UNL     1       2.708   0.130  -0.195  0.00  0.00    -0.045 A 
ATOM     15  C   UNL     1       1.567  -0.642  -0.073  0.00  0.00    +0.004 A 
ATOM     16  C   UNL     1       0.330  -0.034   0.032  0.00  0.00    +0.006 A 
BRANCH  14  17
ATOM     17  C   UNL     1       4.057  -0.533  -0.311  0.00  0.00    +0.013 C 
ATOM     18  C   UNL     1       4.710  -0.132  -1.635  0.00  0.00    +0.012 C 
ATOM     19  C   UNL     1       4.945  -0.087   0.852  0.00  0.00    +0.012 C 
ENDBRANCH  14  17
ENDBRANCH   7  11
BRANCH   1  21
ATOM     20  N   UNL     1      -0.606   1.694  -3.306  0.00  0.00    -0.279 N 
ATOM     21  C   UNL     1      -1.572   1.675  -2.367  0.00  0.00    +0.248 C 
ATOM     22  O   UNL     1      -2.517   0.916  -2.481  0.00  0.00    -0.270 OA
ATOM     23  H   UNL     1       0.130   2.321  -3.232  0.00  0.00    +0.155 HD
BRANCH  20  29
ATOM     24  C   UNL     1       0.486   0.522  -5.122  0.00  0.00    +0.142 A 
ATOM     25  C   UNL     1       0.422  -0.359  -6.189  0.00  0.00    +0.047 A 
ATOM     26  C   UNL     1      -0.782  -0.945  -6.532  0.00  0.00    +0.004 A 
ATOM     27  C   UNL     1      -1.925  -0.658  -5.809  0.00  0.00    +0.002 A 
ATOM     28  C   UNL     1      -1.870   0.216  -4.739  0.00  0.00    +0.027 A 
ATOM     29  C   UNL     1      -0.665   0.808  -4.389  0.00  0.00    +0.076 A 
BRANCH  24  30
ATOM     30  O   UNL     1       1.669   1.103  -4.787  0.00  0.00    -0.490 OA
BRANCH  30  32
ATOM     31  C   UNL     1       4.035   1.509  -5.058  0.00  0.00    +0.048 C 
ATOM     32  C   UNL     1       2.806   0.764  -5.582  0.00  0.00    +0.226 C 
ENDBRANCH  30  32
ENDBRANCH  24  30
ENDBRANCH  20  29
ENDBRANCH   1  21
TORSDOF 6
