REMARK  Name = ZINC00809159
REMARK  5 active torsions:
REMARK  status: ('A' for Active; 'I' for Inactive)
REMARK    1  A    between atoms: C_1  and  C_2
REMARK    2  A    between atoms: C_4  and  C_11
REMARK    3  A    between atoms: C_7  and  N_8
REMARK    4  A    between atoms: N_13  and  C_14
REMARK    5  A    between atoms: C_18  and  C_20
REMARK                            x       y       z     vdW  Elec       q    Type
REMARK                         _______ _______ _______ _____ _____    ______ ____
ROOT
ATOM      1  C   UNL     1       0.626   3.619   0.112  0.00  0.00    +0.034 A 
ATOM      2  C   UNL     1      -0.684   4.068  -0.004  0.00  0.00    +0.023 A 
ATOM      3  C   UNL     1      -0.960   5.422   0.021  0.00  0.00    +0.002 A 
ATOM      4  C   UNL     1       0.066   6.337   0.150  0.00  0.00    +0.009 A 
ATOM      5  C   UNL     1       1.384   5.896   0.261  0.00  0.00    -0.009 A 
ATOM      6  C   UNL     1       1.662   4.531   0.242  0.00  0.00    +0.032 A 
ENDROOT
BRANCH   5   7
ATOM      7  C   UNL     1       2.486   6.877   0.400  0.00  0.00    +0.067 A 
ATOM      8  C   UNL     1       2.588   7.935  -0.463  0.00  0.00    +0.027 A 
ATOM      9  C   UNL     1       3.696   8.874  -0.281  0.00  0.00    +0.018 A 
ATOM     10  C   UNL     1       3.846   9.973  -1.136  0.00  0.00    +0.011 A 
ATOM     11  C   UNL     1       4.885  10.840  -0.952  0.00  0.00    +0.001 A 
ATOM     12  C   UNL     1       5.794  10.640   0.076  0.00  0.00    +0.004 A 
ATOM     13  C   UNL     1       5.665   9.564   0.930  0.00  0.00    +0.047 A 
ATOM     14  C   UNL     1       4.615   8.668   0.763  0.00  0.00    +0.139 A 
ATOM     15  O   UNL     1       4.485   7.613   1.595  0.00  0.00    -0.422 OA
ATOM     16  C   UNL     1       3.481   6.732   1.467  0.00  0.00    +0.345 A 
ATOM     17  O   UNL     1       3.398   5.798   2.243  0.00  0.00    -0.245 OA
ENDBRANCH   5   7
BRANCH   1  20
ATOM     18  C   UNL     1       0.031   1.379   0.646  0.00  0.00    +0.248 C 
ATOM     19  O   UNL     1      -0.941   1.792   1.248  0.00  0.00    -0.270 OA
ATOM     20  N   UNL     1       0.900   2.247   0.092  0.00  0.00    -0.281 N 
ATOM     21  H   UNL     1       1.715   1.921  -0.320  0.00  0.00    +0.155 HD
BRANCH  18  25
ATOM     22  C   UNL     1      -1.395  -3.311   1.580  0.00  0.00    +0.046 C 
ATOM     23  C   UNL     1      -0.426  -2.336   0.963  0.00  0.00    -0.020 A 
ATOM     24  C   UNL     1      -0.642  -0.979   1.088  0.00  0.00    +0.018 A 
ATOM     25  C   UNL     1       0.256  -0.076   0.516  0.00  0.00    +0.037 A 
ATOM     26  C   UNL     1       1.365  -0.554  -0.185  0.00  0.00    +0.015 A 
ATOM     27  C   UNL     1       1.572  -1.913  -0.299  0.00  0.00    +0.034 A 
ATOM     28  C   UNL     1       0.678  -2.802   0.272  0.00  0.00    +0.129 A 
BRANCH  28  29
ATOM     29  N   UNL     1       0.903  -4.260   0.141  0.00  0.00    +0.057 N 
ATOM     30  O   UNL     1       2.037  -4.704   0.159  0.00  0.00    -0.126 OA
ATOM     31  O   UNL     1      -0.045  -5.014   0.016  0.00  0.00    -0.126 OA
ENDBRANCH  28  29
ENDBRANCH  18  25
ENDBRANCH   1  20
TORSDOF 4
