REMARK  Name = ZINC58161915
REMARK  13 active torsions:
REMARK  status: ('A' for Active; 'I' for Inactive)
REMARK    1  A    between atoms: C_1  and  C_2
REMARK    2  A    between atoms: C_2  and  C_4
REMARK    3  A    between atoms: C_2  and  N_14
REMARK    4  A    between atoms: N_9  and  C_10
REMARK    5  A    between atoms: C_10  and  C_11
REMARK    6  A    between atoms: C_10  and  C_12
REMARK    7  A    between atoms: C_10  and  C_13
REMARK    8  A    between atoms: N_14  and  C_15
REMARK    9  A    between atoms: C_20  and  O_21
REMARK   10  A    between atoms: O_21  and  C_22
REMARK   11  A    between atoms: C_22  and  C_23
REMARK   12  A    between atoms: C_23  and  O_24
REMARK   13  A    between atoms: O_24  and  C_25
REMARK                            x       y       z     vdW  Elec       q    Type
REMARK                         _______ _______ _______ _____ _____    ______ ____
ROOT
ATOM      1  C   UNL     1      -0.019   1.526   0.010  0.00  0.00    +0.038 C 
ATOM      2  C   UNL     1       0.002  -0.004   0.002  0.00  0.00    +0.154 C 
ENDROOT
BRANCH   2   3
ATOM      3  C   UNL     1      -1.412  -0.526   0.013  0.00  0.00    +0.240 C 
ATOM      4  O   UNL     1      -1.790  -1.233   0.922  0.00  0.00    -0.273 OA
ATOM      5  N   UNL     1      -2.256  -0.206  -0.988  0.00  0.00    -0.239 N 
ATOM      6  C   UNL     1      -3.520  -0.672  -0.979  0.00  0.00    +0.306 C 
ATOM      7  O   UNL     1      -3.899  -1.381  -0.067  0.00  0.00    -0.252 OA
ATOM      8  N   UNL     1      -4.364  -0.353  -1.980  0.00  0.00    -0.294 N 
ATOM      9  H   UNL     1      -1.953   0.360  -1.716  0.00  0.00    +0.159 HD
ATOM     10  H   UNL     1      -4.061   0.213  -2.707  0.00  0.00    +0.151 HD
BRANCH   8  11
ATOM     11  C   UNL     1      -5.738  -0.860  -1.970  0.00  0.00    +0.028 C 
ATOM     12  C   UNL     1      -6.454  -0.366  -0.711  0.00  0.00    +0.031 C 
ATOM     13  C   UNL     1      -6.478  -0.353  -3.209  0.00  0.00    +0.031 C 
ATOM     14  C   UNL     1      -5.718  -2.390  -1.978  0.00  0.00    +0.031 C 
ENDBRANCH   8  11
ENDBRANCH   2   3
BRANCH   2  15
ATOM     15  N   UNL     1       0.711  -0.489   1.189  0.00  0.00    -0.330 N 
ATOM     16  H   UNL     1       0.213  -0.731   1.986  0.00  0.00    +0.147 HD
BRANCH  15  17
ATOM     17  C   UNL     1       2.106  -0.604   1.173  0.00  0.00    +0.070 A 
ATOM     18  C   UNL     1       2.819  -0.253   0.036  0.00  0.00    +0.026 A 
ATOM     19  C   UNL     1       4.197  -0.367   0.024  0.00  0.00    +0.002 A 
ATOM     20  C   UNL     1       4.866  -0.830   1.141  0.00  0.00    +0.004 A 
ATOM     21  C   UNL     1       4.161  -1.181   2.278  0.00  0.00    +0.047 A 
ATOM     22  C   UNL     1       2.781  -1.065   2.301  0.00  0.00    +0.141 A 
BRANCH  22  23
ATOM     23  O   UNL     1       2.087  -1.406   3.420  0.00  0.00    -0.488 OA
BRANCH  23  24
ATOM     24  C   UNL     1       2.846  -1.871   4.538  0.00  0.00    +0.257 C 
BRANCH  24  25
ATOM     25  C   UNL     1       1.900  -2.203   5.694  0.00  0.00    +0.200 C 
BRANCH  25  26
ATOM     26  O   UNL     1       1.062  -3.300   5.323  0.00  0.00    -0.380 OA
ATOM     27  C   UNL     1       0.136  -3.692   6.338  0.00  0.00    +0.194 C 
ENDBRANCH  25  26
ENDBRANCH  24  25
ENDBRANCH  23  24
ENDBRANCH  22  23
ENDBRANCH  15  17
ENDBRANCH   2  15
TORSDOF 8
