REMARK  Name = ZINC04563204
REMARK  5 active torsions:
REMARK  status: ('A' for Active; 'I' for Inactive)
REMARK    1  A    between atoms: C_1  and  C_2
REMARK    2  A    between atoms: C_7  and  N_12
REMARK    3  A    between atoms: C_9  and  C_11
REMARK    4  A    between atoms: C_13  and  C_15
REMARK    5  A    between atoms: C_15  and  N_16
REMARK                            x       y       z     vdW  Elec       q    Type
REMARK                         _______ _______ _______ _____ _____    ______ ____
ROOT
ATOM      1  N   UNL     1       4.073   4.664  -1.680  0.00  0.00    -0.311 N 
ATOM      2  C   UNL     1       2.900   4.051  -1.425  0.00  0.00    +0.233 C 
ATOM      3  O   UNL     1       2.192   3.691  -2.342  0.00  0.00    -0.274 OA
ATOM      4  H   UNL     1       4.639   4.952  -0.947  0.00  0.00    +0.149 HD
ENDROOT
BRANCH   1  10
ATOM      5  C   UNL     1       4.664   6.632  -5.419  0.00  0.00    +0.008 C 
ATOM      6  C   UNL     1       5.892   6.330  -4.558  0.00  0.00    -0.009 C 
ATOM      7  C   UNL     1       6.596   5.082  -5.095  0.00  0.00    +0.003 C 
ATOM      8  C   UNL     1       5.634   3.893  -5.046  0.00  0.00    +0.002 C 
ATOM      9  C   UNL     1       5.197   3.650  -3.601  0.00  0.00    +0.022 C 
ATOM     10  C   UNL     1       4.492   4.897  -3.064  0.00  0.00    +0.076 C 
ATOM     11  C   UNL     1       5.454   6.086  -3.112  0.00  0.00    +0.009 C 
ATOM     12  C   UNL     1       4.750   7.334  -2.576  0.00  0.00    +0.009 C 
ENDBRANCH   1  10
BRANCH   2  13
ATOM     13  C   UNL     1       2.469   3.811  -0.002  0.00  0.00    +0.220 C 
BRANCH  13  14
ATOM     14  N   UNL     1       1.170   3.134   0.008  0.00  0.00    -0.306 N 
ATOM     15  C   UNL     1       1.138   1.769   0.001  0.00  0.00    +0.090 A 
ATOM     16  C   UNL     1      -0.013   1.076   0.008  0.00  0.00    +0.026 A 
ATOM     17  C   UNL     1      -1.286   1.797   0.018  0.00  0.00    -0.011 A 
ATOM     18  C   UNL     1      -2.513   1.132   0.033  0.00  0.00    +0.009 A 
ATOM     19  C   UNL     1      -3.672   1.858   0.049  0.00  0.00    +0.001 A 
ATOM     20  C   UNL     1      -3.644   3.246   0.055  0.00  0.00    +0.001 A 
ATOM     21  C   UNL     1      -2.456   3.924   0.047  0.00  0.00    +0.014 A 
ATOM     22  C   UNL     1      -1.258   3.211   0.031  0.00  0.00    +0.047 A 
ATOM     23  C   UNL     1       0.047   3.880   0.022  0.00  0.00    +0.259 A 
ATOM     24  O   UNL     1       0.116   5.096   0.029  0.00  0.00    -0.267 OA
ENDBRANCH  13  14
ENDBRANCH   2  13
TORSDOF 3
