REMARK  Name = ZINC07253163
REMARK  5 active torsions:
REMARK  status: ('A' for Active; 'I' for Inactive)
REMARK    1  A    between atoms: C_1  and  N_2
REMARK    2  A    between atoms: C_3  and  C_5
REMARK    3  A    between atoms: N_8  and  C_16
REMARK    4  A    between atoms: C_16  and  C_17
REMARK    5  A    between atoms: N_19  and  C_20
REMARK                            x       y       z     vdW  Elec       q    Type
REMARK                         _______ _______ _______ _____ _____    ______ ____
ROOT
ATOM      1  C   UNL     1       5.382  -6.444   0.024  0.00  0.00    +0.276 C 
ATOM      2  C   UNL     1       3.931  -5.974   0.192  0.00  0.00    +0.160 C 
ATOM      3  N   UNL     1       3.879  -4.526  -0.035  0.00  0.00    -0.314 N 
ATOM      4  C   UNL     1       4.514  -4.155  -1.225  0.00  0.00    +0.073 A 
ATOM      5  C   UNL     1       4.203  -2.923  -1.791  0.00  0.00    +0.027 A 
ATOM      6  C   UNL     1       4.814  -2.521  -2.962  0.00  0.00    +0.002 A 
ATOM      7  C   UNL     1       5.739  -3.342  -3.579  0.00  0.00    +0.004 A 
ATOM      8  C   UNL     1       6.053  -4.569  -3.025  0.00  0.00    +0.047 A 
ATOM      9  C   UNL     1       5.442  -4.981  -1.849  0.00  0.00    +0.143 A 
ATOM     10  O   UNL     1       5.770  -6.197  -1.331  0.00  0.00    -0.476 OA
ENDROOT
BRANCH   1  13
ATOM     11  C   UNL     1       5.320  -9.806   1.853  0.00  0.00    +0.128 C 
ATOM     12  N   UNL     1       5.226  -8.373   1.564  0.00  0.00    -0.315 N 
ATOM     13  C   UNL     1       5.479  -7.918   0.321  0.00  0.00    +0.255 C 
ATOM     14  O   UNL     1       5.784  -8.695  -0.558  0.00  0.00    -0.272 OA
ATOM     15  H   UNL     1       4.982  -7.751   2.268  0.00  0.00    +0.148 HD
ENDBRANCH   1  13
BRANCH   3  16
ATOM     16  C   UNL     1       2.493  -4.038  -0.005  0.00  0.00    +0.201 C 
BRANCH  16  17
ATOM     17  C   UNL     1       1.931  -4.209   1.383  0.00  0.00    +0.235 C 
ATOM     18  O   UNL     1       2.646  -4.593   2.284  0.00  0.00    -0.274 OA
ATOM     19  N   UNL     1       0.633  -3.936   1.622  0.00  0.00    -0.284 N 
ATOM     20  H   UNL     1       0.046  -3.688   0.890  0.00  0.00    +0.155 HD
BRANCH  19  21
ATOM     21  C   UNL     1       0.132  -4.009   2.927  0.00  0.00    +0.034 A 
ATOM     22  C   UNL     1      -0.848  -3.119   3.347  0.00  0.00    +0.025 A 
ATOM     23  C   UNL     1      -1.341  -3.194   4.635  0.00  0.00    +0.022 A 
ATOM     24  C   UNL     1      -0.860  -4.155   5.506  0.00  0.00    +0.041 A 
ATOM     25  C   UNL     1       0.116  -5.043   5.090  0.00  0.00    +0.022 A 
ATOM     26  C   UNL     1       0.613  -4.973   3.804  0.00  0.00    +0.025 A 
ATOM     27 CL   UNL     1      -1.482  -4.246   7.124  0.00  0.00    -0.084 Cl
ENDBRANCH  19  21
ENDBRANCH  16  17
ENDBRANCH   3  16
TORSDOF 4
