REMARK  Name = ZINC58949934
REMARK  5 active torsions:
REMARK  status: ('A' for Active; 'I' for Inactive)
REMARK    1  A    between atoms: C_1  and  C_2
REMARK    2  A    between atoms: C_2  and  C_28
REMARK    3  A    between atoms: C_6  and  C_15
REMARK    4  A    between atoms: C_8  and  C_12
REMARK    5  A    between atoms: C_9  and  N_11
REMARK                            x       y       z     vdW  Elec       q    Type
REMARK                         _______ _______ _______ _____ _____    ______ ____
ROOT
ATOM      1  C   UNL     1       0.060   1.540  -0.648  0.00  0.00    +0.012 C 
ATOM      2  C   UNL     1       0.050   0.015  -0.774  0.00  0.00    -0.021 C 
ATOM      3  C   UNL     1       0.984  -0.413  -1.907  0.00  0.00    +0.081 C 
ATOM      4  C   UNL     1       2.394   0.031  -1.599  0.00  0.00    +0.115 C 
ATOM      5  C   UNL     1       2.827   0.115  -0.328  0.00  0.00    +0.045 C 
ATOM      6  C   UNL     1       4.239   0.551  -0.023  0.00  0.00    +0.096 C 
ATOM      7  C   UNL     1       5.100   0.422  -1.249  0.00  0.00    +0.083 C 
ATOM      8  C   UNL     1       4.535   0.324  -2.479  0.00  0.00    +0.193 C 
ATOM      9  O   UNL     1       3.201   0.342  -2.632  0.00  0.00    -0.446 OA
ATOM     10  C   UNL     1       1.980  -0.196   0.754  0.00  0.00    +0.164 C 
ATOM     11  O   UNL     1       2.412  -0.128   1.887  0.00  0.00    -0.292 OA
ATOM     12  C   UNL     1       0.551  -0.612   0.531  0.00  0.00    +0.086 C 
ATOM     13  C   UNL     1      -1.372  -0.468  -1.063  0.00  0.00    +0.012 C 
ENDROOT
BRANCH   6  14
ATOM     14  C   UNL     1       4.231   1.988   0.428  0.00  0.00    -0.027 A 
ATOM     15  C   UNL     1       3.660   2.947  -0.351  0.00  0.00    +0.005 A 
ATOM     16  C   UNL     1       3.643   4.281   0.050  0.00  0.00    +0.001 A 
ATOM     17  C   UNL     1       4.197   4.665   1.232  0.00  0.00    +0.008 A 
ATOM     18  C   UNL     1       4.796   3.704   2.064  0.00  0.00    -0.018 A 
ATOM     19  C   UNL     1       4.808   2.345   1.659  0.00  0.00    -0.014 A 
ATOM     20  C   UNL     1       5.401   1.383   2.493  0.00  0.00    +0.009 A 
ATOM     21  C   UNL     1       5.950   1.766   3.678  0.00  0.00    +0.001 A 
ATOM     22  C   UNL     1       5.933   3.100   4.080  0.00  0.00    +0.001 A 
ATOM     23  C   UNL     1       5.379   4.062   3.292  0.00  0.00    +0.008 A 
ENDBRANCH   6  14
BRANCH   7  24
ATOM     24  C   UNL     1       6.500   0.403  -1.119  0.00  0.00    +0.243 C 
ATOM     25  O   UNL     1       7.064  -0.613  -0.752  0.00  0.00    -0.271 OA
ATOM     26  N   UNL     1       7.218   1.508  -1.402  0.00  0.00    -0.325 N 
ATOM     27  H   UNL     1       6.769   2.317  -1.694  0.00  0.00    +0.145 HD
ATOM     28  H   UNL     1       8.184   1.495  -1.312  0.00  0.00    +0.145 HD
ENDBRANCH   7  24
BRANCH   8  29
ATOM     29  N   UNL     1       5.339   0.207  -3.582  0.00  0.00    -0.329 N 
ATOM     30  H   UNL     1       6.297   0.097  -3.475  0.00  0.00    +0.145 HD
ATOM     31  H   UNL     1       4.950   0.234  -4.471  0.00  0.00    +0.145 HD
ENDBRANCH   8  29
TORSDOF 3
