REMARK  Name = ZINC17303744
REMARK  4 active torsions:
REMARK  status: ('A' for Active; 'I' for Inactive)
REMARK    1  A    between atoms: C_1  and  C_2
REMARK    2  A    between atoms: N_11  and  C_15
REMARK    3  A    between atoms: C_15  and  C_16
REMARK    4  A    between atoms: C_16  and  N_18
REMARK                            x       y       z     vdW  Elec       q    Type
REMARK                         _______ _______ _______ _____ _____    ______ ____
ROOT
ATOM      1  C   UNL     1       0.757   1.433   4.395  0.00  0.00    +0.215 C 
ENDROOT
BRANCH   1  11
ATOM      2  C   UNL     1      -0.077   1.514   0.019  0.00  0.00    +0.010 C 
ATOM      3  C   UNL     1      -0.064  -0.016   0.014  0.00  0.00    +0.018 C 
ATOM      4  C   UNL     1       0.638  -0.516  -1.251  0.00  0.00    +0.006 C 
ATOM      5  C   UNL     1       0.668  -2.046  -1.244  0.00  0.00    +0.000 C 
ATOM      6  C   UNL     1       1.437  -2.538  -0.017  0.00  0.00    +0.003 C 
ATOM      7  C   UNL     1       0.737  -2.045   1.253  0.00  0.00    +0.035 C 
ATOM      8  C   UNL     1       0.681  -0.521   1.244  0.00  0.00    +0.115 C 
ATOM      9  C   UNL     1       0.025  -0.010   2.506  0.00  0.00    +0.247 C 
ATOM     10  O   UNL     1      -1.106  -0.227   2.885  0.00  0.00    -0.273 OA
ATOM     11  N   UNL     1       0.964   0.737   3.123  0.00  0.00    -0.215 N 
ATOM     12  C   UNL     1       2.108   0.765   2.428  0.00  0.00    +0.310 C 
ATOM     13  O   UNL     1       3.099   1.372   2.781  0.00  0.00    -0.252 OA
ATOM     14  N   UNL     1       2.036   0.043   1.292  0.00  0.00    -0.285 N 
ATOM     15  H   UNL     1       2.740  -0.079   0.636  0.00  0.00    +0.151 HD
ENDBRANCH   1  11
BRANCH   1  16
ATOM     16  C   UNL     1       1.140   0.522   5.534  0.00  0.00    +0.257 C 
ATOM     17  O   UNL     1       1.547  -0.600   5.304  0.00  0.00    -0.272 OA
BRANCH  16  18
ATOM     18  N   UNL     1       1.034   0.947   6.789  0.00  0.00    -0.146 NA
ATOM     19  C   UNL     1       1.271   0.111   7.796  0.00  0.00    +0.198 A 
ATOM     20  N   UNL     1       1.740  -1.159   7.672  0.00  0.00    -0.326 N 
ATOM     21  H   UNL     1       1.956  -1.606   6.838  0.00  0.00    +0.169 HD
ATOM     22  C   UNL     1       1.856  -1.708   8.944  0.00  0.00    +0.065 A 
ATOM     23  C   UNL     1       2.275  -2.947   9.407  0.00  0.00    +0.028 A 
ATOM     24  C   UNL     1       2.282  -3.209  10.762  0.00  0.00    +0.002 A 
ATOM     25  C   UNL     1       1.872  -2.241  11.663  0.00  0.00    +0.002 A 
ATOM     26  C   UNL     1       1.454  -1.004  11.213  0.00  0.00    +0.028 A 
ATOM     27  C   UNL     1       1.443  -0.731   9.853  0.00  0.00    +0.065 A 
ATOM     28  N   UNL     1       1.090   0.393   9.113  0.00  0.00    -0.326 N 
ATOM     29  H   UNL     1       0.767   1.233   9.475  0.00  0.00    +0.169 HD
ENDBRANCH  16  18
ENDBRANCH   1  16
TORSDOF 3
