REMARK  Name = ZINC41546003
REMARK  7 active torsions:
REMARK  status: ('A' for Active; 'I' for Inactive)
REMARK    1  A    between atoms: C_1  and  C_2
REMARK    2  A    between atoms: C_5  and  C_9
REMARK    3  A    between atoms: C_6  and  C_8
REMARK    4  A    between atoms: C_9  and  C_11
REMARK    5  A    between atoms: C_9  and  N_12
REMARK    6  A    between atoms: C_13  and  C_15
REMARK    7  A    between atoms: C_15  and  C_26
REMARK                            x       y       z     vdW  Elec       q    Type
REMARK                         _______ _______ _______ _____ _____    ______ ____
ROOT
ATOM      1  N   UNL     1       0.642  -4.749  -1.279  0.00  0.00    -0.305 N 
ATOM      2  C   UNL     1       1.224  -5.963  -1.337  0.00  0.00    +0.266 C 
ATOM      3  O   UNL     1       1.266  -6.664  -0.347  0.00  0.00    -0.271 OA
ATOM      4  H   UNL     1       0.610  -4.189  -2.070  0.00  0.00    +0.149 HD
ENDROOT
BRANCH   2   5
ATOM      5  C   UNL     1       1.824  -6.451  -2.630  0.00  0.00    +0.257 C 
ATOM      6  C   UNL     1       1.848  -7.959  -2.636  0.00  0.00    +0.270 C 
ATOM      7  O   UNL     1       2.832  -8.554  -2.249  0.00  0.00    -0.271 OA
ATOM      8  N   UNL     1       0.770  -8.643  -3.072  0.00  0.00    -0.279 N 
ATOM      9  C   UNL     1      -0.306  -7.941  -3.632  0.00  0.00    +0.076 A 
ATOM     10  C   UNL     1      -1.511  -8.578  -3.879  0.00  0.00    +0.027 A 
ATOM     11  C   UNL     1      -2.567  -7.867  -4.419  0.00  0.00    +0.002 A 
ATOM     12  C   UNL     1      -2.424  -6.524  -4.713  0.00  0.00    +0.004 A 
ATOM     13  C   UNL     1      -1.222  -5.883  -4.473  0.00  0.00    +0.047 A 
ATOM     14  C   UNL     1      -0.158  -6.590  -3.938  0.00  0.00    +0.144 A 
ATOM     15  O   UNL     1       1.039  -5.978  -3.727  0.00  0.00    -0.466 OA
ATOM     16  C   UNL     1       3.253  -5.920  -2.761  0.00  0.00    +0.076 C 
ATOM     17  H   UNL     1       0.740  -9.610  -3.000  0.00  0.00    +0.155 HD
ENDBRANCH   2   5
BRANCH   1  18
ATOM     18  C   UNL     1       0.059  -4.275  -0.021  0.00  0.00    +0.100 C 
ATOM     19  C   UNL     1      -1.370  -4.804   0.109  0.00  0.00    +0.033 C 
BRANCH  18  24
ATOM     20  C   UNL     1      -0.018   1.503   0.010  0.00  0.00    +0.044 C 
ATOM     21  C   UNL     1       0.002  -0.004   0.002  0.00  0.00    -0.050 A 
ATOM     22  C   UNL     1       0.006  -0.689  -1.199  0.00  0.00    +0.004 A 
ATOM     23  C   UNL     1       0.025  -2.071  -1.207  0.00  0.00    +0.006 A 
ATOM     24  C   UNL     1       0.040  -2.768  -0.013  0.00  0.00    -0.025 A 
ATOM     25  C   UNL     1       0.037  -2.084   1.188  0.00  0.00    -0.045 A 
ATOM     26  C   UNL     1       0.023  -0.702   1.195  0.00  0.00    +0.007 A 
ATOM     27  C   UNL     1       0.054  -2.845   2.489  0.00  0.00    +0.044 C 
ENDBRANCH  18  24
ENDBRANCH   1  18
TORSDOF 3
