REMARK  Name = ZINC19838336
REMARK  7 active torsions:
REMARK  status: ('A' for Active; 'I' for Inactive)
REMARK    1  A    between atoms: C_1  and  O_2
REMARK    2  A    between atoms: O_2  and  C_3
REMARK    3  A    between atoms: C_8  and  N_9
REMARK    4  A    between atoms: N_12  and  C_15
REMARK    5  A    between atoms: N_18  and  C_23
REMARK    6  A    between atoms: C_20  and  O_22
REMARK    7  A    between atoms: C_23  and  C_24
REMARK                            x       y       z     vdW  Elec       q    Type
REMARK                         _______ _______ _______ _____ _____    ______ ____
ROOT
ATOM      1  C   UNL     1      -1.005   8.049  -2.675  0.00  0.00    +0.067 C 
ATOM      2  C   UNL     1      -0.400   7.475  -1.370  0.00  0.00    -0.057 C 
ATOM      3  N   UNL     1      -0.644   6.019  -1.449  0.00  0.00    +0.385 N 
ATOM      4  C   UNL     1      -1.794   5.784  -2.341  0.00  0.00    -0.045 C 
ATOM      5  C   UNL     1      -2.264   7.161  -2.854  0.00  0.00    +0.113 C 
ATOM      6  H   UNL     1       0.245   5.513  -1.852  0.00  0.00    -0.081 HD
ENDROOT
BRANCH   1  10
ATOM      7  N   UNL     1      -1.429  12.217  -3.217  0.00  0.00    -0.325 N 
ATOM      8  C   UNL     1      -0.614  11.749  -2.087  0.00  0.00    +0.120 C 
ATOM      9  C   UNL     1      -0.183  10.302  -2.338  0.00  0.00    +0.103 C 
ATOM     10  N   UNL     1      -1.376   9.461  -2.507  0.00  0.00    -0.296 NA
ATOM     11  C   UNL     1      -2.191   9.929  -3.637  0.00  0.00    +0.103 C 
ATOM     12  C   UNL     1      -2.622  11.376  -3.386  0.00  0.00    +0.120 C 
BRANCH   7  18
ATOM     13  C   UNL     1      -0.801  14.550  -3.086  0.00  0.00    +0.141 A 
ATOM     14  C   UNL     1      -1.158  15.880  -2.933  0.00  0.00    +0.047 A 
ATOM     15  C   UNL     1      -2.483  16.224  -2.740  0.00  0.00    +0.004 A 
ATOM     16  C   UNL     1      -3.457  15.243  -2.705  0.00  0.00    +0.002 A 
ATOM     17  C   UNL     1      -3.111  13.914  -2.863  0.00  0.00    +0.027 A 
ATOM     18  C   UNL     1      -1.783  13.562  -3.057  0.00  0.00    +0.072 A 
BRANCH  13  20
ATOM     19  C   UNL     1       1.454  15.277  -3.288  0.00  0.00    +0.277 C 
ATOM     20  O   UNL     1       0.503  14.211  -3.270  0.00  0.00    -0.493 OA
ENDBRANCH  13  20
ENDBRANCH   7  18
ENDBRANCH   1  10
BRANCH   5  21
ATOM     21  O   UNL     1      -2.639   7.087  -4.231  0.00  0.00    -0.392 OA
ATOM     22  H   UNL     1      -3.515   6.494  -4.531  0.00  0.00    +0.210 HD
ENDBRANCH   5  21
BRANCH   3  23
ATOM     23  C   UNL     1      -0.888   5.453  -0.115  0.00  0.00    -0.043 C 
BRANCH  23  24
ATOM     24  C   UNL     1      -0.870   3.949  -0.198  0.00  0.00    -0.060 A 
ATOM     25  C   UNL     1      -2.041   3.258  -0.451  0.00  0.00    +0.005 A 
ATOM     26  C   UNL     1      -2.030   1.877  -0.520  0.00  0.00    +0.049 A 
ATOM     27  C   UNL     1      -0.842   1.182  -0.347  0.00  0.00    +0.162 A 
ATOM     28  C   UNL     1       0.335   1.877  -0.095  0.00  0.00    +0.162 A 
ATOM     29  C   UNL     1       0.316   3.262  -0.019  0.00  0.00    +0.051 A 
ATOM     30  O   UNL     1       1.511   1.215   0.079  0.00  0.00    -0.485 OA
ATOM     31  C   UNL     1       1.425  -0.185   0.368  0.00  0.00    +0.270 C 
ATOM     32  C   UNL     1       0.421  -0.816  -0.607  0.00  0.00    +0.270 C 
ATOM     33  O   UNL     1      -0.847  -0.177  -0.421  0.00  0.00    -0.485 OA
ENDBRANCH  23  24
ENDBRANCH   3  23
TORSDOF 6
