REMARK  Name = ZINC20694588
REMARK  10 active torsions:
REMARK  status: ('A' for Active; 'I' for Inactive)
REMARK    1  A    between atoms: C_1  and  C_2
REMARK    2  A    between atoms: C_2  and  C_3
REMARK    3  A    between atoms: C_3  and  C_5
REMARK    4  A    between atoms: C_3  and  N_6
REMARK    5  A    between atoms: N_6  and  S_7
REMARK    6  A    between atoms: S_7  and  C_10
REMARK    7  A    between atoms: C_23  and  C_26
REMARK    8  A    between atoms: C_30  and  O_33
REMARK    9  A    between atoms: C_31  and  O_32
REMARK   10  A    between atoms: O_33  and  C_34
REMARK                            x       y       z     vdW  Elec       q    Type
REMARK                         _______ _______ _______ _____ _____    ______ ____
ROOT
ATOM      1  C   UNL     1       4.083  -0.431   2.181  0.00  0.00    +0.106 A 
ATOM      2  C   UNL     1       3.428  -0.845   1.035  0.00  0.00    +0.030 A 
ATOM      3  C   UNL     1       4.109  -0.885  -0.165  0.00  0.00    +0.025 A 
ATOM      4  C   UNL     1       5.448  -0.521  -0.217  0.00  0.00    +0.031 A 
ATOM      5  C   UNL     1       6.109  -0.108   0.929  0.00  0.00    -0.018 A 
ATOM      6  C   UNL     1       5.413  -0.068   2.130  0.00  0.00    +0.034 A 
ATOM      7  C   UNL     1       7.549   0.299   0.921  0.00  0.00    +0.049 C 
ATOM      8  C   UNL     1       8.427  -0.769   1.530  0.00  0.00    -0.023 C 
ATOM      9  C   UNL     1       9.572  -0.831   0.895  0.00  0.00    -0.030 C 
ATOM     10  C   UNL     1       9.616   0.193  -0.223  0.00  0.00    +0.033 C 
ATOM     11  C   UNL     1       8.112   0.487  -0.501  0.00  0.00    +0.029 C 
ATOM     12  C   UNL     1       7.594  -0.625  -1.419  0.00  0.00    +0.109 C 
ATOM     13  N   UNL     1       6.128  -0.579  -1.439  0.00  0.00    -0.336 N 
ATOM     14  H   UNL     1       5.590  -0.591  -2.398  0.00  0.00    +0.147 HD
ENDROOT
BRANCH  12  15
ATOM     15  C   UNL     1       8.050  -1.963  -0.897  0.00  0.00    +0.018 A 
ATOM     16  C   UNL     1       7.323  -2.605   0.089  0.00  0.00    +0.009 A 
ATOM     17  C   UNL     1       7.735  -3.835   0.566  0.00  0.00    +0.004 A 
ATOM     18  C   UNL     1       8.883  -4.424   0.067  0.00  0.00    +0.049 A 
ATOM     19  C   UNL     1       9.618  -3.784  -0.916  0.00  0.00    +0.162 A 
ATOM     20  C   UNL     1       9.200  -2.548  -1.401  0.00  0.00    +0.163 A 
BRANCH  20  21
ATOM     21  O   UNL     1       9.919  -1.916  -2.367  0.00  0.00    -0.503 OA
ATOM     22  H   UNL     1      10.832  -2.381  -2.766  0.00  0.00    +0.292 HD
ENDBRANCH  20  21
BRANCH  19  23
ATOM     23  O   UNL     1      10.747  -4.362  -1.408  0.00  0.00    -0.491 OA
ATOM     24  C   UNL     1      11.116  -5.631  -0.864  0.00  0.00    +0.277 C 
ENDBRANCH  19  23
ENDBRANCH  12  15
BRANCH   1  25
ATOM     25  S   UNL     1       3.216  -0.374   3.714  0.00  0.00    +0.059 S 
ATOM     26  O   UNL     1       4.196  -0.480   4.738  0.00  0.00    -0.153 OA
ATOM     27  O   UNL     1       2.130  -1.283   3.601  0.00  0.00    -0.153 OA
BRANCH  25  28
ATOM     28  N   UNL     1       2.556   1.139   3.847  0.00  0.00    -0.187 NA
ATOM     29  H   UNL     1       3.012   1.866   4.535  0.00  0.00    +0.148 HD
BRANCH  28  30
ATOM     30  C   UNL     1       1.519   1.571   2.906  0.00  0.00    +0.073 C 
ATOM     31  C   UNL     1       0.139   1.313   3.513  0.00  0.00    +0.025 C 
BRANCH  30  33
ATOM     32  C   UNL     1       3.008   3.307   1.901  0.00  0.00    +0.005 C 
ATOM     33  C   UNL     1       1.680   3.065   2.621  0.00  0.00    +0.017 C 
ENDBRANCH  30  33
ENDBRANCH  28  30
ENDBRANCH  25  28
ENDBRANCH   1  25
TORSDOF 7
