REMARK  Name = ZINC39669292
REMARK  8 active torsions:
REMARK  status: ('A' for Active; 'I' for Inactive)
REMARK    1  A    between atoms: C_1  and  C_2
REMARK    2  A    between atoms: C_2  and  C_3
REMARK    3  A    between atoms: C_3  and  C_4
REMARK    4  A    between atoms: C_4  and  C_6
REMARK    5  A    between atoms: C_4  and  C_7
REMARK    6  A    between atoms: C_11  and  C_20
REMARK    7  A    between atoms: N_22  and  C_23
REMARK    8  A    between atoms: C_23  and  C_24
REMARK                            x       y       z     vdW  Elec       q    Type
REMARK                         _______ _______ _______ _____ _____    ______ ____
ROOT
ATOM      1  C   UNL     1      -2.989  -2.822  -0.284  0.00  0.00    +0.218 C 
ATOM      2  O   UNL     1      -3.963  -2.133  -0.500  0.00  0.00    -0.275 OA
ATOM      3  N   UNL     1      -3.130  -4.150  -0.101  0.00  0.00    -0.300 N 
ATOM      4  C   UNL     1      -2.086  -5.130   0.278  0.00  0.00    +0.121 C 
ATOM      5  C   UNL     1      -2.791  -6.091   1.262  0.00  0.00    +0.100 C 
ATOM      6  C   UNL     1      -4.286  -5.975   0.919  0.00  0.00    -0.004 C 
ATOM      7  C   UNL     1      -4.366  -4.958  -0.229  0.00  0.00    +0.115 C 
ATOM      8  C   UNL     1      -4.830  -7.327   0.468  0.00  0.00    -0.010 C 
ATOM      9  C   UNL     1      -6.330  -7.201   0.189  0.00  0.00    -0.082 C 
ATOM     10  N   UNL     1      -7.021  -6.754   1.405  0.00  0.00    +0.379 N 
ATOM     11  C   UNL     1      -6.557  -5.412   1.779  0.00  0.00    -0.082 C 
ATOM     12  C   UNL     1      -5.067  -5.464   2.126  0.00  0.00    -0.010 C 
ATOM     13  H   UNL     1      -8.015  -6.730   1.236  0.00  0.00    -0.086 HD
ATOM     14  H   UNL     1      -6.825  -7.398   2.156  0.00  0.00    -0.086 HD
ENDROOT
BRANCH   5  15
ATOM     15  C   UNL     1      -2.310  -7.503   1.052  0.00  0.00    +0.218 C 
ATOM     16  O   UNL     1      -1.933  -7.859  -0.044  0.00  0.00    -0.275 OA
ATOM     17  N   UNL     1      -2.297  -8.371   2.084  0.00  0.00    -0.315 N 
ATOM     18  H   UNL     1      -2.598  -8.086   2.961  0.00  0.00    +0.149 HD
BRANCH  17  19
ATOM     19  C   UNL     1      -1.829  -9.744   1.880  0.00  0.00    +0.109 C 
BRANCH  19  20
ATOM     20  C   UNL     1      -1.916 -10.514   3.200  0.00  0.00    +0.024 C 
ATOM     21  C   UNL     1      -1.314 -11.909   3.018  0.00  0.00    +0.008 C 
ATOM     22  C   UNL     1      -1.371 -12.668   4.346  0.00  0.00    +0.019 C 
ATOM     23  C   UNL     1      -2.833 -12.824   4.777  0.00  0.00    +0.108 C 
ATOM     24  N   UNL     1      -3.460 -11.496   4.814  0.00  0.00    -0.299 N 
ATOM     25  C   UNL     1      -3.384 -10.645   3.618  0.00  0.00    +0.113 C 
ATOM     26  C   UNL     1      -4.111 -11.055   5.953  0.00  0.00    +0.218 A 
ATOM     27  N   UNL     1      -4.672  -9.854   5.953  0.00  0.00    -0.223 NA
ATOM     28  C   UNL     1      -5.301  -9.403   7.025  0.00  0.00    +0.116 A 
ATOM     29  C   UNL     1      -5.370 -10.201   8.155  0.00  0.00    +0.039 A 
ATOM     30  C   UNL     1      -4.773 -11.452   8.121  0.00  0.00    +0.116 A 
ATOM     31  N   UNL     1      -4.163 -11.845   7.015  0.00  0.00    -0.223 NA
ENDBRANCH  19  20
ENDBRANCH  17  19
ENDBRANCH   5  15
BRANCH   1  32
ATOM     32  C   UNL     1      -1.621  -2.194  -0.220  0.00  0.00    +0.072 C 
ATOM     33  C   UNL     1      -1.330  -1.751   1.216  0.00  0.00    +0.017 C 
BRANCH  32  34
ATOM     34  C   UNL     1      -1.574  -0.978  -1.148  0.00  0.00    +0.012 C 
BRANCH  34  36
ATOM     35  C   UNL     1      -0.104   0.800  -2.107  0.00  0.00    +0.004 C 
ATOM     36  C   UNL     1      -0.151  -0.415  -1.179  0.00  0.00    -0.003 C 
ENDBRANCH  34  36
ENDBRANCH  32  34
ENDBRANCH   1  32
TORSDOF 6
