REMARK  Name = ZINC61958329
REMARK  6 active torsions:
REMARK  status: ('A' for Active; 'I' for Inactive)
REMARK    1  A    between atoms: C_1  and  C_2
REMARK    2  A    between atoms: C_2  and  C_3
REMARK    3  A    between atoms: C_2  and  N_12
REMARK    4  A    between atoms: C_13  and  C_15
REMARK    5  A    between atoms: N_17  and  C_18
REMARK    6  A    between atoms: C_21  and  N_24
REMARK                            x       y       z     vdW  Elec       q    Type
REMARK                         _______ _______ _______ _____ _____    ______ ____
ROOT
ATOM      1  N   UNL     1       0.711  -0.493   1.187  0.00  0.00    -0.298 N 
ATOM      2  C   UNL     1       2.053  -0.606   1.171  0.00  0.00    +0.300 C 
ATOM      3  O   UNL     1       2.675  -0.312   0.171  0.00  0.00    -0.265 OA
ATOM      4  H   UNL     1       0.213  -0.728   1.986  0.00  0.00    +0.150 HD
ENDROOT
BRANCH   2   5
ATOM      5  C   UNL     1       2.776  -1.092   2.384  0.00  0.00    +0.303 C 
ATOM      6  O   UNL     1       2.154  -1.386   3.384  0.00  0.00    -0.265 OA
ATOM      7  N   UNL     1       4.119  -1.205   2.368  0.00  0.00    -0.278 N 
ATOM      8  H   UNL     1       4.611  -1.034   1.550  0.00  0.00    +0.155 HD
BRANCH   7   9
ATOM      9  C   UNL     1       4.804  -1.567   3.532  0.00  0.00    +0.034 A 
ATOM     10  C   UNL     1       6.054  -1.023   3.800  0.00  0.00    +0.025 A 
ATOM     11  C   UNL     1       6.729  -1.382   4.949  0.00  0.00    +0.030 A 
ATOM     12  C   UNL     1       6.160  -2.285   5.836  0.00  0.00    +0.069 A 
ATOM     13  C   UNL     1       4.911  -2.830   5.568  0.00  0.00    +0.030 A 
ATOM     14  C   UNL     1       4.232  -2.467   4.423  0.00  0.00    +0.025 A 
BRANCH  12  15
ATOM     15  N   UNL     1       6.847  -2.649   7.004  0.00  0.00    -0.200 N 
ATOM     16  C   UNL     1       6.440  -3.512   7.960  0.00  0.00    +0.250 A 
ATOM     17  N   UNL     1       7.381  -3.559   8.867  0.00  0.00    -0.116 NA
ATOM     18  N   UNL     1       8.355  -2.784   8.550  0.00  0.00    -0.023 NA
ATOM     19  N   UNL     1       8.110  -2.199   7.427  0.00  0.00    -0.039 NA
ENDBRANCH  12  15
ENDBRANCH   7   9
ENDBRANCH   2   5
BRANCH   1  21
ATOM     20  C   UNL     1      -0.017   1.514  -0.006  0.00  0.00    +0.036 C 
ATOM     21  C   UNL     1       0.001  -0.016  -0.003  0.00  0.00    +0.136 C 
BRANCH  21  22
ATOM     22  C   UNL     1      -1.413  -0.535   0.013  0.00  0.00    +0.126 A 
ATOM     23  C   UNL     1      -2.077  -0.986  -1.060  0.00  0.00    +0.055 A 
ATOM     24  C   UNL     1      -3.406  -1.386  -0.581  0.00  0.00    +0.020 A 
ATOM     25  C   UNL     1      -4.541  -1.921  -1.188  0.00  0.00    +0.011 A 
ATOM     26  C   UNL     1      -5.651  -2.187  -0.435  0.00  0.00    +0.001 A 
ATOM     27  C   UNL     1      -5.654  -1.927   0.928  0.00  0.00    +0.004 A 
ATOM     28  C   UNL     1      -4.541  -1.397   1.546  0.00  0.00    +0.047 A 
ATOM     29  C   UNL     1      -3.403  -1.121   0.799  0.00  0.00    +0.135 A 
ATOM     30  O   UNL     1      -2.190  -0.619   1.108  0.00  0.00    -0.458 OA
ENDBRANCH  21  22
ENDBRANCH   1  21
TORSDOF 5
