REMARK  Name = ZINC50350037
REMARK  6 active torsions:
REMARK  status: ('A' for Active; 'I' for Inactive)
REMARK    1  A    between atoms: C_1  and  C_2
REMARK    2  A    between atoms: C_2  and  C_3
REMARK    3  A    between atoms: C_2  and  C_4
REMARK    4  A    between atoms: C_2  and  C_5
REMARK    5  A    between atoms: C_8  and  S_11
REMARK    6  A    between atoms: S_11  and  N_14
REMARK                            x       y       z     vdW  Elec       q    Type
REMARK                         _______ _______ _______ _____ _____    ______ ____
ROOT
ATOM      1  C   UNL     1       0.890  -0.268  -1.265  0.00  0.00    -0.005 C 
ATOM      2  C   UNL     1       0.788  -1.794  -1.199  0.00  0.00    +0.006 C 
ATOM      3  C   UNL     1       1.419  -2.401  -2.454  0.00  0.00    +0.028 C 
ATOM      4  C   UNL     1       2.890  -1.991  -2.535  0.00  0.00    +0.148 C 
ATOM      5  C   UNL     1       2.992  -0.466  -2.601  0.00  0.00    +0.028 C 
ATOM      6  C   UNL     1       2.361   0.142  -1.347  0.00  0.00    +0.006 C 
ENDROOT
BRANCH   1   8
ATOM      7  C   UNL     1       0.360   1.865  -0.077  0.00  0.00    +0.011 C 
ATOM      8  C   UNL     1       0.259   0.340  -0.011  0.00  0.00    -0.035 C 
ATOM      9  C   UNL     1       0.999  -0.167   1.229  0.00  0.00    +0.011 C 
ATOM     10  C   UNL     1      -1.212  -0.070   0.070  0.00  0.00    +0.011 C 
ENDBRANCH   1   8
BRANCH   4  11
ATOM     11  S   UNL     1       3.768  -2.592  -1.065  0.00  0.00    +0.030 S 
ATOM     12  O   UNL     1       3.224  -1.999   0.106  0.00  0.00    -0.158 OA
ATOM     13  O   UNL     1       3.952  -3.999  -1.146  0.00  0.00    -0.158 OA
BRANCH  11  14
ATOM     14  N   UNL     1       5.293  -1.958  -1.191  0.00  0.00    -0.208 NA
ATOM     15  H   UNL     1       5.524  -1.399  -1.949  0.00  0.00    +0.144 HD
ATOM     16  H   UNL     1       5.954  -2.146  -0.507  0.00  0.00    +0.144 HD
ENDBRANCH  11  14
ENDBRANCH   4  11
TORSDOF 3
