REMARK  Name = ZINC49544422
REMARK  9 active torsions:
REMARK  status: ('A' for Active; 'I' for Inactive)
REMARK    1  A    between atoms: C_1  and  O_2
REMARK    2  A    between atoms: O_2  and  C_3
REMARK    3  A    between atoms: C_5  and  C_12
REMARK    4  A    between atoms: C_7  and  O_10
REMARK    5  A    between atoms: C_8  and  O_9
REMARK    6  A    between atoms: O_10  and  C_11
REMARK    7  A    between atoms: C_15  and  O_29
REMARK    8  A    between atoms: N_21  and  C_22
REMARK    9  A    between atoms: C_22  and  C_23
REMARK                            x       y       z     vdW  Elec       q    Type
REMARK                         _______ _______ _______ _____ _____    ______ ____
ROOT
ATOM      1  C   UNL     1       2.402   0.386  -4.230  0.00  0.00    +0.063 C 
ATOM      2  C   UNL     1       3.896   0.067  -4.352  0.00  0.00    +0.108 C 
ATOM      3  C   UNL     1       4.129  -1.223  -5.081  0.00  0.00    +0.190 C 
ATOM      4  N   UNL     1       3.363  -1.659  -6.037  0.00  0.00    -0.198 NA
ATOM      5  C   UNL     1       2.261  -0.932  -6.383  0.00  0.00    +0.159 A 
ATOM      6  C   UNL     1       1.753   0.059  -5.551  0.00  0.00    +0.024 A 
ATOM      7  C   UNL     1       0.642   0.604  -6.166  0.00  0.00    +0.140 A 
ATOM      8  N   UNL     1       0.463  -0.006  -7.316  0.00  0.00    -0.177 NA
ATOM      9  N   UNL     1       1.471  -0.976  -7.477  0.00  0.00    -0.242 N 
ENDROOT
BRANCH   1  12
ATOM     10  C   UNL     1       0.606  -0.608  -1.056  0.00  0.00    +0.165 A 
ATOM     11  C   UNL     1       1.173   0.160  -2.063  0.00  0.00    +0.054 A 
ATOM     12  C   UNL     1       1.787  -0.452  -3.139  0.00  0.00    -0.032 A 
ATOM     13  C   UNL     1       1.839  -1.831  -3.217  0.00  0.00    +0.054 A 
ATOM     14  C   UNL     1       1.275  -2.606  -2.215  0.00  0.00    +0.165 A 
ATOM     15  C   UNL     1       0.661  -1.994  -1.128  0.00  0.00    +0.201 A 
BRANCH  10  17
ATOM     16  C   UNL     1      -0.017   1.425   0.010  0.00  0.00    +0.277 C 
ATOM     17  O   UNL     1       0.002  -0.004   0.002  0.00  0.00    -0.491 OA
ENDBRANCH  10  17
BRANCH  15  18
ATOM     18  O   UNL     1       0.111  -2.751  -0.140  0.00  0.00    -0.501 OA
ATOM     19  H   UNL     1      -0.817  -2.978  -0.289  0.00  0.00    +0.292 HD
ENDBRANCH  15  18
BRANCH  14  20
ATOM     20  O   UNL     1       1.326  -3.963  -2.293  0.00  0.00    -0.491 OA
ATOM     21  C   UNL     1       1.977  -4.523  -3.435  0.00  0.00    +0.277 C 
ENDBRANCH  14  20
ENDBRANCH   1  12
BRANCH   3  22
ATOM     22  O   UNL     1       5.194  -1.972  -4.727  0.00  0.00    -0.495 OA
ATOM     23  H   UNL     1       5.287  -2.789  -5.236  0.00  0.00    +0.293 HD
ENDBRANCH   3  22
BRANCH   9  24
ATOM     24  C   UNL     1       1.634  -1.871  -8.626  0.00  0.00    +0.181 C 
BRANCH  24  25
ATOM     25  C   UNL     1       0.863  -3.143  -8.385  0.00  0.00    -0.026 A 
ATOM     26  C   UNL     1       1.472  -4.211  -7.753  0.00  0.00    +0.005 A 
ATOM     27  C   UNL     1       0.765  -5.378  -7.532  0.00  0.00    +0.000 A 
ATOM     28  C   UNL     1      -0.552  -5.476  -7.942  0.00  0.00    +0.000 A 
ATOM     29  C   UNL     1      -1.161  -4.408  -8.573  0.00  0.00    +0.000 A 
ATOM     30  C   UNL     1      -0.455  -3.240  -8.790  0.00  0.00    +0.005 A 
ENDBRANCH  24  25
ENDBRANCH   9  24
TORSDOF 7
