REMARK  Name = ZINC37338139
REMARK  6 active torsions:
REMARK  status: ('A' for Active; 'I' for Inactive)
REMARK    1  A    between atoms: C_3  and  N_18
REMARK    2  A    between atoms: C_6  and  N_7
REMARK    3  A    between atoms: N_7  and  S_8
REMARK    4  A    between atoms: S_8  and  C_11
REMARK    5  A    between atoms: C_14  and  C_16
REMARK    6  A    between atoms: C_16  and  N_17
REMARK                            x       y       z     vdW  Elec       q    Type
REMARK                         _______ _______ _______ _____ _____    ______ ____
ROOT
ATOM      1  S   UNL     1      -1.172  -2.376   0.001  0.00  0.00    +0.098 S 
ATOM      2  O   UNL     1      -0.628  -2.767  -1.252  0.00  0.00    -0.148 OA
ATOM      3  O   UNL     1      -0.603  -2.781   1.239  0.00  0.00    -0.148 OA
ENDROOT
BRANCH   1   4
ATOM      4  C   UNL     1      -2.848  -2.922   0.015  0.00  0.00    +0.148 A 
ATOM      5  C   UNL     1      -3.668  -3.186  -1.032  0.00  0.00    +0.037 A 
ATOM      6  C   UNL     1      -4.960  -3.609  -0.780  0.00  0.00    +0.011 A 
ATOM      7  C   UNL     1      -5.368  -3.747   0.505  0.00  0.00    -0.026 A 
ATOM      8  S   UNL     1      -3.902  -3.279   1.410  0.00  0.00    -0.075 S 
BRANCH   7   9
ATOM      9  C   UNL     1      -6.710  -4.186   1.032  0.00  0.00    -0.043 C 
BRANCH   9  10
ATOM     10  N   UNL     1      -6.716  -5.646   1.199  0.00  0.00    +0.381 N 
ATOM     11  H   UNL     1      -6.544  -6.087   0.308  0.00  0.00    -0.090 HD
ATOM     12  H   UNL     1      -5.994  -5.913   1.851  0.00  0.00    -0.090 HD
ATOM     13  H   UNL     1      -7.614  -5.940   1.552  0.00  0.00    -0.090 HD
ENDBRANCH   9  10
ENDBRANCH   7   9
ENDBRANCH   1   4
BRANCH   1  14
ATOM     14  N   UNL     1      -1.197  -0.720   0.010  0.00  0.00    -0.097 NA
BRANCH  14  20
ATOM     15  C   UNL     1      -0.017   1.385   0.010  0.00  0.00    +0.029 A 
ATOM     16  C   UNL     1       1.171   2.090   0.002  0.00  0.00    +0.034 A 
ATOM     17  C   UNL     1       2.377   1.415  -0.013  0.00  0.00    +0.126 A 
ATOM     18  C   UNL     1       2.400   0.032  -0.022  0.00  0.00    +0.034 A 
ATOM     19  C   UNL     1       1.216  -0.679  -0.014  0.00  0.00    +0.029 A 
ATOM     20  C   UNL     1       0.002  -0.004   0.002  0.00  0.00    +0.074 A 
BRANCH  17  21
ATOM     21  N   UNL     1       3.648   2.174  -0.022  0.00  0.00    +0.056 N 
ATOM     22  O   UNL     1       3.630   3.383  -0.015  0.00  0.00    -0.126 OA
ATOM     23  O   UNL     1       4.704   1.585  -0.036  0.00  0.00    -0.126 OA
ENDBRANCH  17  21
ENDBRANCH  14  20
ENDBRANCH   1  14
TORSDOF 6
