REMARK  Name = ZINC01029871
REMARK  8 active torsions:
REMARK  status: ('A' for Active; 'I' for Inactive)
REMARK    1  A    between atoms: C_1  and  O_2
REMARK    2  A    between atoms: O_2  and  C_3
REMARK    3  A    between atoms: C_6  and  N_9
REMARK    4  A    between atoms: C_10  and  C_11
REMARK    5  A    between atoms: C_16  and  O_17
REMARK    6  A    between atoms: C_19  and  N_32
REMARK    7  A    between atoms: C_20  and  C_30
REMARK    8  A    between atoms: C_21  and  C_23
REMARK                            x       y       z     vdW  Elec       q    Type
REMARK                         _______ _______ _______ _____ _____    ______ ____
ROOT
ATOM      1  C   UNL     1      -6.374  -4.261  -0.755  0.00  0.00    +0.035 A 
ATOM      2  C   UNL     1      -6.602  -5.348  -1.605  0.00  0.00    +0.021 A 
ATOM      3  C   UNL     1      -7.822  -5.989  -1.595  0.00  0.00    +0.008 A 
ATOM      4  C   UNL     1      -8.830  -5.560  -0.740  0.00  0.00    +0.138 A 
ATOM      5  C   UNL     1      -8.613  -4.481   0.109  0.00  0.00    +0.092 A 
ATOM      6  C   UNL     1      -7.392  -3.832   0.112  0.00  0.00    +0.129 A 
ATOM      7  O   UNL     1     -10.034  -6.183  -0.720  0.00  0.00    -0.441 OA
ATOM      8  C   UNL     1     -10.411  -6.946  -1.759  0.00  0.00    +0.199 C 
ATOM      9  C   UNL     1      -9.518  -7.440  -2.649  0.00  0.00    +0.098 C 
ATOM     10  C   UNL     1      -8.048  -7.158  -2.518  0.00  0.00    +0.098 C 
ENDROOT
BRANCH  10  11
ATOM     11  C   UNL     1      -7.353  -8.374  -1.963  0.00  0.00    -0.032 A 
ATOM     12  C   UNL     1      -7.705  -8.863  -0.718  0.00  0.00    +0.005 A 
ATOM     13  C   UNL     1      -7.069  -9.979  -0.208  0.00  0.00    +0.003 A 
ATOM     14  C   UNL     1      -6.080 -10.607  -0.941  0.00  0.00    +0.038 A 
ATOM     15  C   UNL     1      -5.727 -10.119  -2.188  0.00  0.00    +0.124 A 
ATOM     16  C   UNL     1      -6.370  -9.005  -2.701  0.00  0.00    +0.043 A 
ATOM     17  F   UNL     1      -4.761 -10.732  -2.905  0.00  0.00    -0.205 F 
ENDBRANCH  10  11
BRANCH   8  18
ATOM     18  N   UNL     1     -11.743  -7.235  -1.923  0.00  0.00    -0.328 N 
ATOM     19  H   UNL     1     -12.396  -6.890  -1.294  0.00  0.00    +0.145 HD
ATOM     20  H   UNL     1     -12.032  -7.785  -2.668  0.00  0.00    +0.145 HD
ENDBRANCH   8  18
BRANCH   1  22
ATOM     21  N   UNL     1      -4.863  -2.567   0.035  0.00  0.00    -0.255 NA
ATOM     22  C   UNL     1      -5.074  -3.576  -0.764  0.00  0.00    +0.123 C 
BRANCH  21  26
ATOM     23  C   UNL     1      -1.200  -0.637   0.010  0.00  0.00    +0.120 A 
ATOM     24  C   UNL     1      -2.374   0.105   0.019  0.00  0.00    +0.048 A 
ATOM     25  C   UNL     1      -3.595  -0.533   0.028  0.00  0.00    +0.031 A 
ATOM     26  C   UNL     1      -3.652  -1.929   0.026  0.00  0.00    +0.064 A 
ATOM     27  C   UNL     1      -2.469  -2.672   0.016  0.00  0.00    +0.031 A 
ATOM     28  C   UNL     1      -1.252  -2.025   0.003  0.00  0.00    +0.048 A 
BRANCH  23  30
ATOM     29  C   UNL     1      -0.017   1.425   0.010  0.00  0.00    +0.277 C 
ATOM     30  O   UNL     1       0.002  -0.004   0.002  0.00  0.00    -0.495 OA
ENDBRANCH  23  30
ENDBRANCH  21  26
ENDBRANCH   1  22
BRANCH   6  31
ATOM     31  O   UNL     1      -7.180  -2.783   0.946  0.00  0.00    -0.506 OA
ATOM     32  H   UNL     1      -7.415  -1.925   0.566  0.00  0.00    +0.292 HD
ENDBRANCH   6  31
BRANCH   9  33
ATOM     33  C   UNL     1      -9.984  -8.247  -3.736  0.00  0.00    +0.101 C 
ATOM     34  N   UNL     1     -10.353  -8.888  -4.598  0.00  0.00    -0.191 NA
ENDBRANCH   9  33
TORSDOF 7
