REMARK  Name = ZINC27489340
REMARK  4 active torsions:
REMARK  status: ('A' for Active; 'I' for Inactive)
REMARK    1  A    between atoms: N_4  and  C_6
REMARK    2  A    between atoms: C_15  and  C_18
REMARK    3  A    between atoms: N_20  and  C_21
REMARK    4  A    between atoms: C_22  and  C_32
REMARK                            x       y       z     vdW  Elec       q    Type
REMARK                         _______ _______ _______ _____ _____    ______ ____
ROOT
ATOM      1  C   UNL     1       0.197  -5.124   0.714  0.00  0.00    +0.224 C 
ATOM      2  O   UNL     1      -0.913  -4.705   0.965  0.00  0.00    -0.275 OA
ATOM      3  N   UNL     1       0.446  -6.447   0.768  0.00  0.00    -0.279 N 
ATOM      4  H   UNL     1       1.334  -6.782   0.567  0.00  0.00    +0.155 HD
ENDROOT
BRANCH   3   5
ATOM      5  C   UNL     1      -0.568  -7.331   1.112  0.00  0.00    +0.090 A 
ATOM      6  C   UNL     1      -0.497  -8.703   1.223  0.00  0.00    +0.084 A 
ATOM      7  C   UNL     1      -1.716  -9.429   1.599  0.00  0.00    -0.018 A 
ATOM      8  C   UNL     1      -2.776  -8.617   1.763  0.00  0.00    -0.004 A 
ATOM      9  S   UNL     1      -2.161  -6.976   1.496  0.00  0.00    -0.077 S 
ATOM     10  C   UNL     1      -4.202  -8.994   2.053  0.00  0.00    +0.043 C 
ATOM     11  C   UNL     1      -4.826  -9.466   0.726  0.00  0.00    +0.005 C 
ATOM     12  C   UNL     1      -3.937 -10.571   0.146  0.00  0.00    +0.000 C 
ATOM     13  C   UNL     1      -3.963 -11.693   1.163  0.00  0.00    +0.000 C 
ATOM     14  C   UNL     1      -2.974 -11.512   2.301  0.00  0.00    +0.005 C 
ATOM     15  C   UNL     1      -1.647 -10.936   1.822  0.00  0.00    +0.037 C 
BRANCH   6  16
ATOM     16  C   UNL     1       0.729  -9.400   0.977  0.00  0.00    +0.102 C 
ATOM     17  N   UNL     1       1.702  -9.953   0.782  0.00  0.00    -0.191 NA
ENDBRANCH   6  16
ENDBRANCH   3   5
BRANCH   1  25
ATOM     18  C   UNL     1       1.872  -1.761  -0.025  0.00  0.00    +0.067 C 
ATOM     19  C   UNL     1       3.017  -1.881   0.983  0.00  0.00    +0.034 C 
ATOM     20  C   UNL     1       3.560  -3.311   0.970  0.00  0.00    -0.007 C 
ATOM     21  C   UNL     1       4.077  -3.647  -0.430  0.00  0.00    +0.007 C 
ATOM     22  C   UNL     1       2.933  -3.528  -1.438  0.00  0.00    -0.007 C 
ATOM     23  C   UNL     1       2.389  -2.098  -1.425  0.00  0.00    +0.034 C 
ATOM     24  C   UNL     1       1.815  -4.501  -1.060  0.00  0.00    +0.020 C 
ATOM     25  C   UNL     1       1.298  -4.165   0.341  0.00  0.00    +0.050 C 
ATOM     26  C   UNL     1       2.442  -4.285   1.349  0.00  0.00    +0.020 C 
ATOM     27  C   UNL     1       0.755  -2.735   0.353  0.00  0.00    +0.046 C 
BRANCH  18  31
ATOM     28  C   UNL     1      -0.016   1.303   0.009  0.00  0.00    +0.245 A 
ATOM     29  N   UNL     1       1.238   1.753  -0.000  0.00  0.00    -0.223 NA
ATOM     30  C   UNL     1       2.072   0.744  -0.014  0.00  0.00    +0.219 A 
ATOM     31  N   UNL     1       1.352  -0.392  -0.013  0.00  0.00    -0.246 N 
ATOM     32  N   UNL     1       0.002  -0.004   0.002  0.00  0.00    -0.158 NA
ENDBRANCH  18  31
ENDBRANCH   1  25
TORSDOF 4
