REMARK  Name = ZINC19870505
REMARK  4 active torsions:
REMARK  status: ('A' for Active; 'I' for Inactive)
REMARK    1  A    between atoms: C_2  and  N_16
REMARK    2  A    between atoms: C_3  and  O_11
REMARK    3  A    between atoms: O_11  and  C_12
REMARK    4  A    between atoms: C_12  and  C_13
REMARK                            x       y       z     vdW  Elec       q    Type
REMARK                         _______ _______ _______ _____ _____    ______ ____
ROOT
ATOM      1  C   UNL     1       1.255   3.397  -0.347  0.00  0.00    +0.075 A 
ATOM      2  C   UNL     1       2.475   4.056  -0.358  0.00  0.00    +0.071 A 
ATOM      3  C   UNL     1       3.638   3.369  -0.018  0.00  0.00    +0.145 A 
ATOM      4  C   UNL     1       3.572   2.030   0.329  0.00  0.00    +0.097 A 
ATOM      5  C   UNL     1       2.351   1.371   0.339  0.00  0.00    +0.166 A 
ATOM      6  C   UNL     1       1.191   2.057   0.002  0.00  0.00    +0.164 A 
ATOM      7  O   UNL     1      -0.017   1.427   0.010  0.00  0.00    -0.485 OA
ATOM      8  C   UNL     1       0.002  -0.004   0.002  0.00  0.00    +0.270 C 
ATOM      9  C   UNL     1       1.028  -0.476   1.042  0.00  0.00    +0.270 C 
ATOM     10  O   UNL     1       2.308   0.053   0.680  0.00  0.00    -0.485 OA
ENDROOT
BRANCH   2  11
ATOM     11  N   UNL     1       2.539   5.411  -0.710  0.00  0.00    -0.355 N 
ATOM     12  H   UNL     1       3.508   5.932  -0.719  0.00  0.00    +0.142 HD
ATOM     13  H   UNL     1       1.620   5.953  -0.979  0.00  0.00    +0.142 HD
ENDBRANCH   2  11
BRANCH   3  14
ATOM     14  O   UNL     1       4.836   4.013  -0.026  0.00  0.00    -0.490 OA
BRANCH  14  15
ATOM     15  C   UNL     1       5.987   3.245   0.333  0.00  0.00    +0.232 C 
BRANCH  15  16
ATOM     16  C   UNL     1       7.232   4.132   0.267  0.00  0.00    +0.027 C 
ATOM     17  C   UNL     1       8.305   3.767  -0.761  0.00  0.00    +0.007 C 
ATOM     18  C   UNL     1       8.558   3.524   0.729  0.00  0.00    +0.007 C 
ENDBRANCH  15  16
ENDBRANCH  14  15
ENDBRANCH   3  14
TORSDOF 4
