REMARK  Name = ZINC11740142
REMARK  8 active torsions:
REMARK  status: ('A' for Active; 'I' for Inactive)
REMARK    1  A    between atoms: C_4  and  C_7
REMARK    2  A    between atoms: C_7  and  C_9
REMARK    3  A    between atoms: C_7  and  N_28
REMARK    4  A    between atoms: C_9  and  C_10
REMARK    5  A    between atoms: C_10  and  O_12
REMARK    6  A    between atoms: O_12  and  C_13
REMARK    7  A    between atoms: C_13  and  C_14
REMARK    8  A    between atoms: N_16  and  C_17
REMARK                            x       y       z     vdW  Elec       q    Type
REMARK                         _______ _______ _______ _____ _____    ______ ____
ROOT
ATOM      1  C   UNL     1       4.066   4.999  -1.541  0.00  0.00    +0.310 C 
ATOM      2  O   UNL     1       4.720   5.180  -0.542  0.00  0.00    -0.251 OA
ENDROOT
BRANCH   1   3
ATOM      3  C   UNL     1       2.732   4.303  -1.452  0.00  0.00    +0.147 C 
BRANCH   3   4
ATOM      4  C   UNL     1       2.446   3.933   0.005  0.00  0.00    +0.115 C 
BRANCH   4   5
ATOM      5  N   UNL     1       2.299   5.154   0.799  0.00  0.00    -0.292 N 
ATOM      6  C   UNL     1       1.307   6.023   0.522  0.00  0.00    +0.298 C 
ATOM      7  O   UNL     1       0.483   5.754  -0.331  0.00  0.00    -0.253 OA
ATOM      8  N   UNL     1       1.227   7.191   1.191  0.00  0.00    -0.313 N 
ATOM      9  H   UNL     1       2.916   5.338   1.525  0.00  0.00    +0.151 HD
ATOM     10  H   UNL     1       1.884   7.406   1.871  0.00  0.00    +0.146 HD
ATOM     11  H   UNL     1       0.513   7.816   0.991  0.00  0.00    +0.146 HD
ENDBRANCH   4   5
BRANCH   4  15
ATOM     12  C   UNL     1      -1.165   1.660   0.212  0.00  0.00    +0.000 A 
ATOM     13  C   UNL     1      -0.473   1.752  -0.982  0.00  0.00    +0.000 A 
ATOM     14  C   UNL     1       0.694   2.488  -1.049  0.00  0.00    +0.005 A 
ATOM     15  C   UNL     1       1.173   3.129   0.078  0.00  0.00    -0.027 A 
ATOM     16  C   UNL     1       0.484   3.033   1.273  0.00  0.00    +0.005 A 
ATOM     17  C   UNL     1      -0.684   2.297   1.340  0.00  0.00    +0.000 A 
ENDBRANCH   4  15
ENDBRANCH   3   4
ENDBRANCH   1   3
BRANCH   1  18
ATOM     18  O   UNL     1       4.526   5.418  -2.730  0.00  0.00    -0.455 OA
BRANCH  18  19
ATOM     19  C   UNL     1       5.818   6.080  -2.740  0.00  0.00    +0.327 C 
BRANCH  19  20
ATOM     20  C   UNL     1       6.168   6.476  -4.152  0.00  0.00    +0.251 C 
ATOM     21  O   UNL     1       5.404   6.225  -5.059  0.00  0.00    -0.272 OA
ATOM     22  N   UNL     1       7.331   7.110  -4.405  0.00  0.00    -0.306 N 
ATOM     23  H   UNL     1       7.942   7.311  -3.679  0.00  0.00    +0.149 HD
BRANCH  22  24
ATOM     24  C   UNL     1       7.671   7.495  -5.777  0.00  0.00    +0.104 C 
ATOM     25  C   UNL     1       9.189   7.601  -5.908  0.00  0.00    +0.027 C 
ATOM     26  C   UNL     1       9.514   8.211  -7.277  0.00  0.00    +0.007 C 
ATOM     27  C   UNL     1       9.090   9.678  -7.264  0.00  0.00    +0.035 C 
ATOM     28  C   UNL     1       7.669   9.815  -6.786  0.00  0.00    -0.042 A 
ATOM     29  C   UNL     1       7.018   8.814  -6.099  0.00  0.00    -0.024 A 
ATOM     30  C   UNL     1       5.709   9.007  -5.679  0.00  0.00    +0.006 A 
ATOM     31  C   UNL     1       5.054  10.191  -5.947  0.00  0.00    +0.000 A 
ATOM     32  C   UNL     1       5.705  11.194  -6.640  0.00  0.00    +0.000 A 
ATOM     33  C   UNL     1       7.007  11.005  -7.057  0.00  0.00    +0.004 A 
ENDBRANCH  22  24
ENDBRANCH  19  20
ENDBRANCH  18  19
ENDBRANCH   1  18
TORSDOF 8
