REMARK  Name = ZINC23859489
REMARK  10 active torsions:
REMARK  status: ('A' for Active; 'I' for Inactive)
REMARK    1  A    between atoms: C_1  and  C_2
REMARK    2  A    between atoms: C_5  and  N_35
REMARK    3  A    between atoms: C_7  and  N_8
REMARK    4  A    between atoms: C_9  and  C_11
REMARK    5  A    between atoms: N_13  and  C_14
REMARK    6  A    between atoms: C_14  and  C_15
REMARK    7  A    between atoms: C_15  and  C_17
REMARK    8  A    between atoms: C_15  and  N_28
REMARK    9  A    between atoms: N_26  and  C_27
REMARK   10  A    between atoms: N_31  and  C_34
REMARK                            x       y       z     vdW  Elec       q    Type
REMARK                         _______ _______ _______ _____ _____    ______ ____
ROOT
ATOM      1  C   UNL     1       3.036  -1.461   4.605  0.00  0.00    +0.104 C 
ENDROOT
BRANCH   1   2
ATOM      2  C   UNL     1       2.413  -0.805   3.400  0.00  0.00    -0.028 A 
ATOM      3  C   UNL     1       1.354  -1.413   2.751  0.00  0.00    +0.007 A 
ATOM      4  C   UNL     1       0.788  -0.813   1.647  0.00  0.00    +0.024 A 
ATOM      5  C   UNL     1       1.276   0.408   1.177  0.00  0.00    +0.033 A 
ATOM      6  C   UNL     1       2.332   1.014   1.834  0.00  0.00    -0.026 A 
ATOM      7  C   UNL     1       2.898   0.404   2.942  0.00  0.00    +0.010 A 
ATOM      8  C   UNL     1       2.896   2.340   1.388  0.00  0.00    +0.038 C 
ATOM      9  C   UNL     1       2.416   2.652  -0.031  0.00  0.00    +0.024 C 
ATOM     10  C   UNL     1       0.904   2.397  -0.086  0.00  0.00    +0.105 C 
ATOM     11  N   UNL     1       0.666   0.959   0.052  0.00  0.00    -0.333 N 
ATOM     12  C   UNL     1      -0.772   0.660   0.033  0.00  0.00    +0.129 C 
ENDBRANCH   1   2
BRANCH   1  13
ATOM     13  N   UNL     1       1.982  -2.050   5.442  0.00  0.00    -0.297 NA
ATOM     14  C   UNL     1       0.949  -1.055   5.765  0.00  0.00    +0.066 C 
ATOM     15  C   UNL     1      -0.167  -1.726   6.569  0.00  0.00    -0.064 C 
ATOM     16  N   UNL     1       0.398  -2.311   7.793  0.00  0.00    +0.379 N 
ATOM     17  C   UNL     1       1.431  -3.305   7.470  0.00  0.00    -0.064 C 
ATOM     18  C   UNL     1       2.547  -2.634   6.666  0.00  0.00    +0.066 C 
ATOM     19  C   UNL     1      -0.656  -2.900   8.630  0.00  0.00    -0.096 C 
ATOM     20  H   UNL     1       0.872  -1.502   8.368  0.00  0.00    -0.082 HD
ENDBRANCH   1  13
BRANCH   1  21
ATOM     21  C   UNL     1       3.997  -2.560   4.148  0.00  0.00    +0.128 C 
BRANCH  21  24
ATOM     22  C   UNL     1       6.135  -2.727   2.989  0.00  0.00    +0.299 C 
ATOM     23  O   UNL     1       6.137  -3.917   3.228  0.00  0.00    -0.265 OA
ATOM     24  N   UNL     1       5.109  -1.959   3.406  0.00  0.00    -0.306 N 
ATOM     25  H   UNL     1       5.106  -0.880   3.190  0.00  0.00    +0.149 HD
BRANCH  22  27
ATOM     26  N   UNL     1       8.293  -2.883   1.817  0.00  0.00    -0.277 N 
ATOM     27  C   UNL     1       7.268  -2.115   2.234  0.00  0.00    +0.303 C 
ATOM     28  O   UNL     1       7.265  -0.925   1.995  0.00  0.00    -0.265 OA
ATOM     29  H   UNL     1       8.259  -3.973   1.964  0.00  0.00    +0.155 HD
BRANCH  26  36
ATOM     30  C   UNL     1      10.796  -4.226   1.986  0.00  0.00    +0.045 C 
ATOM     31  C   UNL     1      10.641  -2.918   1.255  0.00  0.00    -0.029 A 
ATOM     32  C   UNL     1      11.732  -2.334   0.641  0.00  0.00    +0.007 A 
ATOM     33  C   UNL     1      11.591  -1.133  -0.029  0.00  0.00    +0.033 A 
ATOM     34  C   UNL     1      10.357  -0.512  -0.088  0.00  0.00    +0.128 A 
ATOM     35  C   UNL     1       9.260  -1.092   0.519  0.00  0.00    +0.056 A 
ATOM     36  C   UNL     1       9.400  -2.296   1.198  0.00  0.00    +0.039 A 
BRANCH  34  37
ATOM     37  N   UNL     1      10.210   0.774  -0.807  0.00  0.00    +0.056 N 
ATOM     38  O   UNL     1      11.176   1.284  -1.346  0.00  0.00    -0.126 OA
ATOM     39  O   UNL     1       9.124   1.322  -0.859  0.00  0.00    -0.126 OA
ENDBRANCH  34  37
ENDBRANCH  26  36
ENDBRANCH  22  27
ENDBRANCH  21  24
ENDBRANCH   1  21
TORSDOF 7
