REMARK  Name = ZINC18199825
REMARK  4 active torsions:
REMARK  status: ('A' for Active; 'I' for Inactive)
REMARK    1  A    between atoms: C_4  and  O_7
REMARK    2  A    between atoms: O_7  and  C_8
REMARK    3  A    between atoms: C_12  and  C_14
REMARK    4  A    between atoms: C_19  and  C_24
REMARK                            x       y       z     vdW  Elec       q    Type
REMARK                         _______ _______ _______ _____ _____    ______ ____
ROOT
ATOM      1  C   UNL     1       2.148   0.591   3.593  0.00  0.00    +0.176 C 
ATOM      2  C   UNL     1       1.477   1.120   2.344  0.00  0.00    +0.041 C 
ATOM      3  C   UNL     1       2.159   1.330   1.198  0.00  0.00    +0.020 C 
ATOM      4  C   UNL     1       1.465   1.876  -0.028  0.00  0.00    +0.060 C 
ATOM      5  C   UNL     1       0.010   1.402  -0.048  0.00  0.00    +0.039 C 
ATOM      6  C   UNL     1      -0.673   1.889   1.234  0.00  0.00    +0.088 C 
ATOM      7  C   UNL     1       0.098   1.384   2.422  0.00  0.00    +0.164 C 
ATOM      8  O   UNL     1      -0.484   1.198   3.472  0.00  0.00    -0.292 OA
ATOM      9  N   UNL     1       3.501   1.055   1.092  0.00  0.00    -0.287 N 
ATOM     10  C   UNL     1       4.088   0.285   2.083  0.00  0.00    +0.220 A 
ATOM     11  N   UNL     1       3.462   0.054   3.263  0.00  0.00    -0.219 N 
ATOM     12  N   UNL     1       4.315  -0.752   4.016  0.00  0.00    -0.132 NA
ATOM     13  C   UNL     1       5.386  -0.961   3.281  0.00  0.00    +0.233 A 
ATOM     14  N   UNL     1       5.241  -0.327   2.108  0.00  0.00    -0.180 NA
ATOM     15  N   UNL     1       6.494  -1.720   3.660  0.00  0.00    -0.326 N 
ATOM     16  H   UNL     1       4.022   1.389   0.345  0.00  0.00    +0.155 HD
ATOM     17  H   UNL     1       6.515  -2.146   4.531  0.00  0.00    +0.145 HD
ATOM     18  H   UNL     1       7.243  -1.821   3.052  0.00  0.00    +0.145 HD
ENDROOT
BRANCH   1  23
ATOM     19  C   UNL     1       1.837   2.651   6.746  0.00  0.00    +0.129 A 
ATOM     20  C   UNL     1       2.588   3.771   6.418  0.00  0.00    +0.046 A 
ATOM     21  C   UNL     1       3.192   3.856   5.179  0.00  0.00    +0.004 A 
ATOM     22  C   UNL     1       3.054   2.825   4.268  0.00  0.00    +0.006 A 
ATOM     23  C   UNL     1       2.302   1.711   4.590  0.00  0.00    -0.015 A 
ATOM     24  C   UNL     1       1.695   1.620   5.828  0.00  0.00    +0.052 A 
BRANCH  19  25
ATOM     25  O   UNL     1       1.241   2.564   7.964  0.00  0.00    -0.456 OA
BRANCH  25  29
ATOM     26  C   UNL     1      -1.840   5.176   8.803  0.00  0.00    +0.000 A 
ATOM     27  C   UNL     1      -1.359   4.336   9.790  0.00  0.00    +0.004 A 
ATOM     28  C   UNL     1      -0.328   3.460   9.512  0.00  0.00    +0.046 A 
ATOM     29  C   UNL     1       0.226   3.424   8.240  0.00  0.00    +0.128 A 
ATOM     30  C   UNL     1      -0.255   4.272   7.253  0.00  0.00    +0.046 A 
ATOM     31  C   UNL     1      -1.290   5.142   7.535  0.00  0.00    +0.004 A 
ENDBRANCH  25  29
ENDBRANCH  19  25
ENDBRANCH   1  23
BRANCH   5  32
ATOM     32  C   UNL     1      -0.694   1.977  -1.250  0.00  0.00    -0.006 A 
ATOM     33  C   UNL     1      -1.297   1.330  -2.277  0.00  0.00    +0.011 A 
ATOM     34  C   UNL     1      -1.890   2.071  -3.281  0.00  0.00    +0.008 A 
ATOM     35  C   UNL     1      -1.843   3.424  -3.215  0.00  0.00    +0.045 A 
ATOM     36  S   UNL     1      -0.945   3.688  -1.694  0.00  0.00    -0.101 S 
ENDBRANCH   5  32
TORSDOF 4
