REMARK  Name = ZINC39012523
REMARK  6 active torsions:
REMARK  status: ('A' for Active; 'I' for Inactive)
REMARK    1  A    between atoms: C_3  and  N_9
REMARK    2  A    between atoms: C_10  and  C_12
REMARK    3  A    between atoms: C_12  and  S_13
REMARK    4  A    between atoms: S_13  and  C_14
REMARK    5  A    between atoms: C_17  and  C_21
REMARK    6  A    between atoms: N_19  and  N_20
REMARK                            x       y       z     vdW  Elec       q    Type
REMARK                         _______ _______ _______ _____ _____    ______ ____
ROOT
ATOM      1  C   UNL     1       6.099   6.756  -0.483  0.00  0.00    +0.189 C 
ATOM      2  N   UNL     1       7.207   6.095  -0.499  0.00  0.00    -0.161 NA
ATOM      3  N   UNL     1       8.312   6.947  -0.617  0.00  0.00    -0.243 N 
ATOM      4  C   UNL     1       7.769   8.316  -0.679  0.00  0.00    +0.222 C 
ATOM      5  N   UNL     1       6.312   8.123  -0.591  0.00  0.00    -0.223 N 
ATOM      6  H   UNL     1       9.246   6.689  -0.651  0.00  0.00    +0.170 HD
ENDROOT
BRANCH   4   7
ATOM      7  C   UNL     1       8.142   8.982  -2.005  0.00  0.00    +0.197 C 
ATOM      8  C   UNL     1       9.646   9.037  -2.173  0.00  0.00    -0.017 C 
ATOM      9  C   UNL     1       9.892   8.314  -3.264  0.00  0.00    +0.065 C 
ATOM     10  C   UNL     1      11.385   8.291  -3.541  0.00  0.00    +0.057 C 
ATOM     11  C   UNL     1      11.966   9.456  -2.710  0.00  0.00    +0.011 C 
ATOM     12  C   UNL     1      10.918   9.589  -1.582  0.00  0.00    +0.035 C 
ATOM     13  N   UNL     1       8.726   7.833  -3.773  0.00  0.00    -0.158 NA
ATOM     14  N   UNL     1       7.712   8.153  -3.144  0.00  0.00    -0.176 NA
ENDBRANCH   4   7
BRANCH   5  15
ATOM     15  N   UNL     1       5.356   9.098  -0.611  0.00  0.00    -0.250 NA
ATOM     16  H   UNL     1       4.432   8.701  -0.533  0.00  0.00    +0.141 HD
ATOM     17  H   UNL     1       5.519   9.779   0.117  0.00  0.00    +0.141 HD
ENDBRANCH   5  15
BRANCH   1  18
ATOM     18  S   UNL     1       4.508   6.012  -0.346  0.00  0.00    -0.078 S 
BRANCH  18  19
ATOM     19  C   UNL     1       4.861   4.236  -0.238  0.00  0.00    +0.173 C 
BRANCH  19  21
ATOM     20  N   UNL     1       3.584   2.129  -0.021  0.00  0.00    -0.283 N 
ATOM     21  C   UNL     1       3.567   3.473  -0.116  0.00  0.00    +0.228 C 
ATOM     22  O   UNL     1       2.511   4.069  -0.103  0.00  0.00    -0.275 OA
ATOM     23  H   UNL     1       4.430   1.658   0.049  0.00  0.00    +0.155 HD
BRANCH  20  26
ATOM     24  C   UNL     1       0.065   1.243  -0.620  0.00  0.00    +0.017 A 
ATOM     25  C   UNL     1       1.250   1.953  -0.618  0.00  0.00    +0.027 A 
ATOM     26  C   UNL     1       2.381   1.411  -0.024  0.00  0.00    +0.069 A 
ATOM     27  C   UNL     1       2.318   0.154   0.567  0.00  0.00    +0.146 A 
ATOM     28  C   UNL     1       1.129  -0.551   0.562  0.00  0.00    +0.055 A 
ATOM     29  C   UNL     1       0.004  -0.007  -0.032  0.00  0.00    +0.021 A 
ATOM     30 BR   UNL     1      -1.621  -0.974  -0.037  0.00  0.00    -0.050 Br
ATOM     31  F   UNL     1       3.417  -0.377   1.146  0.00  0.00    -0.204 F 
ENDBRANCH  20  26
ENDBRANCH  19  21
ENDBRANCH  18  19
ENDBRANCH   1  18
TORSDOF 6
