REMARK  Name = ZINC42870298
REMARK  5 active torsions:
REMARK  status: ('A' for Active; 'I' for Inactive)
REMARK    1  A    between atoms: C_3  and  C_7
REMARK    2  A    between atoms: C_7  and  N_8
REMARK    3  A    between atoms: N_11  and  N_12
REMARK    4  A    between atoms: C_13  and  C_15
REMARK    5  A    between atoms: C_15  and  C_16
REMARK                            x       y       z     vdW  Elec       q    Type
REMARK                         _______ _______ _______ _____ _____    ______ ____
ROOT
ATOM      1  N   UNL     1       5.045  -2.399  -3.161  0.00  0.00    -0.233 N 
ATOM      2  C   UNL     1       5.545  -3.330  -3.997  0.00  0.00    +0.230 C 
ATOM      3  O   UNL     1       6.708  -3.665  -3.907  0.00  0.00    -0.274 OA
ATOM      4  H   UNL     1       4.116  -2.132  -3.233  0.00  0.00    +0.173 HD
ENDROOT
BRANCH   1   8
ATOM      5  N   UNL     1       4.076  -0.515  -1.452  0.00  0.00    -0.296 N 
ATOM      6  C   UNL     1       5.368  -0.887  -1.351  0.00  0.00    +0.316 C 
ATOM      7  O   UNL     1       6.082  -0.382  -0.506  0.00  0.00    -0.251 OA
ATOM      8  N   UNL     1       5.868  -1.818  -2.188  0.00  0.00    -0.218 N 
ATOM      9  H   UNL     1       3.507  -0.917  -2.126  0.00  0.00    +0.150 HD
ATOM     10  H   UNL     1       6.798  -2.086  -2.115  0.00  0.00    +0.174 HD
BRANCH   5  11
ATOM     11  C   UNL     1       3.533   0.497  -0.543  0.00  0.00    +0.137 C 
BRANCH  11  14
ATOM     12  C   UNL     1      -0.019   1.540   0.011  0.00  0.00    +0.031 C 
ATOM     13  C   UNL     1       1.494   1.890  -0.002  0.00  0.00    +0.035 C 
ATOM     14  C   UNL     1       2.056   0.734  -0.867  0.00  0.00    +0.135 C 
ATOM     15  O   UNL     1       1.275  -0.417  -0.510  0.00  0.00    -0.375 OA
ATOM     16  C   UNL     1       0.002  -0.004   0.002  0.00  0.00    +0.160 C 
ENDBRANCH  11  14
ENDBRANCH   5  11
ENDBRANCH   1   8
BRANCH   2  17
ATOM     17  C   UNL     1       4.660  -3.956  -5.045  0.00  0.00    +0.104 C 
BRANCH  17  18
ATOM     18  C   UNL     1       5.468  -4.973  -5.854  0.00  0.00    -0.020 C 
ATOM     19  C   UNL     1       6.000  -6.061  -4.919  0.00  0.00    +0.011 C 
ATOM     20  C   UNL     1       6.808  -7.078  -5.728  0.00  0.00    -0.010 C 
ATOM     21  C   UNL     1       5.909  -7.713  -6.792  0.00  0.00    +0.007 C 
ATOM     22  C   UNL     1       5.377  -6.625  -7.726  0.00  0.00    -0.010 C 
ATOM     23  C   UNL     1       4.570  -5.608  -6.917  0.00  0.00    +0.011 C 
ATOM     24  C   UNL     1       6.552  -5.918  -8.406  0.00  0.00    +0.007 C 
ATOM     25  C   UNL     1       7.450  -5.283  -7.343  0.00  0.00    -0.010 C 
ATOM     26  C   UNL     1       7.982  -6.372  -6.409  0.00  0.00    +0.007 C 
ATOM     27  C   UNL     1       6.642  -4.266  -6.534  0.00  0.00    +0.011 C 
ENDBRANCH  17  18
ENDBRANCH   2  17
TORSDOF 5
