REMARK  Name = ZINC31948959
REMARK  3 active torsions:
REMARK  status: ('A' for Active; 'I' for Inactive)
REMARK    1  A    between atoms: C_1  and  C_2
REMARK    2  A    between atoms: C_2  and  C_4
REMARK    3  A    between atoms: C_2  and  N_11
REMARK                            x       y       z     vdW  Elec       q    Type
REMARK                         _______ _______ _______ _____ _____    ______ ____
ROOT
ATOM      1  N   UNL     1       3.536   3.412  -0.235  0.00  0.00    -0.322 N 
ATOM      2  C   UNL     1       2.915   3.454  -1.465  0.00  0.00    +0.130 A 
ATOM      3  C   UNL     1       1.705   2.755  -1.694  0.00  0.00    +0.040 A 
ATOM      4  C   UNL     1       1.084   1.995  -0.696  0.00  0.00    +0.013 A 
ATOM      5  C   UNL     1      -0.081   1.343  -0.975  0.00  0.00    +0.001 A 
ATOM      6  C   UNL     1      -0.658   1.420  -2.240  0.00  0.00    +0.002 A 
ATOM      7  C   UNL     1      -0.081   2.155  -3.232  0.00  0.00    +0.028 A 
ATOM      8  C   UNL     1       1.117   2.838  -2.980  0.00  0.00    +0.076 A 
ATOM      9  N   UNL     1       1.728   3.572  -3.921  0.00  0.00    -0.235 NA
ATOM     10  C   UNL     1       2.849   4.199  -3.653  0.00  0.00    +0.223 A 
ATOM     11  N   UNL     1       3.435   4.151  -2.467  0.00  0.00    -0.220 NA
ATOM     12  H   UNL     1       3.091   2.830   0.586  0.00  0.00    +0.148 HD
ENDROOT
BRANCH   1  14
ATOM     13  C   UNL     1       4.966   4.419   1.474  0.00  0.00    +0.033 C 
ATOM     14  C   UNL     1       4.787   4.143  -0.020  0.00  0.00    +0.100 C 
BRANCH  14  15
ATOM     15  C   UNL     1       5.944   3.317  -0.521  0.00  0.00    -0.009 A 
ATOM     16  C   UNL     1       5.831   1.941  -0.591  0.00  0.00    +0.007 A 
ATOM     17  C   UNL     1       6.892   1.183  -1.049  0.00  0.00    +0.000 A 
ATOM     18  C   UNL     1       8.066   1.800  -1.439  0.00  0.00    +0.001 A 
ATOM     19  C   UNL     1       8.179   3.176  -1.371  0.00  0.00    +0.020 A 
ATOM     20  C   UNL     1       7.116   3.936  -0.916  0.00  0.00    +0.046 A 
ATOM     21 CL   UNL     1       7.255   5.664  -0.836  0.00  0.00    -0.083 Cl
ENDBRANCH  14  15
ENDBRANCH   1  14
TORSDOF 2
