REMARK  Name = ZINC39695519
REMARK  12 active torsions:
REMARK  status: ('A' for Active; 'I' for Inactive)
REMARK    1  A    between atoms: C_1  and  C_2
REMARK    2  A    between atoms: C_2  and  N_3
REMARK    3  A    between atoms: C_7  and  C_9
REMARK    4  A    between atoms: C_9  and  N_10
REMARK    5  A    between atoms: C_11  and  C_13
REMARK    6  A    between atoms: C_24  and  C_26
REMARK    7  A    between atoms: C_28  and  O_36
REMARK    8  A    between atoms: C_29  and  O_34
REMARK    9  A    between atoms: C_30  and  O_32
REMARK   10  A    between atoms: O_32  and  C_33
REMARK   11  A    between atoms: O_34  and  C_35
REMARK   12  A    between atoms: O_36  and  C_37
REMARK                            x       y       z     vdW  Elec       q    Type
REMARK                         _______ _______ _______ _____ _____    ______ ____
ROOT
ATOM      1  C   UNL     1      -5.001   1.142  -4.072  0.00  0.00    +0.100 C 
ATOM      2  C   UNL     1      -4.305   2.157  -5.007  0.00  0.00    +0.121 C 
ATOM      3  N   UNL     1      -3.842   1.348  -6.159  0.00  0.00    -0.296 N 
ATOM      4  C   UNL     1      -4.943   0.385  -6.400  0.00  0.00    +0.115 C 
ATOM      5  C   UNL     1      -5.419  -0.018  -4.990  0.00  0.00    -0.004 C 
ATOM      6  C   UNL     1      -6.935  -0.186  -4.974  0.00  0.00    -0.010 C 
ATOM      7  C   UNL     1      -7.322  -1.382  -5.848  0.00  0.00    -0.082 C 
ATOM      8  N   UNL     1      -6.670  -2.595  -5.337  0.00  0.00    +0.379 N 
ATOM      9  C   UNL     1      -5.212  -2.462  -5.444  0.00  0.00    -0.082 C 
ATOM     10  C   UNL     1      -4.736  -1.311  -4.553  0.00  0.00    -0.010 C 
ATOM     11  C   UNL     1      -2.682   1.462  -6.835  0.00  0.00    +0.247 C 
ATOM     12  O   UNL     1      -2.488   0.788  -7.828  0.00  0.00    -0.270 OA
ATOM     13  H   UNL     1      -6.925  -2.730  -4.370  0.00  0.00    -0.086 HD
ATOM     14  H   UNL     1      -6.974  -3.391  -5.877  0.00  0.00    -0.086 HD
ENDROOT
BRANCH  11  15
ATOM     15  C   UNL     1      -1.645   2.405  -6.369  0.00  0.00    +0.044 A 
ATOM     16  C   UNL     1      -0.865   2.091  -5.253  0.00  0.00    +0.062 A 
ATOM     17  C   UNL     1       0.105   2.976  -4.819  0.00  0.00    +0.166 A 
ATOM     18  C   UNL     1       0.304   4.178  -5.493  0.00  0.00    +0.204 A 
ATOM     19  C   UNL     1      -0.473   4.492  -6.605  0.00  0.00    +0.166 A 
ATOM     20  C   UNL     1      -1.440   3.609  -7.046  0.00  0.00    +0.062 A 
BRANCH  19  21
ATOM     21  O   UNL     1      -0.276   5.668  -7.260  0.00  0.00    -0.491 OA
ATOM     22  C   UNL     1      -1.109   5.926  -8.393  0.00  0.00    +0.277 C 
ENDBRANCH  19  21
BRANCH  18  23
ATOM     23  O   UNL     1       1.258   5.046  -5.064  0.00  0.00    -0.488 OA
ATOM     24  C   UNL     1       2.567   4.895  -5.616  0.00  0.00    +0.277 C 
ENDBRANCH  18  23
BRANCH  17  25
ATOM     25  O   UNL     1       0.865   2.671  -3.733  0.00  0.00    -0.491 OA
ATOM     26  C   UNL     1       0.683   1.377  -3.157  0.00  0.00    +0.277 C 
ENDBRANCH  17  25
ENDBRANCH  11  15
BRANCH   1  28
ATOM     27  N   UNL     1      -6.617   1.355  -2.211  0.00  0.00    -0.317 N 
ATOM     28  C   UNL     1      -6.213   1.766  -3.430  0.00  0.00    +0.218 C 
ATOM     29  O   UNL     1      -6.826   2.638  -4.010  0.00  0.00    -0.275 OA
ATOM     30  H   UNL     1      -6.085   0.714  -1.715  0.00  0.00    +0.149 HD
BRANCH  27  31
ATOM     31  C   UNL     1      -7.858   1.878  -1.636  0.00  0.00    +0.089 C 
BRANCH  31  36
ATOM     32  N   UNL     1      -6.967   1.259   0.571  0.00  0.00    +0.382 N 
ATOM     33  C   UNL     1      -7.362   1.955   1.814  0.00  0.00    -0.078 C 
ATOM     34  C   UNL     1      -8.594   2.806   1.416  0.00  0.00    -0.020 C 
ATOM     35  C   UNL     1      -9.315   1.865   0.415  0.00  0.00    -0.016 C 
ATOM     36  C   UNL     1      -8.145   1.169  -0.311  0.00  0.00    -0.051 C 
ATOM     37  H   UNL     1      -6.236   1.779   0.110  0.00  0.00    -0.081 HD
BRANCH  32  39
ATOM     38  C   UNL     1      -5.082  -0.003   1.493  0.00  0.00    -0.017 C 
ATOM     39  C   UNL     1      -6.486  -0.092   0.893  0.00  0.00    -0.082 C 
ENDBRANCH  32  39
ENDBRANCH  31  36
ENDBRANCH  27  31
ENDBRANCH   1  28
TORSDOF 8
