REMARK  Name = ZINC21940293
REMARK  11 active torsions:
REMARK  status: ('A' for Active; 'I' for Inactive)
REMARK    1  A    between atoms: C_1  and  N_2
REMARK    2  A    between atoms: N_2  and  C_3
REMARK    3  A    between atoms: C_4  and  N_19
REMARK    4  A    between atoms: N_5  and  C_12
REMARK    5  A    between atoms: C_12  and  C_13
REMARK    6  A    between atoms: C_20  and  C_22
REMARK    7  A    between atoms: C_22  and  O_23
REMARK    8  A    between atoms: O_23  and  C_24
REMARK    9  A    between atoms: C_24  and  C_26
REMARK   10  A    between atoms: C_31  and  N_32
REMARK   11  A    between atoms: N_32  and  C_33
REMARK                            x       y       z     vdW  Elec       q    Type
REMARK                         _______ _______ _______ _____ _____    ______ ____
ROOT
ATOM      1  C   UNL     1       0.218   2.124   0.209  0.00  0.00    +0.138 C 
ATOM      2  N   UNL     1       0.216   0.659   0.228  0.00  0.00    -0.265 N 
ATOM      3  C   UNL     1       0.084  -0.031  -0.924  0.00  0.00    +0.257 C 
ATOM      4  O   UNL     1      -0.016  -1.240  -0.899  0.00  0.00    -0.272 OA
ENDROOT
BRANCH   2   5
ATOM      5  C   UNL     1       0.354  -0.031   1.452  0.00  0.00    +0.139 A 
ATOM      6  C   UNL     1      -0.628   0.053   2.418  0.00  0.00    +0.128 A 
ATOM      7  N   UNL     1      -0.465  -0.631   3.601  0.00  0.00    -0.276 N 
ATOM      8  C   UNL     1       0.638  -1.371   3.813  0.00  0.00    +0.331 A 
ATOM      9  O   UNL     1       0.763  -1.968   4.865  0.00  0.00    -0.246 OA
ATOM     10  N   UNL     1       1.604  -1.464   2.883  0.00  0.00    -0.273 N 
ATOM     11  H   UNL     1       2.390  -2.005   3.060  0.00  0.00    +0.173 HD
ATOM     12  C   UNL     1       1.492  -0.820   1.705  0.00  0.00    +0.277 A 
ATOM     13  O   UNL     1       2.372  -0.915   0.866  0.00  0.00    -0.266 OA
BRANCH   6  14
ATOM     14  N   UNL     1      -1.754   0.810   2.202  0.00  0.00    -0.343 N 
ATOM     15  H   UNL     1      -1.833   1.342   1.395  0.00  0.00    +0.144 HD
ATOM     16  H   UNL     1      -2.470   0.812   2.856  0.00  0.00    +0.144 HD
ENDBRANCH   6  14
BRANCH   7  17
ATOM     17  C   UNL     1      -1.499  -0.551   4.636  0.00  0.00    +0.163 C 
BRANCH  17  18
ATOM     18  C   UNL     1      -2.505  -1.654   4.427  0.00  0.00    -0.028 A 
ATOM     19  C   UNL     1      -3.610  -1.439   3.625  0.00  0.00    +0.005 A 
ATOM     20  C   UNL     1      -4.532  -2.451   3.433  0.00  0.00    +0.000 A 
ATOM     21  C   UNL     1      -4.349  -3.678   4.043  0.00  0.00    +0.000 A 
ATOM     22  C   UNL     1      -3.243  -3.893   4.845  0.00  0.00    +0.000 A 
ATOM     23  C   UNL     1      -2.319  -2.883   5.033  0.00  0.00    +0.005 A 
ENDBRANCH  17  18
ENDBRANCH   7  17
ENDBRANCH   2   5
BRANCH   3  24
ATOM     24  C   UNL     1       0.060   0.700  -2.241  0.00  0.00    +0.328 C 
BRANCH  24  25
ATOM     25  O   UNL     1      -0.087  -0.242  -3.306  0.00  0.00    -0.452 OA
BRANCH  25  26
ATOM     26  C   UNL     1      -0.127   0.252  -4.559  0.00  0.00    +0.341 C 
ATOM     27  O   UNL     1      -0.037   1.450  -4.743  0.00  0.00    -0.245 OA
BRANCH  26  28
ATOM     28  C   UNL     1      -0.278  -0.660  -5.706  0.00  0.00    +0.080 A 
ATOM     29  C   UNL     1      -0.510  -2.022  -5.496  0.00  0.00    +0.017 A 
ATOM     30  C   UNL     1      -0.650  -2.869  -6.573  0.00  0.00    +0.001 A 
ATOM     31  C   UNL     1      -0.561  -2.379  -7.866  0.00  0.00    +0.002 A 
ATOM     32  C   UNL     1      -0.333  -1.037  -8.091  0.00  0.00    +0.024 A 
ATOM     33  C   UNL     1      -0.195  -0.165  -7.018  0.00  0.00    +0.045 A 
BRANCH  33  34
ATOM     34  N   UNL     1       0.029   1.187  -7.241  0.00  0.00    -0.314 N 
ATOM     35  H   UNL     1      -0.702   1.761  -7.518  0.00  0.00    +0.152 HD
BRANCH  34  36
ATOM     36  C   UNL     1       1.309   1.721  -7.067  0.00  0.00    +0.031 A 
ATOM     37  C   UNL     1       2.381   0.884  -6.787  0.00  0.00    +0.023 A 
ATOM     38  C   UNL     1       3.644   1.415  -6.615  0.00  0.00    +0.002 A 
ATOM     39  C   UNL     1       3.842   2.780  -6.721  0.00  0.00    +0.000 A 
ATOM     40  C   UNL     1       2.777   3.616  -6.999  0.00  0.00    +0.002 A 
ATOM     41  C   UNL     1       1.512   3.091  -7.178  0.00  0.00    +0.023 A 
ENDBRANCH  34  36
ENDBRANCH  33  34
ENDBRANCH  26  28
ENDBRANCH  25  26
ENDBRANCH  24  25
ENDBRANCH   3  24
TORSDOF 10
