REMARK  Name = ZINC37766111
REMARK  4 active torsions:
REMARK  status: ('A' for Active; 'I' for Inactive)
REMARK    1  A    between atoms: N_4  and  C_6
REMARK    2  A    between atoms: C_11  and  N_12
REMARK    3  A    between atoms: C_13  and  C_15
REMARK    4  A    between atoms: C_18  and  O_22
REMARK                            x       y       z     vdW  Elec       q    Type
REMARK                         _______ _______ _______ _____ _____    ______ ____
ROOT
ATOM      1  N   UNL     1       3.953  -0.866  -0.220  0.00  0.00    -0.285 N 
ATOM      2  C   UNL     1       5.268  -1.073  -0.430  0.00  0.00    +0.203 C 
ATOM      3  O   UNL     1       5.680  -2.196  -0.628  0.00  0.00    -0.277 OA
ATOM      4  H   UNL     1       3.613   0.038  -0.129  0.00  0.00    +0.155 HD
ENDROOT
BRANCH   1  10
ATOM      5  C   UNL     1       1.962  -1.891   0.702  0.00  0.00    +0.087 A 
ATOM      6  C   UNL     1       1.095  -2.971   0.779  0.00  0.00    +0.031 A 
ATOM      7  C   UNL     1       1.341  -4.109   0.034  0.00  0.00    +0.022 A 
ATOM      8  C   UNL     1       2.451  -4.175  -0.790  0.00  0.00    +0.043 A 
ATOM      9  C   UNL     1       3.320  -3.103  -0.873  0.00  0.00    +0.045 A 
ATOM     10  C   UNL     1       3.077  -1.955  -0.133  0.00  0.00    +0.060 A 
ATOM     11 CL   UNL     1       2.752  -5.608  -1.723  0.00  0.00    -0.083 Cl
BRANCH   5  15
ATOM     12  C   UNL     1       0.768   0.720   2.783  0.00  0.00    +0.041 A 
ATOM     13  C   UNL     1       1.986   1.253   2.349  0.00  0.00    +0.135 A 
ATOM     14  N   UNL     1       2.555   0.382   1.554  0.00  0.00    -0.175 NA
ATOM     15  N   UNL     1       1.715  -0.735   1.458  0.00  0.00    -0.238 N 
ATOM     16  C   UNL     1       0.625  -0.503   2.222  0.00  0.00    +0.114 A 
ENDBRANCH   5  15
ENDBRANCH   1  10
BRANCH   2  17
ATOM     17  C   UNL     1       6.225   0.090  -0.417  0.00  0.00    +0.019 C 
ATOM     18  C   UNL     1       6.604   0.460   1.033  0.00  0.00    +0.023 C 
ATOM     19  C   UNL     1       8.095   0.852   0.970  0.00  0.00    +0.097 C 
ATOM     20  C   UNL     1       8.491   0.686  -0.513  0.00  0.00    -0.050 C 
ATOM     21  N   UNL     1       7.511  -0.290  -1.058  0.00  0.00    +0.388 N 
ATOM     22  H   UNL     1       7.769  -1.230  -0.799  0.00  0.00    -0.085 HD
ATOM     23  H   UNL     1       7.444  -0.203  -2.061  0.00  0.00    -0.085 HD
BRANCH  19  24
ATOM     24  O   UNL     1       8.270   2.209   1.384  0.00  0.00    -0.394 OA
ATOM     25  H   UNL     1       9.188   2.511   1.364  0.00  0.00    +0.210 HD
ENDBRANCH  19  24
ENDBRANCH   2  17
TORSDOF 4
