REMARK  Name = ZINC06802273
REMARK  13 active torsions:
REMARK  status: ('A' for Active; 'I' for Inactive)
REMARK    1  A    between atoms: C_1  and  C_2
REMARK    2  A    between atoms: C_2  and  C_3
REMARK    3  A    between atoms: C_2  and  N_4
REMARK    4  A    between atoms: N_7  and  C_8
REMARK    5  A    between atoms: C_8  and  C_9
REMARK    6  A    between atoms: C_13  and  O_29
REMARK    7  A    between atoms: C_14  and  O_27
REMARK    8  A    between atoms: N_22  and  C_23
REMARK    9  A    between atoms: C_23  and  C_24
REMARK   10  A    between atoms: C_23  and  C_25
REMARK   11  A    between atoms: C_23  and  C_26
REMARK   12  A    between atoms: O_27  and  C_28
REMARK   13  A    between atoms: O_29  and  C_30
REMARK                            x       y       z     vdW  Elec       q    Type
REMARK                         _______ _______ _______ _____ _____    ______ ____
ROOT
ATOM      1  C   UNL     1       0.134  -4.268   2.129  0.00  0.00    +0.125 C 
ATOM      2  C   UNL     1       0.261  -5.023   3.429  0.00  0.00    -0.019 A 
ATOM      3  C   UNL     1      -0.510  -4.594   4.502  0.00  0.00    +0.055 A 
ATOM      4  C   UNL     1      -0.447  -5.249   5.718  0.00  0.00    +0.162 A 
ATOM      5  C   UNL     1       0.396  -6.347   5.864  0.00  0.00    +0.162 A 
ATOM      6  C   UNL     1       1.163  -6.767   4.795  0.00  0.00    +0.053 A 
ATOM      7  C   UNL     1       1.100  -6.104   3.574  0.00  0.00    -0.037 A 
ATOM      8  C   UNL     1       1.974  -6.616   2.459  0.00  0.00    +0.054 C 
ATOM      9  C   UNL     1       1.462  -6.134   1.102  0.00  0.00    +0.114 C 
ATOM     10  N   UNL     1       1.194  -4.690   1.208  0.00  0.00    -0.277 N 
ATOM     11  C   UNL     1       1.894  -3.792   0.486  0.00  0.00    +0.303 C 
ATOM     12  O   UNL     1       1.722  -2.602   0.665  0.00  0.00    -0.253 OA
ATOM     13  N   UNL     1       2.785  -4.213  -0.433  0.00  0.00    -0.294 N 
ATOM     14  H   UNL     1       2.978  -5.160  -0.523  0.00  0.00    +0.151 HD
ENDROOT
BRANCH  13  15
ATOM     15  C   UNL     1       3.463  -3.242  -1.295  0.00  0.00    +0.028 C 
ATOM     16  C   UNL     1       4.259  -2.261  -0.431  0.00  0.00    +0.031 C 
ATOM     17  C   UNL     1       4.415  -3.977  -2.241  0.00  0.00    +0.031 C 
ATOM     18  C   UNL     1       2.423  -2.474  -2.113  0.00  0.00    +0.031 C 
ENDBRANCH  13  15
BRANCH   5  19
ATOM     19  O   UNL     1       0.465  -7.002   7.054  0.00  0.00    -0.491 OA
ATOM     20  C   UNL     1       1.352  -8.119   7.129  0.00  0.00    +0.277 C 
ENDBRANCH   5  19
BRANCH   4  21
ATOM     21  O   UNL     1      -1.204  -4.822   6.765  0.00  0.00    -0.491 OA
ATOM     22  C   UNL     1      -2.045  -3.689   6.539  0.00  0.00    +0.277 C 
ENDBRANCH   4  21
BRANCH   1  23
ATOM     23  C   UNL     1       0.259  -2.767   2.398  0.00  0.00    +0.133 C 
BRANCH  23  27
ATOM     24  N   UNL     1      -0.720   0.009   0.196  0.00  0.00    -0.297 N 
ATOM     25  C   UNL     1      -0.293  -0.677   1.274  0.00  0.00    +0.300 C 
ATOM     26  O   UNL     1       0.014  -0.084   2.290  0.00  0.00    -0.253 OA
ATOM     27  N   UNL     1      -0.205  -2.021   1.226  0.00  0.00    -0.297 N 
ATOM     28  H   UNL     1      -0.965  -0.464  -0.615  0.00  0.00    +0.150 HD
ATOM     29  H   UNL     1      -0.450  -2.494   0.415  0.00  0.00    +0.150 HD
BRANCH  24  31
ATOM     30  C   UNL     1       0.547   2.083  -0.085  0.00  0.00    +0.027 C 
ATOM     31  C   UNL     1      -0.815   1.470   0.248  0.00  0.00    +0.068 C 
ATOM     32  C   UNL     1      -1.852   1.951  -0.769  0.00  0.00    +0.027 C 
ENDBRANCH  24  31
ENDBRANCH  23  27
ENDBRANCH   1  23
TORSDOF 6
