REMARK  Name = ZINC36020327
REMARK  9 active torsions:
REMARK  status: ('A' for Active; 'I' for Inactive)
REMARK    1  A    between atoms: C_1  and  C_2
REMARK    2  A    between atoms: C_2  and  C_4
REMARK    3  A    between atoms: C_2  and  O_33
REMARK    4  A    between atoms: C_9  and  O_32
REMARK    5  A    between atoms: C_10  and  C_31
REMARK    6  A    between atoms: C_20  and  C_30
REMARK    7  A    between atoms: C_23  and  O_26
REMARK    8  A    between atoms: O_26  and  C_27
REMARK    9  A    between atoms: C_27  and  C_29
REMARK                            x       y       z     vdW  Elec       q    Type
REMARK                         _______ _______ _______ _____ _____    ______ ____
ROOT
ATOM      1  C   UNL     1       0.742  -0.511   1.242  0.00  0.00    +0.034 C 
ATOM      2  C   UNL     1      -0.064  -0.184   2.513  0.00  0.00    +0.084 C 
ATOM      3  C   UNL     1      -0.424  -1.515   3.159  0.00  0.00    +0.166 C 
ATOM      4  O   UNL     1      -0.691  -1.731   4.317  0.00  0.00    -0.294 OA
ATOM      5  C   UNL     1      -0.370  -2.506   2.014  0.00  0.00    +0.133 C 
ATOM      6  C   UNL     1       0.859  -2.059   1.200  0.00  0.00    +0.009 C 
ATOM      7  C   UNL     1       2.150  -2.420   1.942  0.00  0.00    +0.010 C 
ATOM      8  C   UNL     1       2.180  -3.910   2.265  0.00  0.00    +0.005 C 
ATOM      9  C   UNL     1       1.015  -4.239   3.206  0.00  0.00    +0.006 C 
ATOM     10  C   UNL     1      -0.300  -3.939   2.487  0.00  0.00    +0.036 C 
ATOM     11  C   UNL     1      -1.461  -4.221   3.449  0.00  0.00    +0.034 C 
ATOM     12  C   UNL     1      -1.357  -5.629   3.955  0.00  0.00    -0.027 C 
ATOM     13  C   UNL     1      -0.230  -6.274   4.032  0.00  0.00    -0.064 C 
ATOM     14  C   UNL     1       1.091  -5.704   3.602  0.00  0.00    -0.008 C 
ATOM     15  C   UNL     1       2.109  -5.891   4.731  0.00  0.00    +0.015 C 
ATOM     16  C   UNL     1       2.164  -7.369   5.124  0.00  0.00    +0.046 C 
ATOM     17  C   UNL     1       0.803  -7.809   5.667  0.00  0.00    +0.180 C 
ATOM     18  C   UNL     1      -0.247  -7.693   4.574  0.00  0.00    +0.075 C 
ATOM     19  C   UNL     1       1.593  -6.499   2.394  0.00  0.00    +0.016 C 
ATOM     20  C   UNL     1       0.835  -2.603  -0.229  0.00  0.00    +0.015 C 
ENDROOT
BRANCH   1  22
ATOM     21  C   UNL     1      -0.019   1.526   0.010  0.00  0.00    +0.038 C 
ATOM     22  C   UNL     1       0.002  -0.004   0.002  0.00  0.00    +0.116 C 
BRANCH  22  23
ATOM     23  O   UNL     1      -1.339  -0.499   0.012  0.00  0.00    -0.392 OA
ATOM     24  H   UNL     1      -1.853  -0.225   0.784  0.00  0.00    +0.210 HD
ENDBRANCH  22  23
ENDBRANCH   1  22
BRANCH   5  25
ATOM     25  O   UNL     1      -1.532  -2.340   1.199  0.00  0.00    -0.380 OA
ATOM     26  H   UNL     1      -2.365  -2.506   1.662  0.00  0.00    +0.211 HD
ENDBRANCH   5  25
BRANCH  17  27
ATOM     27  O   UNL     1       0.883  -9.164   6.113  0.00  0.00    -0.461 OA
BRANCH  27  28
ATOM     28  C   UNL     1       0.076  -9.521   7.124  0.00  0.00    +0.304 C 
ATOM     29  O   UNL     1      -0.674  -8.711   7.614  0.00  0.00    -0.251 OA
ATOM     30  C   UNL     1       0.105 -10.934   7.648  0.00  0.00    +0.136 C 
ENDBRANCH  27  28
ENDBRANCH  17  27
TORSDOF 5
