REMARK  Name = ZINC43764179
REMARK  8 active torsions:
REMARK  status: ('A' for Active; 'I' for Inactive)
REMARK    1  A    between atoms: C_2  and  C_3
REMARK    2  A    between atoms: C_5  and  O_16
REMARK    3  A    between atoms: O_16  and  C_17
REMARK    4  A    between atoms: C_19  and  O_32
REMARK    5  A    between atoms: C_21  and  O_31
REMARK    6  A    between atoms: C_23  and  O_30
REMARK    7  A    between atoms: C_25  and  C_28
REMARK    8  A    between atoms: C_28  and  O_29
REMARK                            x       y       z     vdW  Elec       q    Type
REMARK                         _______ _______ _______ _____ _____    ______ ____
ROOT
ATOM      1  C   UNL     1      -1.325  -1.649   3.641  0.00  0.00    +0.286 C 
ATOM      2  C   UNL     1      -0.998  -0.746   4.833  0.00  0.00    +0.201 C 
ATOM      3  C   UNL     1      -1.218  -1.529   6.132  0.00  0.00    +0.179 C 
ATOM      4  C   UNL     1      -2.661  -2.042   6.168  0.00  0.00    +0.177 C 
ATOM      5  C   UNL     1      -2.923  -2.895   4.924  0.00  0.00    +0.178 C 
ATOM      6  O   UNL     1      -2.671  -2.116   3.752  0.00  0.00    -0.340 OA
ENDROOT
BRANCH   4   7
ATOM      7  O   UNL     1      -2.857  -2.834   7.341  0.00  0.00    -0.386 OA
ATOM      8  H   UNL     1      -2.703  -2.356   8.168  0.00  0.00    +0.210 HD
ENDBRANCH   4   7
BRANCH   3   9
ATOM      9  O   UNL     1      -0.314  -2.635   6.181  0.00  0.00    -0.386 OA
ATOM     10  H   UNL     1       0.619  -2.382   6.156  0.00  0.00    +0.210 HD
ENDBRANCH   3   9
BRANCH   2  11
ATOM     11  O   UNL     1      -1.854   0.398   4.814  0.00  0.00    -0.384 OA
ATOM     12  H   UNL     1      -1.770   0.938   4.016  0.00  0.00    +0.210 HD
ENDBRANCH   2  11
BRANCH   1  13
ATOM     13  O   UNL     1      -1.176  -0.909   2.428  0.00  0.00    -0.309 OA
BRANCH  13  15
ATOM     14  C   UNL     1      -1.293  -0.775   0.010  0.00  0.00    +0.110 C 
ATOM     15  C   UNL     1      -1.349  -1.691   1.244  0.00  0.00    +0.320 C 
ATOM     16  O   UNL     1      -0.304  -2.663   1.156  0.00  0.00    -0.469 OA
ATOM     17  C   UNL     1      -0.248  -3.442   0.058  0.00  0.00    +0.205 C 
ATOM     18  C   UNL     1      -0.764  -3.017  -1.111  0.00  0.00    +0.097 C 
ATOM     19  C   UNL     1      -1.371  -1.661  -1.209  0.00  0.00    -0.018 C 
ATOM     20  C   UNL     1      -1.948  -1.290  -2.332  0.00  0.00    +0.019 C 
ATOM     21  C   UNL     1      -1.995  -2.186  -3.539  0.00  0.00    +0.260 C 
ATOM     22  O   UNL     1      -1.812  -3.559  -3.189  0.00  0.00    -0.457 OA
ATOM     23  C   UNL     1      -0.769  -3.827  -2.342  0.00  0.00    +0.343 C 
ATOM     24  O   UNL     1       0.082  -4.661  -2.585  0.00  0.00    -0.245 OA
BRANCH  14  26
ATOM     25  C   UNL     1      -0.016   1.306   0.009  0.00  0.00    +0.005 C 
ATOM     26  C   UNL     1       0.002  -0.004   0.002  0.00  0.00    -0.020 C 
ENDBRANCH  14  26
ENDBRANCH  13  15
ENDBRANCH   1  13
BRANCH   5  27
ATOM     27  C   UNL     1      -4.380  -3.361   4.923  0.00  0.00    +0.190 C 
BRANCH  27  28
ATOM     28  O   UNL     1      -4.594  -4.251   3.826  0.00  0.00    -0.392 OA
ATOM     29  H   UNL     1      -5.498  -4.588   3.763  0.00  0.00    +0.210 HD
ENDBRANCH  27  28
ENDBRANCH   5  27
TORSDOF 8
