REMARK  Name = ZINC48950624
REMARK  6 active torsions:
REMARK  status: ('A' for Active; 'I' for Inactive)
REMARK    1  A    between atoms: C_1  and  C_2
REMARK    2  A    between atoms: C_2  and  C_3
REMARK    3  A    between atoms: C_2  and  N_4
REMARK    4  A    between atoms: C_11  and  C_14
REMARK    5  A    between atoms: N_16  and  N_17
REMARK    6  A    between atoms: N_20  and  C_21
REMARK                            x       y       z     vdW  Elec       q    Type
REMARK                         _______ _______ _______ _____ _____    ______ ____
ROOT
ATOM      1  N   UNL     1      -1.372  -0.511   0.013  0.00  0.00    -0.297 N 
ATOM      2  C   UNL     1      -1.643  -1.734  -0.485  0.00  0.00    +0.302 C 
ATOM      3  O   UNL     1      -0.765  -2.379  -1.025  0.00  0.00    -0.253 OA
ATOM      4  N   UNL     1      -2.888  -2.242  -0.385  0.00  0.00    -0.285 N 
ATOM      5  C   UNL     1      -3.985  -1.431   0.160  0.00  0.00    +0.109 C 
ATOM      6  C   UNL     1      -4.652  -2.206   1.301  0.00  0.00    +0.020 C 
ATOM      7  C   UNL     1      -5.080  -3.585   0.794  0.00  0.00    +0.016 C 
ATOM      8  C   UNL     1      -3.848  -4.367   0.335  0.00  0.00    +0.094 C 
ATOM      9  C   UNL     1      -3.173  -3.615  -0.823  0.00  0.00    +0.122 C 
ATOM     10  H   UNL     1      -2.087   0.033   0.378  0.00  0.00    +0.150 HD
ENDROOT
BRANCH   8  11
ATOM     11  C   UNL     1      -4.267  -5.737  -0.132  0.00  0.00    +0.234 C 
ATOM     12  O   UNL     1      -5.436  -6.057  -0.102  0.00  0.00    -0.274 OA
ATOM     13  N   UNL     1      -3.342  -6.607  -0.585  0.00  0.00    -0.233 N 
ATOM     14  H   UNL     1      -2.406  -6.351  -0.610  0.00  0.00    +0.173 HD
BRANCH  13  15
ATOM     15  N   UNL     1      -3.731  -7.880  -1.020  0.00  0.00    -0.218 N 
ATOM     16  C   UNL     1      -2.807  -8.750  -1.472  0.00  0.00    +0.316 C 
ATOM     17  O   UNL     1      -3.145  -9.855  -1.849  0.00  0.00    -0.251 OA
ATOM     18  N   UNL     1      -1.507  -8.395  -1.506  0.00  0.00    -0.301 N 
ATOM     19  C   UNL     1      -0.502  -9.340  -1.998  0.00  0.00    +0.129 C 
ATOM     20  H   UNL     1      -4.667  -8.136  -0.995  0.00  0.00    +0.174 HD
ATOM     21  H   UNL     1      -1.237  -7.513  -1.205  0.00  0.00    +0.150 HD
ENDBRANCH  13  15
ENDBRANCH   8  11
BRANCH   1  23
ATOM     22  C   UNL     1      -0.017   1.525   0.013  0.00  0.00    +0.027 C 
ATOM     23  C   UNL     1       0.003  -0.005   0.004  0.00  0.00    +0.068 C 
ATOM     24  C   UNL     1       0.741  -0.513   1.244  0.00  0.00    +0.027 C 
ENDBRANCH   1  23
TORSDOF 3
