REMARK  Name = ZINC01819094
REMARK  6 active torsions:
REMARK  status: ('A' for Active; 'I' for Inactive)
REMARK    1  A    between atoms: C_1  and  C_2
REMARK    2  A    between atoms: C_5  and  N_8
REMARK    3  A    between atoms: C_12  and  C_13
REMARK    4  A    between atoms: C_15  and  C_27
REMARK    5  A    between atoms: N_16  and  C_19
REMARK    6  A    between atoms: C_17  and  C_18
REMARK                            x       y       z     vdW  Elec       q    Type
REMARK                         _______ _______ _______ _____ _____    ______ ____
ROOT
ATOM      1  N   UNL     1      -6.867   6.141   1.040  0.00  0.00    -0.216 N 
ATOM      2  C   UNL     1      -5.524   6.253   1.105  0.00  0.00    +0.262 C 
ATOM      3  O   UNL     1      -5.002   7.153   1.735  0.00  0.00    -0.269 OA
ATOM      4  C   UNL     1      -4.707   5.255   0.390  0.00  0.00    +0.102 C 
ATOM      5  C   UNL     1      -3.323   5.306   0.411  0.00  0.00    +0.028 C 
ATOM      6  C   UNL     1      -5.428   4.204  -0.352  0.00  0.00    +0.274 C 
ATOM      7  O   UNL     1      -4.823   3.348  -0.970  0.00  0.00    -0.268 OA
ATOM      8  N   UNL     1      -6.776   4.214  -0.322  0.00  0.00    -0.153 NA
ATOM      9  C   UNL     1      -7.456   5.154   0.349  0.00  0.00    +0.171 C 
ATOM     10  S   UNL     1      -9.166   5.092   0.324  0.00  0.00    -0.016 S 
ENDROOT
BRANCH   1  15
ATOM     11  C   UNL     1     -10.099   9.934   3.754  0.00  0.00    +0.044 C 
ATOM     12  C   UNL     1      -9.241   8.927   3.034  0.00  0.00    -0.050 A 
ATOM     13  C   UNL     1      -8.910   7.735   3.651  0.00  0.00    +0.005 A 
ATOM     14  C   UNL     1      -8.123   6.810   2.993  0.00  0.00    +0.024 A 
ATOM     15  C   UNL     1      -7.665   7.077   1.710  0.00  0.00    +0.043 A 
ATOM     16  C   UNL     1      -7.994   8.278   1.095  0.00  0.00    +0.024 A 
ATOM     17  C   UNL     1      -8.786   9.197   1.756  0.00  0.00    +0.005 A 
ENDBRANCH   1  15
BRANCH   5  18
ATOM     18  C   UNL     1      -2.567   4.235  -0.125  0.00  0.00    -0.003 A 
ATOM     19  C   UNL     1      -2.788   2.798   0.094  0.00  0.00    +0.031 A 
ATOM     20  C   UNL     1      -1.841   2.157  -0.610  0.00  0.00    +0.022 A 
ATOM     21  N   UNL     1      -1.047   3.077  -1.239  0.00  0.00    -0.317 N 
ATOM     22  C   UNL     1      -1.467   4.326  -0.964  0.00  0.00    +0.028 A 
ATOM     23  C   UNL     1      -0.849   5.601  -1.479  0.00  0.00    +0.064 C 
ATOM     24  C   UNL     1      -1.676   0.661  -0.692  0.00  0.00    +0.064 C 
BRANCH  21  25
ATOM     25  C   UNL     1       0.045   2.763  -2.059  0.00  0.00    +0.048 A 
ATOM     26  C   UNL     1       1.164   2.143  -1.518  0.00  0.00    +0.027 A 
ATOM     27  C   UNL     1       2.238   1.829  -2.328  0.00  0.00    +0.023 A 
ATOM     28  C   UNL     1       2.200   2.131  -3.678  0.00  0.00    +0.059 A 
ATOM     29  C   UNL     1       1.085   2.749  -4.220  0.00  0.00    +0.061 A 
ATOM     30  C   UNL     1       0.009   3.065  -3.413  0.00  0.00    +0.047 A 
ATOM     31 CL   UNL     1       1.040   3.127  -5.914  0.00  0.00    -0.082 Cl
ATOM     32 CL   UNL     1       3.551   1.736  -4.694  0.00  0.00    -0.082 Cl
ENDBRANCH  21  25
ENDBRANCH   5  18
TORSDOF 3
