REMARK  Name = ZINC13068484
REMARK  10 active torsions:
REMARK  status: ('A' for Active; 'I' for Inactive)
REMARK    1  A    between atoms: C_1  and  N_2
REMARK    2  A    between atoms: N_2  and  C_3
REMARK    3  A    between atoms: N_2  and  C_4
REMARK    4  A    between atoms: C_7  and  C_10
REMARK    5  A    between atoms: C_10  and  C_12
REMARK    6  A    between atoms: C_10  and  C_26
REMARK    7  A    between atoms: C_12  and  N_13
REMARK    8  A    between atoms: N_13  and  S_14
REMARK    9  A    between atoms: S_14  and  C_17
REMARK   10  A    between atoms: C_21  and  C_23
REMARK                            x       y       z     vdW  Elec       q    Type
REMARK                         _______ _______ _______ _____ _____    ______ ____
ROOT
ATOM      1  C   UNL     1      -0.006  -2.813  -4.924  0.00  0.00    +0.066 C 
ENDROOT
BRANCH   1   2
ATOM      2  C   UNL     1       1.215  -2.433  -5.721  0.00  0.00    -0.014 A 
ATOM      3  C   UNL     1       1.544  -1.200  -6.139  0.00  0.00    +0.088 A 
ATOM      4  N   UNL     1       2.722  -1.242  -6.834  0.00  0.00    -0.360 N 
ATOM      5  H   UNL     1       3.160  -0.474  -7.234  0.00  0.00    +0.165 HD
ATOM      6  C   UNL     1       3.192  -2.535  -6.881  0.00  0.00    +0.047 A 
ATOM      7  C   UNL     1       2.272  -3.337  -6.180  0.00  0.00    +0.003 A 
ATOM      8  C   UNL     1       2.496  -4.709  -6.058  0.00  0.00    +0.010 A 
ATOM      9  C   UNL     1       3.611  -5.267  -6.617  0.00  0.00    +0.001 A 
ATOM     10  C   UNL     1       4.524  -4.480  -7.305  0.00  0.00    +0.002 A 
ATOM     11  C   UNL     1       4.318  -3.125  -7.446  0.00  0.00    +0.026 A 
ENDBRANCH   1   2
BRANCH   1  15
ATOM     12  C   UNL     1       0.000  -0.696  -1.211  0.00  0.00    +0.029 A 
ATOM     13  C   UNL     1       0.013  -2.085  -1.221  0.00  0.00    +0.023 A 
ATOM     14  C   UNL     1       0.010  -2.766  -2.422  0.00  0.00    +0.006 A 
ATOM     15  C   UNL     1      -0.005  -2.066  -3.615  0.00  0.00    -0.039 A 
ATOM     16  C   UNL     1      -0.018  -0.684  -3.609  0.00  0.00    +0.006 A 
ATOM     17  C   UNL     1      -0.021   0.004  -2.411  0.00  0.00    +0.023 A 
BRANCH  12  19
ATOM     18  C   UNL     1      -0.018   1.461   0.010  0.00  0.00    +0.129 C 
ATOM     19  N   UNL     1       0.002  -0.004   0.002  0.00  0.00    -0.336 N 
ATOM     20  C   UNL     1       0.024  -0.743   1.267  0.00  0.00    +0.129 C 
ENDBRANCH  12  19
ENDBRANCH   1  15
BRANCH   1  21
ATOM     21  C   UNL     1      -1.265  -2.451  -5.716  0.00  0.00    +0.118 C 
BRANCH  21  22
ATOM     22  N   UNL     1      -1.327  -3.265  -6.933  0.00  0.00    -0.189 NA
ATOM     23  H   UNL     1      -0.540  -3.744  -7.236  0.00  0.00    +0.148 HD
BRANCH  22  24
ATOM     24  S   UNL     1      -2.740  -3.365  -7.790  0.00  0.00    +0.058 S 
ATOM     25  O   UNL     1      -2.475  -4.194  -8.914  0.00  0.00    -0.153 OA
ATOM     26  O   UNL     1      -3.765  -3.660  -6.851  0.00  0.00    -0.153 OA
BRANCH  24  27
ATOM     27  C   UNL     1      -3.083  -1.756  -8.420  0.00  0.00    +0.106 A 
ATOM     28  C   UNL     1      -3.833  -0.867  -7.671  0.00  0.00    +0.028 A 
ATOM     29  C   UNL     1      -4.107   0.399  -8.158  0.00  0.00    +0.003 A 
ATOM     30  C   UNL     1      -3.634   0.783  -9.396  0.00  0.00    +0.015 A 
ATOM     31  C   UNL     1      -2.876  -0.109 -10.157  0.00  0.00    +0.065 A 
ATOM     32  C   UNL     1      -2.598  -1.384  -9.656  0.00  0.00    +0.043 A 
BRANCH  31  33
ATOM     33  C   UNL     1      -2.366   0.294 -11.482  0.00  0.00    +0.387 C 
ATOM     34  O   UNL     1      -2.607   1.412 -11.915  0.00  0.00    -0.241 OA
ATOM     35  O   UNL     1      -1.702  -0.489 -12.146  0.00  0.00    -0.241 OA
ENDBRANCH  31  33
ENDBRANCH  24  27
ENDBRANCH  22  24
ENDBRANCH  21  22
ENDBRANCH   1  21
TORSDOF 8
