REMARK  Name = ZINC20910561
REMARK  11 active torsions:
REMARK  status: ('A' for Active; 'I' for Inactive)
REMARK    1  A    between atoms: C_1  and  C_2
REMARK    2  A    between atoms: C_6  and  C_29
REMARK    3  A    between atoms: C_7  and  N_8
REMARK    4  A    between atoms: C_9  and  C_11
REMARK    5  A    between atoms: C_11  and  S_12
REMARK    6  A    between atoms: S_12  and  C_13
REMARK    7  A    between atoms: N_18  and  N_19
REMARK    8  A    between atoms: C_20  and  C_21
REMARK    9  A    between atoms: N_24  and  C_26
REMARK   10  A    between atoms: C_26  and  C_27
REMARK   11  A    between atoms: C_26  and  C_28
REMARK                            x       y       z     vdW  Elec       q    Type
REMARK                         _______ _______ _______ _____ _____    ______ ____
ROOT
ATOM      1  C   UNL     1       0.371  -0.478  -1.692  0.00  0.00    +0.211 A 
ATOM      2  N   UNL     1       0.500   0.698  -2.376  0.00  0.00    -0.186 NA
ATOM      3  C   UNL     1       1.681   1.276  -2.004  0.00  0.00    +0.232 A 
ATOM      4  N   UNL     1       2.258   0.491  -1.127  0.00  0.00    -0.245 N 
ATOM      5  N   UNL     1       1.429  -0.620  -0.929  0.00  0.00    -0.144 NA
ATOM      6  N   UNL     1       2.182   2.482  -2.473  0.00  0.00    -0.205 N 
ATOM      7  H   UNL     1       1.613   3.064  -3.213  0.00  0.00    +0.177 HD
ATOM      8  H   UNL     1       3.230   0.771  -0.693  0.00  0.00    +0.192 HD
ENDROOT
BRANCH   6   9
ATOM      9  N   UNL     1       3.413   2.959  -2.003  0.00  0.00    -0.187 NA
ATOM     10  C   UNL     1       3.881   4.087  -2.442  0.00  0.00    +0.141 C 
BRANCH  10  11
ATOM     11  C   UNL     1       5.178   4.590  -1.947  0.00  0.00    +0.032 A 
ATOM     12  C   UNL     1       6.013   3.961  -0.999  0.00  0.00    +0.143 A 
ATOM     13  N   UNL     1       7.068   4.710  -0.826  0.00  0.00    -0.179 NA
ATOM     14  N   UNL     1       6.955   5.844  -1.638  0.00  0.00    -0.268 N 
ATOM     15  C   UNL     1       5.795   5.764  -2.321  0.00  0.00    +0.118 A 
BRANCH  14  16
ATOM     16  C   UNL     1       7.930   6.934  -1.729  0.00  0.00    +0.101 C 
ATOM     17  C   UNL     1       8.871   6.679  -2.909  0.00  0.00    +0.032 C 
ATOM     18  C   UNL     1       7.196   8.259  -1.940  0.00  0.00    +0.032 C 
ENDBRANCH  14  16
ENDBRANCH  10  11
ENDBRANCH   6   9
BRANCH   1  19
ATOM     19  S   UNL     1      -0.978  -1.604  -1.813  0.00  0.00    -0.075 S 
BRANCH  19  20
ATOM     20  C   UNL     1      -0.539  -2.939  -0.666  0.00  0.00    +0.173 C 
BRANCH  20  22
ATOM     21  N   UNL     1      -1.514  -5.077   0.109  0.00  0.00    -0.284 N 
ATOM     22  C   UNL     1      -1.625  -3.985  -0.673  0.00  0.00    +0.228 C 
ATOM     23  O   UNL     1      -2.599  -3.843  -1.382  0.00  0.00    -0.275 OA
ATOM     24  H   UNL     1      -0.604  -5.235   0.707  0.00  0.00    +0.155 HD
BRANCH  21  31
ATOM     25  C   UNL     1      -4.137  -4.132   0.676  0.00  0.00    +0.045 C 
ATOM     26  C   UNL     1      -3.851  -5.591   0.433  0.00  0.00    -0.029 A 
ATOM     27  C   UNL     1      -4.878  -6.514   0.478  0.00  0.00    +0.005 A 
ATOM     28  C   UNL     1      -4.615  -7.854   0.261  0.00  0.00    +0.001 A 
ATOM     29  C   UNL     1      -3.325  -8.275  -0.006  0.00  0.00    +0.005 A 
ATOM     30  C   UNL     1      -2.295  -7.356  -0.057  0.00  0.00    -0.029 A 
ATOM     31  C   UNL     1      -2.555  -6.010   0.160  0.00  0.00    +0.039 A 
ATOM     32  C   UNL     1      -0.889  -7.815  -0.348  0.00  0.00    +0.045 C 
ENDBRANCH  21  31
ENDBRANCH  20  22
ENDBRANCH  19  20
ENDBRANCH   1  19
TORSDOF 7
