REMARK  Name = ZINC40383427
REMARK  6 active torsions:
REMARK  status: ('A' for Active; 'I' for Inactive)
REMARK    1  A    between atoms: C_1  and  C_2
REMARK    2  A    between atoms: C_5  and  C_36
REMARK    3  A    between atoms: C_22  and  C_24
REMARK    4  A    between atoms: N_26  and  C_27
REMARK    5  A    between atoms: C_30  and  C_33
REMARK    6  A    between atoms: C_33  and  C_35
REMARK                            x       y       z     vdW  Elec       q    Type
REMARK                         _______ _______ _______ _____ _____    ______ ____
ROOT
ATOM      1  C   UNL     1       2.528  -2.189   0.392  0.00  0.00    +0.009 C 
ATOM      2  C   UNL     1       1.932  -1.259  -0.667  0.00  0.00    +0.004 C 
ATOM      3  C   UNL     1       0.413  -1.440  -0.709  0.00  0.00    +0.009 C 
ATOM      4  C   UNL     1      -0.177  -1.133   0.669  0.00  0.00    +0.004 C 
ATOM      5  C   UNL     1       0.126   0.322   1.038  0.00  0.00    +0.111 C 
ATOM      6  N   UNL     1       1.576   0.543   0.939  0.00  0.00    -0.301 N 
ATOM      7  C   UNL     1       2.260   0.195  -0.314  0.00  0.00    +0.111 C 
ATOM      8  C   UNL     1       2.276   1.063   1.995  0.00  0.00    +0.200 A 
ATOM      9  N   UNL     1       1.600   1.478   3.101  0.00  0.00    -0.295 N 
ATOM     10  H   UNL     1       0.635   1.392   3.140  0.00  0.00    +0.172 HD
ATOM     11  C   UNL     1       2.273   2.009   4.144  0.00  0.00    +0.258 A 
ATOM     12  O   UNL     1       1.677   2.400   5.136  0.00  0.00    -0.267 OA
ATOM     13  C   UNL     1       3.666   2.102   4.066  0.00  0.00    +0.069 A 
ATOM     14  C   UNL     1       4.308   1.647   2.929  0.00  0.00    +0.138 A 
ATOM     15  N   UNL     1       3.587   1.145   1.919  0.00  0.00    -0.200 NA
ATOM     16  N   UNL     1       5.689   1.688   2.844  0.00  0.00    -0.270 N 
ATOM     17  C   UNL     1       6.442   1.916   3.934  0.00  0.00    +0.219 C 
ATOM     18  O   UNL     1       7.641   2.054   3.816  0.00  0.00    -0.275 OA
ATOM     19  C   UNL     1       5.814   2.004   5.300  0.00  0.00    +0.114 C 
ATOM     20  C   UNL     1       4.455   2.700   5.200  0.00  0.00    +0.122 C 
ATOM     21  C   UNL     1      -1.692  -1.347   0.636  0.00  0.00    +0.009 C 
ATOM     22  H   UNL     1       6.120   1.549   1.986  0.00  0.00    +0.156 HD
ENDROOT
BRANCH  20  23
ATOM     23  C   UNL     1       3.700   2.513   6.490  0.00  0.00    +0.225 C 
ATOM     24  O   UNL     1       3.524   1.399   6.935  0.00  0.00    -0.275 OA
ATOM     25  N   UNL     1       3.219   3.585   7.151  0.00  0.00    -0.285 N 
ATOM     26  H   UNL     1       3.294   4.470   6.759  0.00  0.00    +0.155 HD
BRANCH  25  27
ATOM     27  C   UNL     1       2.614   3.423   8.400  0.00  0.00    +0.033 A 
ATOM     28  C   UNL     1       3.065   2.434   9.267  0.00  0.00    +0.024 A 
ATOM     29  C   UNL     1       2.469   2.271  10.499  0.00  0.00    +0.010 A 
ATOM     30  C   UNL     1       1.412   3.101  10.877  0.00  0.00    -0.023 A 
ATOM     31  C   UNL     1       0.962   4.093  10.004  0.00  0.00    +0.010 A 
ATOM     32  C   UNL     1       1.565   4.255   8.776  0.00  0.00    +0.024 A 
BRANCH  30  33
ATOM     33  C   UNL     1       0.771   2.929  12.197  0.00  0.00    -0.050 C 
ATOM     34  C   UNL     1       1.463   3.158  13.305  0.00  0.00    +0.012 C 
ATOM     35  C   UNL     1      -0.669   2.493  12.284  0.00  0.00    +0.044 C 
ENDBRANCH  30  33
ENDBRANCH  25  27
ENDBRANCH  20  23
TORSDOF 3
