REMARK  Name = ZINC04161776
REMARK  11 active torsions:
REMARK  status: ('A' for Active; 'I' for Inactive)
REMARK    1  A    between atoms: C_1  and  C_2
REMARK    2  A    between atoms: C_2  and  C_3
REMARK    3  A    between atoms: C_3  and  C_4
REMARK    4  A    between atoms: C_3  and  C_5
REMARK    5  A    between atoms: C_3  and  N_6
REMARK    6  A    between atoms: C_7  and  C_11
REMARK    7  A    between atoms: C_11  and  C_13
REMARK    8  A    between atoms: C_11  and  N_65
REMARK    9  A    between atoms: C_18  and  C_26
REMARK   10  A    between atoms: C_19  and  C_25
REMARK   11  A    between atoms: C_30  and  C_33
REMARK                            x       y       z     vdW  Elec       q    Type
REMARK                         _______ _______ _______ _____ _____    ______ ____
ROOT
ATOM      1  C   UNL     1      -1.515   2.429  -4.202  0.00  0.00    +0.039 C 
ENDROOT
BRANCH   1   2
ATOM      2  C   UNL     1      -1.033   3.765  -4.704  0.00  0.00    +0.011 A 
ATOM      3  C   UNL     1      -1.230   4.879  -3.957  0.00  0.00    +0.017 A 
ATOM      4  C   UNL     1      -0.746   6.161  -4.472  0.00  0.00    -0.001 A 
ATOM      5  C   UNL     1      -0.916   7.344  -3.745  0.00  0.00    +0.010 A 
ATOM      6  C   UNL     1      -0.457   8.525  -4.255  0.00  0.00    +0.004 A 
ATOM      7  C   UNL     1       0.177   8.562  -5.489  0.00  0.00    -0.046 A 
ATOM      8  C   UNL     1       0.355   7.410  -6.224  0.00  0.00    -0.024 A 
ATOM      9  C   UNL     1      -0.104   6.195  -5.724  0.00  0.00    +0.052 A 
ATOM     10  N   UNL     1       0.061   5.027  -6.437  0.00  0.00    -0.322 N 
ATOM     11  H   UNL     1       0.518   5.052  -7.327  0.00  0.00    +0.169 HD
ATOM     12  C   UNL     1      -0.383   3.853  -5.954  0.00  0.00    +0.251 A 
ATOM     13  O   UNL     1      -0.220   2.840  -6.612  0.00  0.00    -0.268 OA
ATOM     14  C   UNL     1       1.045   7.464  -7.562  0.00  0.00    +0.046 C 
ATOM     15  C   UNL     1       0.676   9.876  -6.032  0.00  0.00    +0.044 C 
ENDBRANCH   1   2
BRANCH   1  22
ATOM     16  C   UNL     1      -3.625   2.600  -5.376  0.00  0.00    -0.077 C 
ATOM     17  C   UNL     1      -4.448   2.017  -6.528  0.00  0.00    -0.018 C 
ATOM     18  C   UNL     1      -4.789   0.557  -6.216  0.00  0.00    -0.001 C 
ATOM     19  C   UNL     1      -3.493  -0.226  -5.996  0.00  0.00    -0.031 C 
ATOM     20  C   UNL     1      -2.698   0.421  -4.860  0.00  0.00    -0.074 C 
ATOM     21  C   UNL     1      -3.827  -1.673  -5.626  0.00  0.00    +0.005 C 
ATOM     22  N   UNL     1      -2.380   1.817  -5.232  0.00  0.00    +0.389 N 
ATOM     23  H   UNL     1      -1.880   1.817  -6.129  0.00  0.00    -0.080 HD
ENDBRANCH   1  22
BRANCH   1  25
ATOM     24  N   UNL     1       0.109   1.092  -2.760  0.00  0.00    -0.225 N 
ATOM     25  C   UNL     1      -0.333   1.528  -3.954  0.00  0.00    +0.143 A 
ATOM     26  N   UNL     1       0.466   1.019  -4.859  0.00  0.00    -0.115 NA
ATOM     27  N   UNL     1       1.353   0.307  -4.253  0.00  0.00    -0.023 NA
ATOM     28  N   UNL     1       1.143   0.353  -2.984  0.00  0.00    -0.043 NA
BRANCH  24  29
ATOM     29  C   UNL     1      -0.471   1.403  -1.451  0.00  0.00    +0.061 C 
ATOM     30  C   UNL     1      -1.909   0.885  -1.395  0.00  0.00    +0.036 C 
ATOM     31  C   UNL     1      -0.466   2.918  -1.237  0.00  0.00    +0.036 C 
BRANCH  29  33
ATOM     32  C   UNL     1      -0.249   1.055   1.013  0.00  0.00    +0.006 C 
ATOM     33  C   UNL     1       0.356   0.731  -0.353  0.00  0.00    +0.026 C 
ENDBRANCH  29  33
ENDBRANCH  24  29
ENDBRANCH   1  25
TORSDOF 5
