REMARK  Name = ZINC14187470
REMARK  4 active torsions:
REMARK  status: ('A' for Active; 'I' for Inactive)
REMARK    1  A    between atoms: C_1  and  C_2
REMARK    2  A    between atoms: C_2  and  C_22
REMARK    3  A    between atoms: N_5  and  C_9
REMARK    4  A    between atoms: C_9  and  N_10
REMARK                            x       y       z     vdW  Elec       q    Type
REMARK                         _______ _______ _______ _____ _____    ______ ____
ROOT
ATOM      1  C   UNL     1       6.267  -4.971   4.288  0.00  0.00    +0.047 C 
ATOM      2  C   UNL     1       7.414  -4.771   3.295  0.00  0.00    +0.135 C 
ATOM      3  C   UNL     1       7.631  -3.298   3.010  0.00  0.00    +0.252 C 
ATOM      4  O   UNL     1       7.942  -2.436   3.803  0.00  0.00    -0.272 OA
ATOM      5  N   UNL     1       7.404  -3.146   1.690  0.00  0.00    -0.210 N 
ATOM      6  C   UNL     1       7.084  -4.307   1.107  0.00  0.00    +0.311 C 
ATOM      7  O   UNL     1       6.839  -4.423  -0.078  0.00  0.00    -0.252 OA
ATOM      8  N   UNL     1       7.064  -5.331   1.979  0.00  0.00    -0.281 N 
ATOM      9  H   UNL     1       6.851  -6.405   1.877  0.00  0.00    +0.152 HD
ENDROOT
BRANCH   2  10
ATOM     10  C   UNL     1       8.681  -5.397   3.818  0.00  0.00    -0.015 A 
ATOM     11  C   UNL     1       9.537  -4.662   4.616  0.00  0.00    +0.007 A 
ATOM     12  C   UNL     1      10.697  -5.238   5.099  0.00  0.00    +0.015 A 
ATOM     13  C   UNL     1      11.006  -6.547   4.777  0.00  0.00    +0.018 A 
ATOM     14  C   UNL     1      10.151  -7.281   3.974  0.00  0.00    +0.015 A 
ATOM     15  C   UNL     1       8.989  -6.706   3.495  0.00  0.00    +0.007 A 
ATOM     16 BR   UNL     1      12.596  -7.332   5.432  0.00  0.00    -0.050 Br
ENDBRANCH   2  10
BRANCH   5  17
ATOM     17  C   UNL     1       7.501  -1.868   0.980  0.00  0.00    +0.205 C 
BRANCH  17  18
ATOM     18  N   UNL     1       6.193  -1.198   0.996  0.00  0.00    -0.283 NA
ATOM     19  C   UNL     1       6.061  -0.273  -0.138  0.00  0.00    +0.105 C 
ATOM     20  C   UNL     1       4.722   0.461  -0.041  0.00  0.00    +0.122 C 
ATOM     21  N   UNL     1       3.628  -0.520  -0.035  0.00  0.00    -0.314 N 
ATOM     22  C   UNL     1       3.760  -1.445   1.099  0.00  0.00    +0.122 C 
ATOM     23  C   UNL     1       5.099  -2.179   1.002  0.00  0.00    +0.105 C 
ATOM     24  C   UNL     1       2.391   0.114  -0.020  0.00  0.00    +0.099 A 
ATOM     25  C   UNL     1       1.226  -0.647  -0.013  0.00  0.00    +0.042 A 
ATOM     26  C   UNL     1       0.002  -0.004   0.002  0.00  0.00    +0.005 A 
ATOM     27  C   UNL     1      -0.017   1.385   0.010  0.00  0.00    +0.018 A 
ATOM     28  C   UNL     1       1.177   2.077   0.002  0.00  0.00    +0.084 A 
ATOM     29  N   UNL     1       2.331   1.437  -0.013  0.00  0.00    -0.350 N 
ATOM     30  H   UNL     1       3.258   2.029  -0.019  0.00  0.00    +0.166 HD
ENDBRANCH  17  18
ENDBRANCH   5  17
TORSDOF 3
