REMARK  Name = ZINC01449300
REMARK  9 active torsions:
REMARK  status: ('A' for Active; 'I' for Inactive)
REMARK    1  A    between atoms: C_1  and  C_2
REMARK    2  A    between atoms: C_3  and  C_23
REMARK    3  A    between atoms: C_4  and  C_13
REMARK    4  A    between atoms: C_5  and  C_9
REMARK    5  A    between atoms: C_6  and  C_8
REMARK    6  A    between atoms: C_9  and  O_11
REMARK    7  A    between atoms: O_11  and  C_12
REMARK    8  A    between atoms: C_23  and  O_25
REMARK    9  A    between atoms: O_25  and  C_26
REMARK                            x       y       z     vdW  Elec       q    Type
REMARK                         _______ _______ _______ _____ _____    ______ ____
ROOT
ATOM      1  C   UNL     1       1.598   9.047  -2.459  0.00  0.00    +0.061 C 
ATOM      2  C   UNL     1       1.311   8.217  -1.234  0.00  0.00    +0.016 C 
ATOM      3  C   UNL     1       1.340   6.876  -1.319  0.00  0.00    +0.065 C 
ATOM      4  C   UNL     1       1.052   6.009  -0.126  0.00  0.00    +0.096 C 
ATOM      5  C   UNL     1       1.138   6.808   1.144  0.00  0.00    +0.065 C 
ATOM      6  C   UNL     1       1.118   8.151   1.130  0.00  0.00    +0.016 C 
ATOM      7  N   UNL     1       1.025   8.838  -0.049  0.00  0.00    -0.321 N 
ATOM      8  C   UNL     1       1.198   8.911   2.430  0.00  0.00    +0.061 C 
ATOM      9  H   UNL     1       0.720   9.895  -0.042  0.00  0.00    +0.152 HD
ENDROOT
BRANCH   4  10
ATOM     10  C   UNL     1      -0.333   5.430  -0.256  0.00  0.00    -0.027 A 
ATOM     11  C   UNL     1      -1.421   6.247  -0.232  0.00  0.00    +0.005 A 
ATOM     12  C   UNL     1      -2.709   5.730  -0.350  0.00  0.00    +0.001 A 
ATOM     13  C   UNL     1      -2.917   4.392  -0.492  0.00  0.00    +0.008 A 
ATOM     14  C   UNL     1      -1.818   3.517  -0.521  0.00  0.00    -0.018 A 
ATOM     15  C   UNL     1      -0.508   4.044  -0.401  0.00  0.00    -0.014 A 
ATOM     16  C   UNL     1       0.592   3.168  -0.431  0.00  0.00    +0.009 A 
ATOM     17  C   UNL     1       0.384   1.831  -0.574  0.00  0.00    +0.001 A 
ATOM     18  C   UNL     1      -0.905   1.314  -0.692  0.00  0.00    +0.001 A 
ATOM     19  C   UNL     1      -1.993   2.131  -0.672  0.00  0.00    +0.008 A 
ENDBRANCH   4  10
BRANCH   5  20
ATOM     20  C   UNL     1       1.242   6.131   2.381  0.00  0.00    +0.337 C 
ATOM     21  O   UNL     1       1.312   6.766   3.417  0.00  0.00    -0.245 OA
BRANCH  20  22
ATOM     22  O   UNL     1       1.263   4.782   2.413  0.00  0.00    -0.465 OA
ATOM     23  C   UNL     1       1.370   4.165   3.697  0.00  0.00    +0.280 C 
ENDBRANCH  20  22
ENDBRANCH   5  20
BRANCH   3  24
ATOM     24  C   UNL     1       1.647   6.268  -2.558  0.00  0.00    +0.337 C 
ATOM     25  O   UNL     1       2.762   5.824  -2.759  0.00  0.00    -0.245 OA
BRANCH  24  26
ATOM     26  O   UNL     1       0.702   6.178  -3.518  0.00  0.00    -0.465 OA
ATOM     27  C   UNL     1       1.082   5.551  -4.745  0.00  0.00    +0.280 C 
ENDBRANCH  24  26
ENDBRANCH   3  24
TORSDOF 5
