REMARK  Name = ZINC50226849
REMARK  7 active torsions:
REMARK  status: ('A' for Active; 'I' for Inactive)
REMARK    1  A    between atoms: C_1  and  C_2
REMARK    2  A    between atoms: C_5  and  C_7
REMARK    3  A    between atoms: C_7  and  N_8
REMARK    4  A    between atoms: N_8  and  S_9
REMARK    5  A    between atoms: S_9  and  C_12
REMARK    6  A    between atoms: C_17  and  N_18
REMARK    7  A    between atoms: N_18  and  N_19
REMARK                            x       y       z     vdW  Elec       q    Type
REMARK                         _______ _______ _______ _____ _____    ______ ____
ROOT
ATOM      1  S   UNL     1       2.249  -5.812  -1.791  0.00  0.00    +0.062 S 
ATOM      2  O   UNL     1       2.375  -6.018  -3.191  0.00  0.00    -0.153 OA
ATOM      3  O   UNL     1       3.368  -5.545  -0.956  0.00  0.00    -0.153 OA
ENDROOT
BRANCH   1   4
ATOM      4  C   UNL     1       1.467  -7.251  -1.140  0.00  0.00    +0.147 A 
ATOM      5  C   UNL     1       2.001  -7.903  -0.043  0.00  0.00    +0.048 A 
ATOM      6  C   UNL     1       1.351  -9.033   0.437  0.00  0.00    +0.038 A 
ATOM      7  C   UNL     1       0.200  -9.469  -0.190  0.00  0.00    +0.128 A 
ATOM      8  N   UNL     1      -0.286  -8.826  -1.235  0.00  0.00    -0.236 NA
ATOM      9  C   UNL     1       0.301  -7.742  -1.718  0.00  0.00    +0.159 A 
ATOM     10 BR   UNL     1       2.035  -9.965   1.933  0.00  0.00    -0.049 Br
BRANCH   9  11
ATOM     11  N   UNL     1      -0.249  -7.092  -2.818  0.00  0.00    -0.266 N 
ATOM     12  H   UNL     1       0.127  -6.251  -3.122  0.00  0.00    +0.167 HD
BRANCH  11  13
ATOM     13  N   UNL     1      -1.318  -7.638  -3.469  0.00  0.00    -0.255 NA
ATOM     14  H   UNL     1      -2.085  -7.800  -2.833  0.00  0.00    +0.140 HD
ATOM     15  H   UNL     1      -1.606  -7.057  -4.242  0.00  0.00    +0.140 HD
ENDBRANCH  11  13
ENDBRANCH   9  11
ENDBRANCH   1   4
BRANCH   1  16
ATOM     16  N   UNL     1       1.197  -4.549  -1.591  0.00  0.00    -0.185 NA
ATOM     17  H   UNL     1       0.823  -4.102  -2.366  0.00  0.00    +0.148 HD
BRANCH  16  18
ATOM     18  C   UNL     1       0.831  -4.108  -0.243  0.00  0.00    +0.148 C 
BRANCH  18  23
ATOM     19  C   UNL     1      -0.670   1.352  -0.418  0.00  0.00    +0.051 C 
ATOM     20  C   UNL     1      -0.528  -0.148  -0.400  0.00  0.00    -0.013 A 
ATOM     21  C   UNL     1      -1.489  -1.098  -0.510  0.00  0.00    +0.011 A 
ATOM     22  C   UNL     1      -1.123  -2.430  -0.468  0.00  0.00    +0.013 A 
ATOM     23  C   UNL     1       0.186  -2.748  -0.317  0.00  0.00    +0.005 A 
ATOM     24  S   UNL     1       0.950  -1.136  -0.237  0.00  0.00    -0.097 S 
ENDBRANCH  18  23
ENDBRANCH  16  18
ENDBRANCH   1  16
TORSDOF 6
