REMARK  Name = ZINC14158745
REMARK  10 active torsions:
REMARK  status: ('A' for Active; 'I' for Inactive)
REMARK    1  A    between atoms: C_1  and  C_2
REMARK    2  A    between atoms: C_5  and  C_36
REMARK    3  A    between atoms: C_6  and  N_8
REMARK    4  A    between atoms: N_8  and  C_9
REMARK    5  A    between atoms: C_9  and  N_11
REMARK    6  A    between atoms: N_13  and  C_14
REMARK    7  A    between atoms: C_14  and  C_15
REMARK    8  A    between atoms: C_15  and  C_16
REMARK    9  A    between atoms: C_30  and  C_35
REMARK   10  A    between atoms: C_32  and  C_34
REMARK                            x       y       z     vdW  Elec       q    Type
REMARK                         _______ _______ _______ _____ _____    ______ ____
ROOT
ATOM      1  N   UNL     1       3.573   5.767  -0.094  0.00  0.00    -0.159 NA
ATOM      2  C   UNL     1       3.644   7.087  -0.060  0.00  0.00    +0.195 C 
ATOM      3  N   UNL     1       2.501   7.832  -0.076  0.00  0.00    -0.357 N 
ATOM      4  N   UNL     1       4.864   7.706  -0.009  0.00  0.00    -0.297 N 
ATOM      5  C   UNL     1       6.027   6.947   0.007  0.00  0.00    +0.231 A 
ATOM      6  N   UNL     1       5.938   5.626  -0.022  0.00  0.00    -0.217 NA
ATOM      7  C   UNL     1       7.026   4.875  -0.012  0.00  0.00    +0.044 A 
ATOM      8  C   UNL     1       8.269   5.485   0.040  0.00  0.00    +0.046 A 
ATOM      9  C   UNL     1       8.326   6.870   0.074  0.00  0.00    +0.044 A 
ATOM     10  N   UNL     1       7.199   7.562   0.057  0.00  0.00    -0.217 NA
ATOM     11  C   UNL     1       9.655   7.577   0.130  0.00  0.00    +0.066 C 
ATOM     12  C   UNL     1       6.915   3.372  -0.051  0.00  0.00    +0.066 C 
ATOM     13  H   UNL     1       1.636   7.395  -0.038  0.00  0.00    +0.162 HD
ATOM     14  H   UNL     1       4.916   8.674   0.015  0.00  0.00    +0.171 HD
ENDROOT
BRANCH   1  15
ATOM     15  C   UNL     1       2.379   5.161  -0.148  0.00  0.00    +0.161 C 
ATOM     16  S   UNL     1       1.366   5.387  -1.510  0.00  0.00    -0.016 S 
BRANCH  15  17
ATOM     17  N   UNL     1       1.975   4.375   0.870  0.00  0.00    -0.295 N 
ATOM     18  H   UNL     1       2.530   4.281   1.659  0.00  0.00    +0.154 HD
BRANCH  17  24
ATOM     19  C   UNL     1      -1.290   1.851  -1.802  0.00  0.00    +0.044 C 
ATOM     20  C   UNL     1      -0.852   2.462  -0.496  0.00  0.00    -0.049 A 
ATOM     21  C   UNL     1      -1.655   2.346   0.624  0.00  0.00    +0.004 A 
ATOM     22  C   UNL     1      -1.259   2.910   1.823  0.00  0.00    +0.005 A 
ATOM     23  C   UNL     1      -0.055   3.582   1.908  0.00  0.00    -0.029 A 
ATOM     24  C   UNL     1       0.756   3.695   0.787  0.00  0.00    +0.036 A 
ATOM     25  C   UNL     1       0.353   3.132  -0.418  0.00  0.00    +0.027 A 
ATOM     26  C   UNL     1       0.378   4.190   3.217  0.00  0.00    +0.045 C 
ENDBRANCH  17  24
ENDBRANCH  15  17
ENDBRANCH   1  15
BRANCH   3  27
ATOM     27  C   UNL     1       2.580   9.293  -0.151  0.00  0.00    +0.120 C 
BRANCH  27  28
ATOM     28  C   UNL     1       1.168   9.881  -0.154  0.00  0.00    +0.058 C 
BRANCH  28  29
ATOM     29  C   UNL     1       1.249  11.384  -0.231  0.00  0.00    -0.021 A 
ATOM     30  C   UNL     1       1.219  12.239   0.804  0.00  0.00    +0.087 A 
ATOM     31  N   UNL     1       1.317  13.526   0.349  0.00  0.00    -0.360 N 
ATOM     32  H   UNL     1       1.318  14.317   0.910  0.00  0.00    +0.165 HD
ATOM     33  C   UNL     1       1.416  13.530  -1.026  0.00  0.00    +0.047 A 
ATOM     34  C   UNL     1       1.383  12.188  -1.448  0.00  0.00    +0.006 A 
ATOM     35  C   UNL     1       1.460  11.883  -2.808  0.00  0.00    +0.048 A 
ATOM     36  C   UNL     1       1.578  12.901  -3.729  0.00  0.00    +0.124 A 
ATOM     37  C   UNL     1       1.615  14.226  -3.311  0.00  0.00    +0.040 A 
ATOM     38  C   UNL     1       1.535  14.542  -1.972  0.00  0.00    +0.029 A 
ATOM     39  F   UNL     1       1.657  12.610  -5.046  0.00  0.00    -0.205 F 
ENDBRANCH  28  29
ENDBRANCH  27  28
ENDBRANCH   3  27
TORSDOF 6
