REMARK  Name = ZINC31482185
REMARK  6 active torsions:
REMARK  status: ('A' for Active; 'I' for Inactive)
REMARK    1  A    between atoms: C_1  and  C_2
REMARK    2  A    between atoms: C_7  and  C_13
REMARK    3  A    between atoms: C_8  and  C_12
REMARK    4  A    between atoms: N_15  and  N_16
REMARK    5  A    between atoms: C_17  and  C_19
REMARK    6  A    between atoms: C_20  and  C_28
REMARK                            x       y       z     vdW  Elec       q    Type
REMARK                         _______ _______ _______ _____ _____    ______ ____
ROOT
ATOM      1  C   UNL     1      -1.265   1.666  -0.485  0.00  0.00    +0.262 C 
ATOM      2  O   UNL     1      -1.306   2.881  -0.497  0.00  0.00    -0.269 OA
ATOM      3  N   UNL     1      -0.099   1.029  -0.706  0.00  0.00    -0.230 N 
ATOM      4  H   UNL     1      -0.061  -0.071  -0.690  0.00  0.00    +0.173 HD
ENDROOT
BRANCH   1  11
ATOM      5  C   UNL     1      -7.350  -3.241   0.702  0.00  0.00    +0.044 C 
ATOM      6  C   UNL     1      -6.064  -2.505   0.427  0.00  0.00    -0.048 A 
ATOM      7  C   UNL     1      -4.924  -3.225   0.074  0.00  0.00    +0.004 A 
ATOM      8  C   UNL     1      -3.748  -2.589  -0.180  0.00  0.00    +0.010 A 
ATOM      9  C   UNL     1      -3.681  -1.188  -0.086  0.00  0.00    +0.001 A 
ATOM     10  C   UNL     1      -2.485  -0.497  -0.341  0.00  0.00    +0.025 A 
ATOM     11  C   UNL     1      -2.495   0.888  -0.228  0.00  0.00    +0.060 A 
ATOM     12  C   UNL     1      -3.684   1.543   0.140  0.00  0.00    +0.051 A 
ATOM     13  N   UNL     1      -4.788   0.880   0.367  0.00  0.00    -0.251 NA
ATOM     14  C   UNL     1      -4.839  -0.454   0.274  0.00  0.00    +0.072 A 
ATOM     15  C   UNL     1      -6.035  -1.148   0.528  0.00  0.00    +0.031 A 
ATOM     16  C   UNL     1      -3.688   3.045   0.267  0.00  0.00    +0.066 C 
ENDBRANCH   1  11
BRANCH   3  17
ATOM     17  N   UNL     1       1.066   1.766  -0.955  0.00  0.00    -0.228 N 
ATOM     18  C   UNL     1       2.232   1.128  -1.182  0.00  0.00    +0.296 C 
ATOM     19  O   UNL     1       2.272  -0.088  -1.170  0.00  0.00    -0.265 OA
ATOM     20  H   UNL     1       1.030   2.865  -0.966  0.00  0.00    +0.173 HD
BRANCH  18  21
ATOM     21  C   UNL     1       3.454   1.902  -1.444  0.00  0.00    +0.195 A 
ATOM     22  C   UNL     1       4.681   1.369  -1.679  0.00  0.00    +0.008 A 
ATOM     23  C   UNL     1       5.582   2.502  -1.886  0.00  0.00    +0.024 A 
ATOM     24  C   UNL     1       6.945   2.624  -2.166  0.00  0.00    +0.012 A 
ATOM     25  C   UNL     1       7.501   3.865  -2.299  0.00  0.00    +0.001 A 
ATOM     26  C   UNL     1       6.720   5.004  -2.159  0.00  0.00    +0.004 A 
ATOM     27  C   UNL     1       5.373   4.905  -1.883  0.00  0.00    +0.047 A 
ATOM     28  C   UNL     1       4.785   3.653  -1.743  0.00  0.00    +0.136 A 
ATOM     29  O   UNL     1       3.527   3.249  -1.480  0.00  0.00    -0.450 OA
ATOM     30  C   UNL     1       5.040  -0.094  -1.721  0.00  0.00    +0.048 C 
ENDBRANCH  18  21
ENDBRANCH   3  17
TORSDOF 3
