REMARK  Name = ZINC55314549
REMARK  9 active torsions:
REMARK  status: ('A' for Active; 'I' for Inactive)
REMARK    1  A    between atoms: C_1  and  C_2
REMARK    2  A    between atoms: C_2  and  C_3
REMARK    3  A    between atoms: C_3  and  S_4
REMARK    4  A    between atoms: S_4  and  N_7
REMARK    5  A    between atoms: C_12  and  C_14
REMARK    6  A    between atoms: N_16  and  N_17
REMARK    7  A    between atoms: C_18  and  C_20
REMARK    8  A    between atoms: C_23  and  C_27
REMARK    9  A    between atoms: C_25  and  O_26
REMARK                            x       y       z     vdW  Elec       q    Type
REMARK                         _______ _______ _______ _____ _____    ______ ____
ROOT
ATOM      1  C   UNL     1       3.563  -2.284  -1.392  0.00  0.00    +0.248 C 
ATOM      2  O   UNL     1       3.257  -1.183  -0.983  0.00  0.00    -0.273 OA
ATOM      3  N   UNL     1       4.403  -3.059  -0.678  0.00  0.00    -0.233 N 
ATOM      4  H   UNL     1       4.648  -3.938  -1.005  0.00  0.00    +0.173 HD
ENDROOT
BRANCH   1  10
ATOM      5  N   UNL     1       1.538  -2.671  -2.682  0.00  0.00    -0.169 NA
ATOM      6  C   UNL     1       0.793  -2.960  -3.915  0.00  0.00    +0.110 C 
ATOM      7  C   UNL     1       1.371  -2.109  -5.051  0.00  0.00    +0.017 C 
ATOM      8  C   UNL     1       2.877  -2.358  -5.154  0.00  0.00    +0.003 C 
ATOM      9  C   UNL     1       3.555  -1.942  -3.846  0.00  0.00    +0.030 C 
ATOM     10  C   UNL     1       3.003  -2.784  -2.698  0.00  0.00    +0.166 C 
BRANCH   5  11
ATOM     11  S   UNL     1       0.742  -2.219  -1.302  0.00  0.00    +0.032 S 
ATOM     12  O   UNL     1       1.572  -2.670  -0.240  0.00  0.00    -0.158 OA
ATOM     13  O   UNL     1      -0.575  -2.729  -1.459  0.00  0.00    -0.158 OA
BRANCH  11  14
ATOM     14  C   UNL     1       0.719  -0.405  -1.350  0.00  0.00    +0.185 C 
BRANCH  14  16
ATOM     15  C   UNL     1      -0.020   1.658  -0.150  0.00  0.00    +0.005 C 
ATOM     16  C   UNL     1      -0.000   0.129  -0.110  0.00  0.00    +0.021 C 
ENDBRANCH  14  16
ENDBRANCH  11  14
ENDBRANCH   5  11
ENDBRANCH   1  10
BRANCH   3  17
ATOM     17  N   UNL     1       4.924  -2.593   0.537  0.00  0.00    -0.230 N 
ATOM     18  C   UNL     1       5.764  -3.368   1.251  0.00  0.00    +0.264 C 
ATOM     19  O   UNL     1       6.071  -4.471   0.841  0.00  0.00    -0.269 OA
ATOM     20  H   UNL     1       4.680  -1.713   0.864  0.00  0.00    +0.173 HD
BRANCH  18  21
ATOM     21  C   UNL     1       6.313  -2.878   2.530  0.00  0.00    +0.079 A 
ATOM     22  C   UNL     1       5.959  -1.614   3.007  0.00  0.00    +0.017 A 
ATOM     23  C   UNL     1       6.474  -1.162   4.202  0.00  0.00    +0.004 A 
ATOM     24  C   UNL     1       7.343  -1.956   4.934  0.00  0.00    -0.047 A 
ATOM     25  C   UNL     1       7.701  -3.207   4.473  0.00  0.00    +0.049 A 
ATOM     26  C   UNL     1       7.187  -3.680   3.275  0.00  0.00    +0.129 A 
ATOM     27  C   UNL     1       7.900  -1.450   6.240  0.00  0.00    +0.044 C 
BRANCH  26  28
ATOM     28  O   UNL     1       7.533  -4.912   2.825  0.00  0.00    -0.506 OA
ATOM     29  H   UNL     1       8.321  -4.919   2.265  0.00  0.00    +0.292 HD
ENDBRANCH  26  28
ENDBRANCH  18  21
ENDBRANCH   3  17
TORSDOF 7
