REMARK  Name = ZINC64684461
REMARK  9 active torsions:
REMARK  status: ('A' for Active; 'I' for Inactive)
REMARK    1  A    between atoms: C_1  and  C_2
REMARK    2  A    between atoms: C_3  and  C_7
REMARK    3  A    between atoms: C_11  and  S_14
REMARK    4  A    between atoms: S_14  and  C_15
REMARK    5  A    between atoms: C_15  and  C_16
REMARK    6  A    between atoms: N_18  and  CA_19
REMARK    7  A    between atoms: CA_19  and  CB_21
REMARK    8  A    between atoms: CA_19  and  C_31
REMARK    9  A    between atoms: CB_21  and  CG_22
REMARK                            x       y       z     vdW  Elec       q    Type
REMARK                         _______ _______ _______ _____ _____    ______ ____
ROOT
ATOM      1  C   UNK A   0      -5.983   3.289   0.494  0.00  0.00    +0.224 C 
ATOM      2  O   UNK A   0      -6.672   3.454   1.478  0.00  0.00    -0.275 OA
ATOM      3  N   TRP A   1      -5.983   4.210  -0.490  0.00  0.00    -0.301 N 
ATOM      4  H   TRP A   1      -5.432   4.078  -1.277  0.00  0.00    +0.150 HD
ENDROOT
BRANCH   1   5
ATOM      5  C   UNK A   0      -5.128   2.054   0.371  0.00  0.00    +0.168 C 
BRANCH   5   6
ATOM      6  S   UNK A   0      -5.346   1.018   1.844  0.00  0.00    -0.104 S 
BRANCH   6  10
ATOM      7  C   UNK A   0      -2.521  -0.369   0.012  0.00  0.00    +0.237 C 
ATOM      8  N   UNK A   0      -3.411  -1.514  -0.312  0.00  0.00    -0.222 NA
ATOM      9  N   UNK A   0      -4.684  -1.106   0.307  0.00  0.00    -0.218 NA
ATOM     10  C   UNK A   0      -4.264  -0.406   1.542  0.00  0.00    +0.263 C 
ATOM     11  O   UNK A   0      -2.913   0.037   1.336  0.00  0.00    -0.328 OA
ATOM     12  H   UNK A   0      -3.512  -1.621  -1.310  0.00  0.00    +0.144 HD
ATOM     13  H   UNK A   0      -5.255  -1.910   0.522  0.00  0.00    +0.144 HD
BRANCH   7  16
ATOM     14  C   UNK A   0      -0.018   1.503   0.010  0.00  0.00    +0.086 C 
ATOM     15  C   UNK A   0       0.002  -0.004   0.002  0.00  0.00    +0.109 A 
ATOM     16  C   UNK A   0      -1.078  -0.805   0.003  0.00  0.00    +0.037 A 
ATOM     17  C   UNK A   0      -0.601  -2.136  -0.007  0.00  0.00    +0.049 A 
ATOM     18  C   UNK A   0       0.742  -2.069  -0.013  0.00  0.00    +0.195 A 
ATOM     19  O   UNK A   0       1.102  -0.775  -0.013  0.00  0.00    -0.468 OA
ENDBRANCH   7  16
ENDBRANCH   6  10
ENDBRANCH   5   6
ENDBRANCH   1   5
BRANCH   3  20
ATOM     20  CA  TRP A   1      -6.814   5.410  -0.370  0.00  0.00    +0.190 C 
BRANCH  20  21
ATOM     21  C   TRP A   1      -8.209   5.105  -0.854  0.00  0.00    +0.376 C 
ATOM     22  O   TRP A   1      -8.483   3.989  -1.260  0.00  0.00    -0.244 OA
ATOM     23  OXT TRP A   1      -9.063   5.975  -0.838  0.00  0.00    -0.244 OA
ENDBRANCH  20  21
BRANCH  20  24
ATOM     24  CB  TRP A   1      -6.214   6.533  -1.219  0.00  0.00    +0.067 C 
BRANCH  24  25
ATOM     25  CG  TRP A   1      -4.870   6.922  -0.660  0.00  0.00    -0.039 C 
ATOM     26  CD2 TRP A   1      -3.660   6.469  -1.062  0.00  0.00    -0.001 A 
ATOM     27  CE3 TRP A   1      -3.250   5.515  -2.099  0.00  0.00    +0.010 A 
ATOM     28  CZ3 TRP A   1      -1.933   5.258  -2.270  0.00  0.00    +0.001 A 
ATOM     29  CH2 TRP A   1      -0.953   5.878  -1.483  0.00  0.00    +0.002 A 
ATOM     30  CZ2 TRP A   1      -1.252   6.765  -0.511  0.00  0.00    +0.026 A 
ATOM     31  CE2 TRP A   1      -2.606   7.111  -0.244  0.00  0.00    +0.043 A 
ATOM     32  NE1 TRP A   1      -3.143   7.928   0.628  0.00  0.00    -0.380 N 
ATOM     33  CD1 TRP A   1      -4.600   7.902   0.459  0.00  0.00    +0.144 C 
ATOM     34  HE1 TRP A   1      -2.657   8.464   1.275  0.00  0.00    +0.160 HD
ENDBRANCH  24  25
ENDBRANCH  20  24
ENDBRANCH   3  20
TORSDOF 8
