REMARK  Name = ZINC47168873
REMARK  6 active torsions:
REMARK  status: ('A' for Active; 'I' for Inactive)
REMARK    1  A    between atoms: C_1  and  C_2
REMARK    2  A    between atoms: C_2  and  C_4
REMARK    3  A    between atoms: C_6  and  C_10
REMARK    4  A    between atoms: N_12  and  C_13
REMARK    5  A    between atoms: C_17  and  C_19
REMARK    6  A    between atoms: C_19  and  C_26
REMARK                            x       y       z     vdW  Elec       q    Type
REMARK                         _______ _______ _______ _____ _____    ______ ____
ROOT
ATOM      1  C   UNL     1       0.102  -5.034  -5.414  0.00  0.00    +0.034 A 
ATOM      2  C   UNL     1       0.107  -6.213  -4.679  0.00  0.00    +0.023 A 
ATOM      3  C   UNL     1       0.203  -7.429  -5.328  0.00  0.00    +0.002 A 
ATOM      4  C   UNL     1       0.295  -7.473  -6.707  0.00  0.00    +0.006 A 
ATOM      5  C   UNL     1       0.290  -6.301  -7.441  0.00  0.00    -0.014 A 
ATOM      6  C   UNL     1       0.188  -5.082  -6.799  0.00  0.00    +0.029 A 
ENDROOT
BRANCH   5   7
ATOM      7  C   UNL     1       0.390  -6.354  -8.944  0.00  0.00    +0.135 C 
ATOM      8  C   UNL     1      -0.889  -5.850  -9.582  0.00  0.00    +0.248 C 
ATOM      9  O   UNL     1      -1.372  -4.743  -9.479  0.00  0.00    -0.273 OA
ATOM     10  N   UNL     1      -1.378  -6.889 -10.288  0.00  0.00    -0.238 N 
ATOM     11  C   UNL     1      -0.593  -7.968 -10.186  0.00  0.00    +0.307 C 
ATOM     12  O   UNL     1      -0.826  -9.027 -10.735  0.00  0.00    -0.252 OA
ATOM     13  N   UNL     1       0.483  -7.749  -9.409  0.00  0.00    -0.282 N 
ATOM     14  C   UNL     1       1.593  -5.544  -9.431  0.00  0.00    +0.047 C 
ATOM     15  H   UNL     1      -2.197  -6.859 -10.806  0.00  0.00    +0.159 HD
ATOM     16  H   UNL     1       1.183  -8.386  -9.196  0.00  0.00    +0.152 HD
ENDBRANCH   5   7
BRANCH   1  19
ATOM     17  C   UNL     1       0.596  -3.626  -3.562  0.00  0.00    +0.265 C 
ATOM     18  O   UNL     1       1.143  -4.562  -3.010  0.00  0.00    -0.268 OA
ATOM     19  N   UNL     1       0.004  -3.802  -4.761  0.00  0.00    -0.280 N 
ATOM     20  H   UNL     1      -0.489  -3.074  -5.170  0.00  0.00    +0.155 HD
BRANCH  17  23
ATOM     21  C   UNL     1       0.891  -0.619  -1.491  0.00  0.00    +0.035 A 
ATOM     22  C   UNL     1       1.139  -1.994  -1.720  0.00  0.00    +0.043 A 
ATOM     23  C   UNL     1       0.581  -2.304  -2.923  0.00  0.00    +0.103 A 
ATOM     24  N   UNL     1      -0.001  -1.166  -3.439  0.00  0.00    -0.356 N 
ATOM     25  H   UNL     1      -0.469  -1.109  -4.287  0.00  0.00    +0.165 HD
ATOM     26  C   UNL     1       0.176  -0.150  -2.582  0.00  0.00    +0.094 A 
BRANCH  21  28
ATOM     27  C   UNL     1       0.957   1.621  -0.224  0.00  0.00    +0.091 C 
ATOM     28  C   UNL     1       1.307   0.159  -0.319  0.00  0.00    +0.162 C 
ATOM     29  O   UNL     1       1.932  -0.375   0.573  0.00  0.00    -0.292 OA
ENDBRANCH  21  28
ENDBRANCH  17  23
ENDBRANCH   1  19
TORSDOF 4
