REMARK  Name = ZINC16185208
REMARK  5 active torsions:
REMARK  status: ('A' for Active; 'I' for Inactive)
REMARK    1  A    between atoms: C_1  and  C_2
REMARK    2  A    between atoms: C_2  and  N_3
REMARK    3  A    between atoms: C_7  and  C_28
REMARK    4  A    between atoms: N_16  and  C_20
REMARK    5  A    between atoms: C_24  and  C_26
REMARK                            x       y       z     vdW  Elec       q    Type
REMARK                         _______ _______ _______ _____ _____    ______ ____
ROOT
ATOM      1  N   UNL     1      -0.935   1.742   2.706  0.00  0.00    -0.299 N 
ATOM      2  C   UNL     1      -0.314   2.790   3.354  0.00  0.00    +0.041 A 
ATOM      3  C   UNL     1       0.148   3.893   2.645  0.00  0.00    +0.024 A 
ATOM      4  C   UNL     1       0.765   4.930   3.312  0.00  0.00    +0.005 A 
ATOM      5  C   UNL     1       0.932   4.887   4.689  0.00  0.00    -0.050 A 
ATOM      6  C   UNL     1       0.482   3.805   5.412  0.00  0.00    +0.013 A 
ATOM      7  C   UNL     1      -0.146   2.744   4.751  0.00  0.00    -0.003 A 
ATOM      8  C   UNL     1      -0.635   1.579   5.492  0.00  0.00    +0.011 C 
ATOM      9  C   UNL     1      -1.239   0.574   4.810  0.00  0.00    +0.025 C 
ATOM     10  C   UNL     1      -1.395   0.657   3.411  0.00  0.00    +0.053 C 
ATOM     11  C   UNL     1      -2.024  -0.384   2.731  0.00  0.00    +0.098 C 
ATOM     12  C   UNL     1      -2.696  -1.512   3.243  0.00  0.00    +0.264 C 
ATOM     13  O   UNL     1      -2.792  -1.688   4.447  0.00  0.00    -0.269 OA
ATOM     14  N   UNL     1      -3.220  -2.376   2.391  0.00  0.00    -0.224 N 
ATOM     15  C   UNL     1      -3.115  -2.182   1.056  0.00  0.00    +0.125 C 
ATOM     16  S   UNL     1      -3.707  -3.154  -0.223  0.00  0.00    -0.027 S 
ATOM     17  S   UNL     1      -2.205  -0.647   0.972  0.00  0.00    -0.059 S 
ATOM     18  C   UNL     1       1.609   6.031   5.397  0.00  0.00    +0.044 C 
ENDROOT
BRANCH  14  19
ATOM     19  C   UNL     1      -3.893  -3.506   2.875  0.00  0.00    +0.043 A 
ATOM     20  C   UNL     1      -3.188  -4.673   3.143  0.00  0.00    +0.024 A 
ATOM     21  C   UNL     1      -3.847  -5.790   3.622  0.00  0.00    +0.003 A 
ATOM     22  C   UNL     1      -5.209  -5.754   3.837  0.00  0.00    +0.015 A 
ATOM     23  C   UNL     1      -5.927  -4.586   3.570  0.00  0.00    +0.065 A 
ATOM     24  C   UNL     1      -5.261  -3.457   3.092  0.00  0.00    +0.039 A 
BRANCH  23  25
ATOM     25  C   UNL     1      -7.386  -4.545   3.799  0.00  0.00    +0.387 C 
ATOM     26  O   UNL     1      -8.009  -3.528   3.566  0.00  0.00    -0.241 OA
ATOM     27  O   UNL     1      -8.026  -5.634   4.265  0.00  0.00    -0.241 OA
ENDBRANCH  23  25
ENDBRANCH  14  19
BRANCH   1  29
ATOM     28  C   UNL     1       0.028   1.022   0.576  0.00  0.00    +0.024 C 
ATOM     29  C   UNL     1      -1.110   1.789   1.252  0.00  0.00    +0.107 C 
ENDBRANCH   1  29
TORSDOF 3
