REMARK  Name = ZINC05280917
REMARK  12 active torsions:
REMARK  status: ('A' for Active; 'I' for Inactive)
REMARK    1  A    between atoms: C_1  and  C_2
REMARK    2  A    between atoms: C_2  and  C_3
REMARK    3  A    between atoms: C_2  and  C_4
REMARK    4  A    between atoms: C_4  and  C_6
REMARK    5  A    between atoms: C_4  and  S_12
REMARK    6  A    between atoms: S_12  and  C_13
REMARK    7  A    between atoms: C_16  and  C_25
REMARK    8  A    between atoms: N_17  and  C_18
REMARK    9  A    between atoms: C_25  and  C_27
REMARK   10  A    between atoms: C_25  and  N_53
REMARK   11  A    between atoms: C_28  and  N_53
REMARK   12  A    between atoms: C_29  and  N_53
REMARK                            x       y       z     vdW  Elec       q    Type
REMARK                         _______ _______ _______ _____ _____    ______ ____
ROOT
ATOM      1  C   UNL     1      -2.151   4.581   4.221  0.00  0.00    +0.197 A 
ATOM      2  N   UNL     1      -2.942   3.541   4.089  0.00  0.00    -0.122 NA
ATOM      3  N   UNL     1      -2.651   2.903   3.012  0.00  0.00    -0.135 NA
ATOM      4  C   UNL     1      -1.658   3.486   2.400  0.00  0.00    +0.125 A 
ATOM      5  N   UNL     1      -1.305   4.579   3.146  0.00  0.00    -0.275 N 
ENDROOT
BRANCH   5   6
ATOM      6  C   UNL     1      -0.289   5.505   2.865  0.00  0.00    +0.050 A 
ATOM      7  C   UNL     1       1.039   5.100   2.865  0.00  0.00    +0.028 A 
ATOM      8  C   UNL     1       2.038   6.012   2.584  0.00  0.00    +0.022 A 
ATOM      9  C   UNL     1       1.716   7.330   2.312  0.00  0.00    +0.041 A 
ATOM     10  C   UNL     1       0.393   7.737   2.316  0.00  0.00    +0.022 A 
ATOM     11  C   UNL     1      -0.609   6.827   2.592  0.00  0.00    +0.028 A 
ATOM     12 CL   UNL     1       2.974   8.475   1.965  0.00  0.00    -0.084 Cl
ENDBRANCH   5   6
BRANCH   4  13
ATOM     13  C   UNL     1      -1.022   3.042   1.108  0.00  0.00    -0.003 C 
ATOM     14  C   UNL     1      -1.948   3.383  -0.061  0.00  0.00    -0.005 C 
BRANCH  13  17
ATOM     15  C   UNL     1      -0.174   1.122  -0.099  0.00  0.00    -0.096 C 
ATOM     16  C   UNL     1       0.015   1.216   2.313  0.00  0.00    -0.096 C 
ATOM     17  N   UNL     1      -0.821   1.578   1.149  0.00  0.00    +0.382 N 
ATOM     18  H   UNL     1      -1.735   1.119   1.239  0.00  0.00    -0.082 HD
ENDBRANCH  13  17
ENDBRANCH   4  13
BRANCH   1  19
ATOM     19  S   UNL     1      -2.175   5.756   5.533  0.00  0.00    -0.073 S 
BRANCH  19  20
ATOM     20  C   UNL     1      -3.623   5.174   6.450  0.00  0.00    +0.143 C 
BRANCH  20  21
ATOM     21  C   UNL     1      -3.318   3.838   7.075  0.00  0.00    +0.234 C 
ATOM     22  O   UNL     1      -2.171   3.531   7.320  0.00  0.00    -0.274 OA
ATOM     23  N   UNL     1      -4.320   2.983   7.363  0.00  0.00    -0.239 N 
ATOM     24  C   UNL     1      -4.047   1.788   7.922  0.00  0.00    +0.303 C 
ATOM     25  O   UNL     1      -2.897   1.480   8.168  0.00  0.00    -0.253 OA
ATOM     26  N   UNL     1      -5.049   0.934   8.210  0.00  0.00    -0.313 N 
ATOM     27  H   UNL     1      -5.238   3.229   7.167  0.00  0.00    +0.159 HD
ATOM     28  H   UNL     1      -5.966   1.179   8.014  0.00  0.00    +0.146 HD
ATOM     29  H   UNL     1      -4.852   0.074   8.612  0.00  0.00    +0.146 HD
ENDBRANCH  20  21
BRANCH  20  31
ATOM     30  C   UNL     1      -4.291   7.537   6.911  0.00  0.00    +0.009 C 
ATOM     31  C   UNL     1      -3.972   6.183   7.546  0.00  0.00    +0.005 C 
ATOM     32  C   UNL     1      -5.190   5.686   8.327  0.00  0.00    +0.009 C 
ENDBRANCH  20  31
ENDBRANCH  19  20
ENDBRANCH   1  19
TORSDOF 7
