REMARK  Name = ZINC35283269
REMARK  6 active torsions:
REMARK  status: ('A' for Active; 'I' for Inactive)
REMARK    1  A    between atoms: C_1  and  C_2
REMARK    2  A    between atoms: C_3  and  C_20
REMARK    3  A    between atoms: C_7  and  O_11
REMARK    4  A    between atoms: O_11  and  C_12
REMARK    5  A    between atoms: C_16  and  N_19
REMARK    6  A    between atoms: C_17  and  C_18
REMARK                            x       y       z     vdW  Elec       q    Type
REMARK                         _______ _______ _______ _____ _____    ______ ____
ROOT
ATOM      1  C   UNL     1      -0.269   1.432   0.014  0.00  0.00    +0.045 C 
ATOM      2  C   UNL     1       0.028  -0.045   0.018  0.00  0.00    -0.026 A 
ATOM      3  C   UNL     1       0.086  -0.728  -1.135  0.00  0.00    -0.008 A 
ATOM      4  S   UNL     1       0.456  -2.393  -0.615  0.00  0.00    -0.073 S 
ATOM      5  C   UNL     1       0.524  -2.127   1.137  0.00  0.00    +0.116 A 
ATOM      6  C   UNL     1       0.261  -0.745   1.269  0.00  0.00    +0.073 A 
ATOM      7  C   UNL     1       0.259  -0.250   2.600  0.00  0.00    +0.232 A 
ATOM      8  N   UNL     1       0.499  -1.083   3.598  0.00  0.00    -0.201 NA
ATOM      9  C   UNL     1       0.743  -2.366   3.401  0.00  0.00    +0.226 A 
ATOM     10  N   UNL     1       0.749  -2.887   2.189  0.00  0.00    -0.228 NA
ATOM     11  C   UNL     1      -0.116  -0.211  -2.536  0.00  0.00    +0.052 C 
ENDROOT
BRANCH   7  12
ATOM     12  O   UNL     1       0.013   1.059   2.845  0.00  0.00    -0.437 OA
BRANCH  12  13
ATOM     13  C   UNL     1      -0.085   1.459   4.140  0.00  0.00    +0.135 A 
ATOM     14  C   UNL     1       1.030   1.957   4.800  0.00  0.00    +0.047 A 
ATOM     15  C   UNL     1       0.931   2.364   6.117  0.00  0.00    +0.005 A 
ATOM     16  C   UNL     1      -0.277   2.276   6.781  0.00  0.00    +0.023 A 
ATOM     17  C   UNL     1      -1.396   1.778   6.126  0.00  0.00    +0.031 A 
ATOM     18  C   UNL     1      -1.300   1.375   4.801  0.00  0.00    +0.012 A 
ATOM     19  C   UNL     1      -2.514   0.840   4.085  0.00  0.00    +0.049 C 
BRANCH  17  20
ATOM     20  N   UNL     1      -2.618   1.689   6.797  0.00  0.00    -0.358 N 
ATOM     21  H   UNL     1      -2.685   1.975   7.722  0.00  0.00    +0.142 HD
ATOM     22  H   UNL     1      -3.399   1.342   6.339  0.00  0.00    +0.142 HD
ENDBRANCH  17  20
ENDBRANCH  12  13
ENDBRANCH   7  12
TORSDOF 3
