REMARK  Name = ZINC65266006
REMARK  5 active torsions:
REMARK  status: ('A' for Active; 'I' for Inactive)
REMARK    1  A    between atoms: C_1  and  C_2
REMARK    2  A    between atoms: C_2  and  C_3
REMARK    3  A    between atoms: C_2  and  C_4
REMARK    4  A    between atoms: C_2  and  N_5
REMARK    5  A    between atoms: C_21  and  C_23
REMARK                            x       y       z     vdW  Elec       q    Type
REMARK                         _______ _______ _______ _____ _____    ______ ____
ROOT
ATOM      1  N   UNL     1       0.419  -0.099  -0.826  0.00  0.00    -0.370 N 
ATOM      2  C   UNL     1       1.701   0.071  -0.822  0.00  0.00    +0.095 C 
ATOM      3  N   UNL     1       2.325   0.842   0.129  0.00  0.00    -0.303 N 
ATOM      4  C   UNL     1       2.772   0.237   1.299  0.00  0.00    +0.037 A 
ATOM      5  C   UNL     1       2.530   0.836   2.527  0.00  0.00    +0.023 A 
ATOM      6  C   UNL     1       2.985   0.246   3.689  0.00  0.00    +0.002 A 
ATOM      7  C   UNL     1       3.683  -0.946   3.617  0.00  0.00    +0.000 A 
ATOM      8  C   UNL     1       3.918  -1.544   2.398  0.00  0.00    +0.007 A 
ATOM      9  C   UNL     1       3.460  -0.967   1.218  0.00  0.00    -0.012 A 
ATOM     10  C   UNL     1       3.738  -1.719  -0.059  0.00  0.00    +0.119 C 
ATOM     11  N   UNL     1       3.890  -0.830  -1.219  0.00  0.00    -0.299 NA
ATOM     12  C   UNL     1       2.579  -0.565  -1.844  0.00  0.00    +0.091 C 
ATOM     13  C   UNL     1       2.749   0.321  -3.090  0.00  0.00    +0.050 C 
ATOM     14  C   UNL     1       3.087  -0.705  -4.196  0.00  0.00    +0.110 C 
ATOM     15  N   UNL     1       2.610  -2.019  -3.735  0.00  0.00    -0.295 N 
ATOM     16  C   UNL     1       1.974  -1.856  -2.412  0.00  0.00    +0.137 C 
ATOM     17  C   UNL     1       2.732  -3.179  -4.410  0.00  0.00    +0.247 C 
ATOM     18  O   UNL     1       2.404  -4.225  -3.885  0.00  0.00    -0.270 OA
ATOM     19  H   UNL     1       0.024  -0.799  -1.369  0.00  0.00    +0.161 HD
ATOM     20  H   UNL     1       4.350   0.030  -0.958  0.00  0.00    +0.123 HD
ATOM     21  H   UNL     1       2.452   1.793  -0.014  0.00  0.00    +0.153 HD
ENDROOT
BRANCH  17  22
ATOM     22  C   UNL     1       3.268  -3.180  -5.788  0.00  0.00    +0.037 A 
ATOM     23  C   UNL     1       3.794  -2.009  -6.336  0.00  0.00    +0.013 A 
ATOM     24  C   UNL     1       4.293  -2.017  -7.623  0.00  0.00    +0.001 A 
ATOM     25  C   UNL     1       4.270  -3.182  -8.370  0.00  0.00    +0.000 A 
ATOM     26  C   UNL     1       3.749  -4.345  -7.832  0.00  0.00    +0.001 A 
ATOM     27  C   UNL     1       3.253  -4.353  -6.545  0.00  0.00    +0.013 A 
ENDBRANCH  17  22
BRANCH   1  29
ATOM     28  C   UNL     1      -0.109   2.232  -0.306  0.00  0.00    +0.033 C 
ATOM     29  C   UNL     1      -0.437   0.767  -0.011  0.00  0.00    +0.031 C 
ATOM     30  C   UNL     1      -0.193   0.478   1.471  0.00  0.00    +0.033 C 
ATOM     31  C   UNL     1      -1.905   0.496  -0.348  0.00  0.00    +0.033 C 
ENDBRANCH   1  29
TORSDOF 2
