REMARK  Name = ZINC39252296
REMARK  10 active torsions:
REMARK  status: ('A' for Active; 'I' for Inactive)
REMARK    1  A    between atoms: C_1  and  O_2
REMARK    2  A    between atoms: O_2  and  C_3
REMARK    3  A    between atoms: C_3  and  C_4
REMARK    4  A    between atoms: C_8  and  N_11
REMARK    5  A    between atoms: C_12  and  C_14
REMARK    6  A    between atoms: N_19  and  C_21
REMARK    7  A    between atoms: C_21  and  C_22
REMARK    8  A    between atoms: C_22  and  C_23
REMARK    9  A    between atoms: C_26  and  O_32
REMARK   10  A    between atoms: O_32  and  C_33
REMARK                            x       y       z     vdW  Elec       q    Type
REMARK                         _______ _______ _______ _____ _____    ______ ____
ROOT
ATOM      1  C   UNL     1      -0.148  -4.944   4.458  0.00  0.00    +0.101 C 
ATOM      2  C   UNL     1      -0.410  -3.543   5.060  0.00  0.00    +0.110 C 
ATOM      3  C   UNL     1      -0.053  -3.696   6.522  0.00  0.00    +0.216 C 
ATOM      4  O   UNL     1      -0.375  -2.924   7.400  0.00  0.00    -0.276 OA
ATOM      5  N   UNL     1       0.673  -4.812   6.707  0.00  0.00    -0.300 N 
ATOM      6  C   UNL     1       0.896  -5.519   5.440  0.00  0.00    +0.121 C 
ENDROOT
BRANCH   1   8
ATOM      7  N   UNL     1      -0.315  -4.295   2.077  0.00  0.00    -0.290 N 
ATOM      8  C   UNL     1       0.423  -4.835   3.067  0.00  0.00    +0.220 C 
ATOM      9  O   UNL     1       1.545  -5.233   2.839  0.00  0.00    -0.275 OA
ATOM     10  H   UNL     1      -1.213  -3.976   2.259  0.00  0.00    +0.151 HD
BRANCH   7  14
ATOM     11  C   UNL     1       0.613  -2.097  -1.041  0.00  0.00    +0.155 C 
ATOM     12  N   UNL     1      -0.785  -2.602  -0.882  0.00  0.00    -0.239 NA
ATOM     13  N   UNL     1      -0.829  -3.911  -0.265  0.00  0.00    -0.226 NA
ATOM     14  C   UNL     1       0.239  -4.189   0.725  0.00  0.00    +0.217 C 
ATOM     15  S   UNL     1       1.309  -2.694   0.565  0.00  0.00    -0.099 S 
ATOM     16  H   UNL     1      -1.272  -2.602  -1.766  0.00  0.00    +0.142 HD
ATOM     17  H   UNL     1      -0.872  -4.639  -0.963  0.00  0.00    +0.143 HD
BRANCH  11  18
ATOM     18  C   UNL     1       0.652  -0.570  -1.138  0.00  0.00    +0.190 C 
BRANCH  18  20
ATOM     19  C   UNL     1      -0.017   1.425   0.010  0.00  0.00    +0.194 C 
ATOM     20  O   UNL     1       0.002  -0.004   0.002  0.00  0.00    -0.381 OA
ENDBRANCH  18  20
ENDBRANCH  11  18
ENDBRANCH   7  14
ENDBRANCH   1   8
BRANCH   5  21
ATOM     21  C   UNL     1       1.177  -5.264   8.006  0.00  0.00    +0.112 C 
BRANCH  21  22
ATOM     22  C   UNL     1       0.141  -6.177   8.665  0.00  0.00    +0.056 C 
BRANCH  22  23
ATOM     23  C   UNL     1       0.659  -6.642  10.002  0.00  0.00    -0.021 A 
ATOM     24  C   UNL     1       0.553  -5.926  11.275  0.00  0.00    +0.006 A 
ATOM     25  C   UNL     1      -0.002  -4.702  11.655  0.00  0.00    +0.056 A 
ATOM     26  C   UNL     1       0.065  -4.304  12.975  0.00  0.00    +0.121 A 
ATOM     27  C   UNL     1       0.682  -5.115  13.923  0.00  0.00    +0.047 A 
ATOM     28  C   UNL     1       1.233  -6.324  13.559  0.00  0.00    +0.030 A 
ATOM     29  C   UNL     1       1.175  -6.744  12.235  0.00  0.00    +0.047 A 
ATOM     30  N   UNL     1       1.623  -7.871  11.579  0.00  0.00    -0.360 N 
ATOM     31  C   UNL     1       1.301  -7.795  10.251  0.00  0.00    +0.087 A 
ATOM     32  H   UNL     1       2.092  -8.610  11.997  0.00  0.00    +0.165 HD
BRANCH  26  33
ATOM     33  O   UNL     1      -0.474  -3.113  13.351  0.00  0.00    -0.495 OA
ATOM     34  C   UNL     1      -0.370  -2.761  14.732  0.00  0.00    +0.277 C 
ENDBRANCH  26  33
ENDBRANCH  22  23
ENDBRANCH  21  22
ENDBRANCH   5  21
TORSDOF 8
