REMARK  Name = ZINC24790085
REMARK  11 active torsions:
REMARK  status: ('A' for Active; 'I' for Inactive)
REMARK    1  A    between atoms: C_1  and  C_2
REMARK    2  A    between atoms: C_3  and  N_9
REMARK    3  A    between atoms: C_13  and  S_15
REMARK    4  A    between atoms: S_15  and  C_16
REMARK    5  A    between atoms: C_16  and  C_17
REMARK    6  A    between atoms: C_17  and  C_19
REMARK    7  A    between atoms: C_20  and  N_32
REMARK    8  A    between atoms: N_21  and  C_28
REMARK    9  A    between atoms: C_28  and  C_29
REMARK   10  A    between atoms: C_29  and  C_30
REMARK   11  A    between atoms: C_29  and  C_31
REMARK                            x       y       z     vdW  Elec       q    Type
REMARK                         _______ _______ _______ _____ _____    ______ ____
ROOT
ATOM      1  C   UNL     1       5.576   3.609   9.140  0.00  0.00    +0.182 C 
ATOM      2  O   UNL     1       6.741   3.403   8.866  0.00  0.00    -0.291 OA
ENDROOT
BRANCH   1   3
ATOM      3  C   UNL     1       5.225   4.072  10.427  0.00  0.00    +0.120 A 
ATOM      4  C   UNL     1       6.212   4.420  11.366  0.00  0.00    +0.116 A 
ATOM      5  N   UNL     1       5.823   4.869  12.596  0.00  0.00    -0.281 N 
ATOM      6  C   UNL     1       4.526   4.970  12.924  0.00  0.00    +0.331 A 
ATOM      7  O   UNL     1       4.232   5.370  14.034  0.00  0.00    -0.246 OA
ATOM      8  N   UNL     1       3.540   4.647  12.071  0.00  0.00    -0.274 N 
ATOM      9  H   UNL     1       2.490   4.747  12.381  0.00  0.00    +0.173 HD
ATOM     10  C   UNL     1       3.819   4.200  10.829  0.00  0.00    +0.266 A 
ATOM     11  O   UNL     1       2.923   3.908  10.058  0.00  0.00    -0.267 OA
BRANCH   4  12
ATOM     12  N   UNL     1       7.532   4.317  11.053  0.00  0.00    -0.344 N 
ATOM     13  H   UNL     1       8.296   4.592  11.794  0.00  0.00    +0.144 HD
ATOM     14  H   UNL     1       7.835   3.960  10.058  0.00  0.00    +0.144 HD
ENDBRANCH   4  12
BRANCH   5  15
ATOM     15  C   UNL     1       6.843   5.239  13.580  0.00  0.00    +0.131 C 
BRANCH  15  16
ATOM     16  C   UNL     1       7.216   4.013  14.415  0.00  0.00    +0.003 C 
ATOM     17  C   UNL     1       8.368   4.368  15.357  0.00  0.00    +0.009 C 
ATOM     18  C   UNL     1       6.005   3.568  15.237  0.00  0.00    +0.009 C 
ENDBRANCH  15  16
ENDBRANCH   5  15
ENDBRANCH   1   3
BRANCH   1  19
ATOM     19  C   UNL     1       4.505   3.372   8.107  0.00  0.00    +0.156 C 
BRANCH  19  20
ATOM     20  S   UNL     1       5.267   2.785   6.570  0.00  0.00    -0.089 S 
BRANCH  20  25
ATOM     21  N   UNL     1       1.393   1.773   2.376  0.00  0.00    -0.292 N 
ATOM     22  C   UNL     1       2.128   2.079   3.516  0.00  0.00    +0.187 A 
ATOM     23  N   UNL     1       1.709   2.517   4.688  0.00  0.00    -0.125 NA
ATOM     24  N   UNL     1       2.617   2.756   5.694  0.00  0.00    -0.133 NA
ATOM     25  C   UNL     1       3.903   2.556   5.478  0.00  0.00    +0.160 A 
ATOM     26  S   UNL     1       3.892   1.993   3.783  0.00  0.00    -0.024 S 
ATOM     27  H   UNL     1       1.895   1.341   1.498  0.00  0.00    +0.154 HD
BRANCH  21  30
ATOM     28  C   UNL     1       0.015   1.381  -0.082  0.00  0.00    +0.047 C 
ATOM     29  C   UNL     1      -0.696   1.835   1.167  0.00  0.00    -0.011 A 
ATOM     30  C   UNL     1       0.017   2.013   2.347  0.00  0.00    +0.037 A 
ATOM     31  C   UNL     1      -0.641   2.432   3.496  0.00  0.00    +0.023 A 
ATOM     32  C   UNL     1      -2.002   2.669   3.464  0.00  0.00    +0.003 A 
ATOM     33  C   UNL     1      -2.709   2.491   2.289  0.00  0.00    +0.020 A 
ATOM     34  C   UNL     1      -2.055   2.079   1.140  0.00  0.00    +0.046 A 
ATOM     35 CL   UNL     1      -2.946   1.863  -0.334  0.00  0.00    -0.083 Cl
ENDBRANCH  21  30
ENDBRANCH  20  25
ENDBRANCH  19  20
ENDBRANCH   1  19
TORSDOF 8
