REMARK  Name = ZINC50339686
REMARK  9 active torsions:
REMARK  status: ('A' for Active; 'I' for Inactive)
REMARK    1  A    between atoms: C_1  and  C_2
REMARK    2  A    between atoms: C_4  and  C_22
REMARK    3  A    between atoms: C_7  and  N_8
REMARK    4  A    between atoms: C_9  and  C_11
REMARK    5  A    between atoms: C_11  and  N_12
REMARK    6  A    between atoms: C_14  and  C_21
REMARK    7  A    between atoms: N_24  and  C_25
REMARK    8  A    between atoms: C_25  and  C_26
REMARK    9  A    between atoms: C_25  and  C_27
REMARK                            x       y       z     vdW  Elec       q    Type
REMARK                         _______ _______ _______ _____ _____    ______ ____
ROOT
ATOM      1  N   UNL     1       0.025  -0.012   2.413  0.00  0.00    -0.284 N 
ATOM      2  C   UNL     1      -0.632  -0.513   3.478  0.00  0.00    +0.237 C 
ATOM      3  O   UNL     1      -1.149  -1.609   3.411  0.00  0.00    -0.274 OA
ATOM      4  H   UNL     1       0.494   0.834   2.487  0.00  0.00    +0.155 HD
ENDROOT
BRANCH   1  11
ATOM      5  C   UNL     1      -0.013   1.493   0.004  0.00  0.00    +0.045 C 
ATOM      6  C   UNL     1       0.013  -0.014   0.002  0.00  0.00    -0.029 A 
ATOM      7  C   UNL     1       0.025  -0.699  -1.192  0.00  0.00    +0.018 A 
ATOM      8  C   UNL     1       0.049  -2.096  -1.193  0.00  0.00    +0.037 A 
ATOM      9  C   UNL     1       0.061  -2.793   0.018  0.00  0.00    +0.015 A 
ATOM     10  C   UNL     1       0.049  -2.101   1.208  0.00  0.00    +0.024 A 
ATOM     11  C   UNL     1       0.031  -0.710   1.206  0.00  0.00    +0.036 A 
BRANCH   8  12
ATOM     12  C   UNL     1       0.061  -2.835  -2.471  0.00  0.00    +0.244 C 
ATOM     13  O   UNL     1       0.050  -2.228  -3.524  0.00  0.00    -0.270 OA
ATOM     14  N   UNL     1       0.084  -4.182  -2.470  0.00  0.00    -0.309 N 
ATOM     15  H   UNL     1       0.092  -4.667  -1.630  0.00  0.00    +0.149 HD
BRANCH  14  16
ATOM     16  C   UNL     1       0.096  -4.915  -3.739  0.00  0.00    +0.067 C 
ATOM     17  C   UNL     1       1.535  -5.037  -4.244  0.00  0.00    +0.027 C 
ATOM     18  C   UNL     1      -0.490  -6.313  -3.526  0.00  0.00    +0.027 C 
ENDBRANCH  14  16
ENDBRANCH   8  12
ENDBRANCH   1  11
BRANCH   2  19
ATOM     19  C   UNL     1      -0.725   0.287   4.751  0.00  0.00    +0.217 C 
BRANCH  19  20
ATOM     20  N   UNL     1      -1.484  -0.470   5.750  0.00  0.00    -0.338 N 
ATOM     21  C   UNL     1      -2.826  -0.340   5.982  0.00  0.00    +0.090 A 
ATOM     22  C   UNL     1      -3.205  -1.177   6.961  0.00  0.00    -0.025 A 
ATOM     23  C   UNL     1      -2.007  -1.903   7.390  0.00  0.00    +0.003 A 
ATOM     24  C   UNL     1      -0.954  -1.423   6.590  0.00  0.00    +0.050 A 
ATOM     25  C   UNL     1       0.326  -1.938   6.768  0.00  0.00    +0.026 A 
ATOM     26  C   UNL     1       0.546  -2.912   7.717  0.00  0.00    +0.002 A 
ATOM     27  C   UNL     1      -0.497  -3.385   8.501  0.00  0.00    +0.001 A 
ATOM     28  C   UNL     1      -1.761  -2.887   8.350  0.00  0.00    +0.010 A 
ATOM     29  C   UNL     1      -4.598  -1.339   7.513  0.00  0.00    +0.046 C 
ENDBRANCH  19  20
ENDBRANCH   2  19
TORSDOF 5
