REMARK  Name = ZINC08870740
REMARK  8 active torsions:
REMARK  status: ('A' for Active; 'I' for Inactive)
REMARK    1  A    between atoms: C_1  and  C_2
REMARK    2  A    between atoms: C_5  and  C_29
REMARK    3  A    between atoms: C_6  and  S_8
REMARK    4  A    between atoms: S_8  and  N_11
REMARK    5  A    between atoms: N_11  and  C_12
REMARK    6  A    between atoms: C_14  and  S_23
REMARK    7  A    between atoms: C_15  and  O_22
REMARK    8  A    between atoms: S_23  and  C_24
REMARK                            x       y       z     vdW  Elec       q    Type
REMARK                         _______ _______ _______ _____ _____    ______ ____
ROOT
ATOM      1  C   UNL     1      -0.019   5.780   0.860  0.00  0.00    +0.057 A 
ATOM      2  C   UNL     1      -1.221   6.370   1.178  0.00  0.00    +0.044 A 
ATOM      3  C   UNL     1      -2.395   5.614   1.233  0.00  0.00    +0.058 A 
ATOM      4  C   UNL     1      -2.374   4.257   0.970  0.00  0.00    +0.138 A 
ATOM      5  C   UNL     1      -1.159   3.630   0.642  0.00  0.00    +0.026 A 
ATOM      6  C   UNL     1       0.032   4.397   0.586  0.00  0.00    +0.008 A 
ATOM      7  C   UNL     1       1.243   3.766   0.259  0.00  0.00    +0.010 A 
ATOM      8  C   UNL     1       1.259   2.430  -0.001  0.00  0.00    +0.001 A 
ATOM      9  C   UNL     1       0.088   1.675   0.054  0.00  0.00    +0.001 A 
ATOM     10  C   UNL     1      -1.104   2.253   0.363  0.00  0.00    +0.012 A 
ENDROOT
BRANCH   1  11
ATOM     11  N   UNL     1       1.147   6.548   0.809  0.00  0.00    -0.216 N 
ATOM     12  H   UNL     1       1.831   6.348   0.151  0.00  0.00    +0.174 HD
BRANCH  11  13
ATOM     13  S   UNL     1       1.361   7.800   1.872  0.00  0.00    +0.073 S 
ATOM     14  O   UNL     1       2.679   8.289   1.664  0.00  0.00    -0.150 OA
ATOM     15  O   UNL     1       0.214   8.631   1.757  0.00  0.00    -0.150 OA
BRANCH  13  21
ATOM     16  C   UNL     1      -0.846   7.264   6.580  0.00  0.00    +0.044 C 
ATOM     17  C   UNL     1       0.274   6.908   5.636  0.00  0.00    -0.049 A 
ATOM     18  C   UNL     1       1.274   6.046   6.044  0.00  0.00    +0.004 A 
ATOM     19  C   UNL     1       2.301   5.719   5.178  0.00  0.00    +0.005 A 
ATOM     20  C   UNL     1       2.327   6.255   3.904  0.00  0.00    -0.024 A 
ATOM     21  C   UNL     1       1.327   7.117   3.495  0.00  0.00    +0.112 A 
ATOM     22  C   UNL     1       0.303   7.448   4.363  0.00  0.00    +0.032 A 
ATOM     23  C   UNL     1       3.447   5.899   2.960  0.00  0.00    +0.046 C 
ENDBRANCH  13  21
ENDBRANCH  11  13
ENDBRANCH   1  11
BRANCH   4  24
ATOM     24  O   UNL     1      -3.524   3.532   1.026  0.00  0.00    -0.505 OA
ATOM     25  H   UNL     1      -3.711   3.159   1.898  0.00  0.00    +0.292 HD
ENDBRANCH   4  24
BRANCH   3  26
ATOM     26  S   UNL     1      -3.918   6.399   1.643  0.00  0.00    -0.060 S 
BRANCH  26  27
ATOM     27  C   UNL     1      -4.673   6.453   0.052  0.00  0.00    +0.130 C 
ATOM     28  N   UNL     1      -4.213   5.942  -1.048  0.00  0.00    -0.269 NA
ATOM     29  C   UNL     1      -4.928   6.048  -2.299  0.00  0.00    +0.154 C 
ATOM     30  C   UNL     1      -6.254   6.829  -2.167  0.00  0.00    +0.099 C 
ATOM     31  S   UNL     1      -6.219   7.227  -0.376  0.00  0.00    -0.097 S 
ENDBRANCH  26  27
ENDBRANCH   3  26
TORSDOF 6
