REMARK  Name = ZINC37750888
REMARK  4 active torsions:
REMARK  status: ('A' for Active; 'I' for Inactive)
REMARK    1  A    between atoms: C_1  and  S_2
REMARK    2  A    between atoms: S_2  and  C_5
REMARK    3  A    between atoms: C_5  and  C_6
REMARK    4  A    between atoms: C_6  and  N_7
REMARK                            x       y       z     vdW  Elec       q    Type
REMARK                         _______ _______ _______ _____ _____    ______ ____
ROOT
ATOM      1  N   UNL     1       1.693  -2.209  -2.950  0.00  0.00    -0.318 N 
ATOM      2  C   UNL     1       1.103  -2.385  -4.199  0.00  0.00    +0.070 A 
ATOM      3  C   UNL     1      -0.209  -2.336  -4.648  0.00  0.00    +0.028 A 
ATOM      4  C   UNL     1      -0.489  -2.559  -5.981  0.00  0.00    +0.005 A 
ATOM      5  C   UNL     1       0.533  -2.832  -6.874  0.00  0.00    +0.040 A 
ATOM      6  C   UNL     1       1.845  -2.883  -6.437  0.00  0.00    +0.149 A 
ATOM      7  C   UNL     1       2.135  -2.659  -5.098  0.00  0.00    +0.101 A 
ATOM      8  N   UNL     1       3.321  -2.642  -4.367  0.00  0.00    -0.331 N 
ATOM      9  C   UNL     1       3.023  -2.364  -3.083  0.00  0.00    +0.159 A 
ATOM     10  S   UNL     1       4.163  -2.231  -1.813  0.00  0.00    -0.013 S 
ATOM     11  F   UNL     1       2.840  -3.149  -7.311  0.00  0.00    -0.203 F 
ATOM     12  H   UNL     1       4.210  -2.800  -4.722  0.00  0.00    +0.168 HD
ENDROOT
BRANCH   1  13
ATOM     13  C   UNL     1       0.986  -1.902  -1.705  0.00  0.00    +0.147 C 
BRANCH  13  14
ATOM     14  C   UNL     1       0.877  -0.385  -1.541  0.00  0.00    +0.187 C 
BRANCH  14  16
ATOM     15  C   UNL     1      -0.022   1.810   0.012  0.00  0.00    +0.194 C 
ATOM     16  S   UNL     1       0.002  -0.004   0.002  0.00  0.00    -0.032 S 
ATOM     17  O   UNL     1       0.798  -0.449   1.092  0.00  0.00    -0.175 OA
ATOM     18  O   UNL     1      -1.335  -0.471  -0.113  0.00  0.00    -0.175 OA
ENDBRANCH  14  16
ENDBRANCH  13  14
ENDBRANCH   1  13
TORSDOF 3
