REMARK  Name = ZINC62450778
REMARK  10 active torsions:
REMARK  status: ('A' for Active; 'I' for Inactive)
REMARK    1  A    between atoms: C_1  and  C_2
REMARK    2  A    between atoms: C_2  and  C_3
REMARK    3  A    between atoms: C_2  and  N_4
REMARK    4  A    between atoms: N_4  and  C_5
REMARK    5  A    between atoms: C_5  and  C_7
REMARK    6  A    between atoms: C_5  and  C_20
REMARK    7  A    between atoms: C_7  and  C_8
REMARK    8  A    between atoms: C_8  and  O_9
REMARK    9  A    between atoms: O_9  and  C_10
REMARK   10  A    between atoms: C_15  and  N_16
REMARK                            x       y       z     vdW  Elec       q    Type
REMARK                         _______ _______ _______ _____ _____    ______ ____
ROOT
ATOM      1  O   UNL     1       3.232   1.093  -4.215  0.00  0.00    -0.490 OA
ENDROOT
BRANCH   1   2
ATOM      2  C   UNL     1       3.083   2.266  -4.886  0.00  0.00    +0.151 A 
ATOM      3  C   UNL     1       2.319   3.287  -4.339  0.00  0.00    +0.051 A 
ATOM      4  C   UNL     1       2.168   4.477  -5.022  0.00  0.00    +0.042 A 
ATOM      5  C   UNL     1       2.778   4.652  -6.253  0.00  0.00    +0.126 A 
ATOM      6  C   UNL     1       3.540   3.635  -6.800  0.00  0.00    +0.074 A 
ATOM      7  C   UNL     1       3.698   2.445  -6.116  0.00  0.00    +0.170 A 
ATOM      8  F   UNL     1       2.630   5.818  -6.920  0.00  0.00    -0.205 F 
BRANCH   7   9
ATOM      9  N   UNL     1       4.519   1.359  -6.698  0.00  0.00    +0.060 N 
ATOM     10  O   UNL     1       5.055   1.515  -7.770  0.00  0.00    -0.126 OA
ATOM     11  O   UNL     1       4.652   0.316  -6.102  0.00  0.00    -0.126 OA
ENDBRANCH   7   9
ENDBRANCH   1   2
BRANCH   1  12
ATOM     12  C   UNL     1       2.570   0.979  -2.953  0.00  0.00    +0.231 C 
BRANCH  12  13
ATOM     13  C   UNL     1       2.853  -0.400  -2.352  0.00  0.00    +0.075 C 
BRANCH  13  14
ATOM     14  C   UNL     1       2.144  -0.522  -1.002  0.00  0.00    +0.161 C 
BRANCH  14  15
ATOM     15  N   UNL     1       0.690  -0.478  -1.207  0.00  0.00    -0.299 NA
ATOM     16  H   UNL     1       0.337  -1.379  -1.493  0.00  0.00    +0.123 HD
BRANCH  15  18
ATOM     17  C   UNL     1      -0.019   1.526   0.010  0.00  0.00    +0.023 C 
ATOM     18  C   UNL     1       0.002  -0.004   0.002  0.00  0.00    +0.049 C 
ATOM     19  C   UNL     1      -1.433  -0.534   0.013  0.00  0.00    +0.023 C 
ENDBRANCH  15  18
ENDBRANCH  14  15
BRANCH  14  20
ATOM     20  C   UNL     1       2.511  -1.799  -0.369  0.00  0.00    +0.081 C 
ATOM     21  N   UNL     1       2.795  -2.784   0.120  0.00  0.00    -0.195 NA
ENDBRANCH  14  20
ENDBRANCH  13  14
ENDBRANCH  12  13
ENDBRANCH   1  12
TORSDOF 8
