REMARK  Name = ZINC40309296
REMARK  8 active torsions:
REMARK  status: ('A' for Active; 'I' for Inactive)
REMARK    1  A    between atoms: C_1  and  O_2
REMARK    2  A    between atoms: O_2  and  C_3
REMARK    3  A    between atoms: C_9  and  C_13
REMARK    4  A    between atoms: C_13  and  C_14
REMARK    5  A    between atoms: C_14  and  N_15
REMARK    6  A    between atoms: C_16  and  C_18
REMARK    7  A    between atoms: N_20  and  C_21
REMARK    8  A    between atoms: C_26  and  O_27
REMARK                            x       y       z     vdW  Elec       q    Type
REMARK                         _______ _______ _______ _____ _____    ______ ____
ROOT
ATOM      1  N   UNL     1      -0.672  -6.758   1.429  0.00  0.00    -0.307 N 
ATOM      2  C   UNL     1      -0.182  -7.239   2.589  0.00  0.00    +0.299 C 
ATOM      3  O   UNL     1      -0.464  -6.699   3.638  0.00  0.00    -0.265 OA
ATOM      4  H   UNL     1      -0.447  -7.189   0.591  0.00  0.00    +0.149 HD
ENDROOT
BRANCH   2   5
ATOM      5  C   UNL     1       0.709  -8.438   2.582  0.00  0.00    +0.303 C 
ATOM      6  O   UNL     1       0.992  -8.978   1.532  0.00  0.00    -0.265 OA
ATOM      7  N   UNL     1       1.200  -8.919   3.741  0.00  0.00    -0.275 N 
ATOM      8  H   UNL     1       1.028  -8.451   4.572  0.00  0.00    +0.155 HD
BRANCH   7   9
ATOM      9  C   UNL     1       1.958 -10.095   3.744  0.00  0.00    +0.077 A 
ATOM     10  C   UNL     1       2.797 -10.386   2.678  0.00  0.00    +0.047 A 
ATOM     11  C   UNL     1       3.545 -11.549   2.684  0.00  0.00    +0.043 A 
ATOM     12  C   UNL     1       3.458 -12.425   3.752  0.00  0.00    +0.023 A 
ATOM     13  C   UNL     1       2.623 -12.142   4.817  0.00  0.00    +0.049 A 
ATOM     14  C   UNL     1       1.875 -10.976   4.821  0.00  0.00    +0.138 A 
ATOM     15 CL   UNL     1       4.595 -11.911   1.350  0.00  0.00    -0.083 Cl
BRANCH  14  16
ATOM     16  O   UNL     1       1.058 -10.694   5.871  0.00  0.00    -0.505 OA
ATOM     17  H   UNL     1       0.161 -11.040   5.775  0.00  0.00    +0.292 HD
ENDBRANCH  14  16
ENDBRANCH   7   9
ENDBRANCH   2   5
BRANCH   1  18
ATOM     18  C   UNL     1      -1.547  -5.582   1.437  0.00  0.00    +0.109 C 
BRANCH  18  19
ATOM     19  C   UNL     1      -1.961  -5.246   0.002  0.00  0.00    +0.056 C 
BRANCH  19  26
ATOM     20  C   UNL     1      -1.129  -0.620   0.004  0.00  0.00    +0.121 A 
ATOM     21  C   UNL     1      -2.300   0.135   0.012  0.00  0.00    +0.047 A 
ATOM     22  C   UNL     1      -3.531  -0.481   0.018  0.00  0.00    +0.030 A 
ATOM     23  C   UNL     1      -3.615  -1.870   0.016  0.00  0.00    +0.047 A 
ATOM     24  C   UNL     1      -2.434  -2.635   0.009  0.00  0.00    +0.006 A 
ATOM     25  C   UNL     1      -1.191  -1.999  -0.002  0.00  0.00    +0.056 A 
ATOM     26  C   UNL     1      -2.860  -4.036   0.010  0.00  0.00    -0.021 A 
ATOM     27  C   UNL     1      -4.202  -4.040   0.017  0.00  0.00    +0.087 A 
ATOM     28  N   UNL     1      -4.672  -2.755   0.021  0.00  0.00    -0.360 N 
ATOM     29  H   UNL     1      -5.609  -2.504   0.027  0.00  0.00    +0.165 HD
BRANCH  20  31
ATOM     30  C   UNL     1       0.071   1.433   0.005  0.00  0.00    +0.277 C 
ATOM     31  O   UNL     1       0.079   0.004  -0.002  0.00  0.00    -0.495 OA
ENDBRANCH  20  31
ENDBRANCH  19  26
ENDBRANCH  18  19
ENDBRANCH   1  18
TORSDOF 7
