REMARK  Name = ZINC11621594
REMARK  6 active torsions:
REMARK  status: ('A' for Active; 'I' for Inactive)
REMARK    1  A    between atoms: C_1  and  C_2
REMARK    2  A    between atoms: C_2  and  C_4
REMARK    3  A    between atoms: C_2  and  S_13
REMARK    4  A    between atoms: N_6  and  C_7
REMARK    5  A    between atoms: S_13  and  C_14
REMARK    6  A    between atoms: N_18  and  C_19
REMARK                            x       y       z     vdW  Elec       q    Type
REMARK                         _______ _______ _______ _____ _____    ______ ____
ROOT
ATOM      1  C   UNL     1      -2.677   0.946   1.341  0.00  0.00    +0.029 C 
ATOM      2  C   UNL     1      -2.729   0.159   0.030  0.00  0.00    +0.137 C 
ENDROOT
BRANCH   2   3
ATOM      3  C   UNL     1      -4.061  -0.538  -0.084  0.00  0.00    +0.226 C 
ATOM      4  O   UNL     1      -4.174  -1.691   0.276  0.00  0.00    -0.275 OA
ATOM      5  N   UNL     1      -5.125   0.119  -0.587  0.00  0.00    -0.312 N 
ATOM      6  H   UNL     1      -5.034   1.040  -0.875  0.00  0.00    +0.149 HD
BRANCH   5   7
ATOM      7  C   UNL     1      -6.419  -0.559  -0.698  0.00  0.00    +0.073 C 
ATOM      8  C   UNL     1      -6.471  -1.347  -2.008  0.00  0.00    +0.022 C 
ATOM      9  C   UNL     1      -7.822  -2.054  -2.124  0.00  0.00    +0.002 C 
ATOM     10  C   UNL     1      -8.946  -1.016  -2.108  0.00  0.00    +0.000 C 
ATOM     11  C   UNL     1      -8.893  -0.228  -0.797  0.00  0.00    +0.002 C 
ATOM     12  C   UNL     1      -7.542   0.480  -0.681  0.00  0.00    +0.022 C 
ENDBRANCH   5   7
ENDBRANCH   2   3
BRANCH   2  13
ATOM     13  S   UNL     1      -1.401  -1.070   0.011  0.00  0.00    -0.072 S 
BRANCH  13  14
ATOM     14  C   UNL     1       0.002  -0.004   0.002  0.00  0.00    +0.210 A 
ATOM     15  N   UNL     1      -0.016   1.311   0.009  0.00  0.00    -0.101 NA
ATOM     16  N   UNL     1       1.181   1.777   0.000  0.00  0.00    -0.022 NA
ATOM     17  N   UNL     1       2.037   0.814  -0.013  0.00  0.00    -0.043 NA
ATOM     18  N   UNL     1       1.301  -0.384  -0.012  0.00  0.00    -0.217 N 
BRANCH  18  19
ATOM     19  C   UNL     1       1.828  -1.751  -0.025  0.00  0.00    +0.112 C 
ATOM     20  C   UNL     1       2.748  -1.974   1.193  0.00  0.00    +0.027 C 
ATOM     21  C   UNL     1       3.885  -2.877   0.650  0.00  0.00    +0.002 C 
ATOM     22  C   UNL     1       4.111  -2.320  -0.778  0.00  0.00    +0.002 C 
ATOM     23  C   UNL     1       2.694  -1.971  -1.278  0.00  0.00    +0.027 C 
ENDBRANCH  18  19
ENDBRANCH  13  14
ENDBRANCH   2  13
TORSDOF 5
