REMARK  Name = ZINC11871639
REMARK  10 active torsions:
REMARK  status: ('A' for Active; 'I' for Inactive)
REMARK    1  A    between atoms: C_1  and  C_2
REMARK    2  A    between atoms: C_2  and  C_4
REMARK    3  A    between atoms: C_2  and  N_24
REMARK    4  A    between atoms: C_13  and  C_14
REMARK    5  A    between atoms: C_13  and  N_58
REMARK    6  A    between atoms: C_17  and  O_22
REMARK    7  A    between atoms: C_18  and  O_20
REMARK    8  A    between atoms: O_20  and  C_21
REMARK    9  A    between atoms: O_22  and  C_23
REMARK   10  A    between atoms: C_25  and  C_27
REMARK                            x       y       z     vdW  Elec       q    Type
REMARK                         _______ _______ _______ _____ _____    ______ ____
ROOT
ATOM      1  C   UNL     1       1.209   1.742  -0.000  0.00  0.00    +0.154 A 
ATOM      2  N   UNL     1      -0.015   1.284   0.009  0.00  0.00    -0.132 NA
ATOM      3  N   UNL     1       0.002  -0.004   0.002  0.00  0.00    -0.134 NA
ATOM      4  C   UNL     1       1.234  -0.422  -0.018  0.00  0.00    +0.132 A 
ATOM      5  N   UNL     1       2.033   0.672  -0.005  0.00  0.00    -0.315 N 
ATOM      6  C   UNL     1       3.496   0.670   0.015  0.00  0.00    +0.106 C 
ATOM      7  C   UNL     1       4.007  -0.609  -0.655  0.00  0.00    -0.056 C 
ATOM      8  C   UNL     1       2.850  -2.015   0.960  0.00  0.00    -0.071 C 
ATOM      9  C   UNL     1       1.724  -1.846  -0.064  0.00  0.00    +0.058 C 
ATOM     10  N   UNL     1       4.161  -1.669   0.367  0.00  0.00    +0.384 N 
ATOM     11  H   UNL     1       4.779  -1.323   1.111  0.00  0.00    -0.081 HD
ENDROOT
BRANCH   1  13
ATOM     12  C   UNL     1       1.393   3.783  -1.396  0.00  0.00    +0.036 C 
ATOM     13  C   UNL     1       1.623   3.191  -0.004  0.00  0.00    +0.138 C 
BRANCH  13  14
ATOM     14  N   UNL     1       0.825   3.929   0.978  0.00  0.00    -0.299 N 
ATOM     15  C   UNL     1       1.308   5.064   1.522  0.00  0.00    +0.280 C 
ATOM     16  O   UNL     1       2.407   5.475   1.198  0.00  0.00    -0.267 OA
ATOM     17  H   UNL     1      -0.050   3.602   1.237  0.00  0.00    +0.150 HD
BRANCH  15  18
ATOM     18  C   UNL     1       0.510   5.803   2.506  0.00  0.00    +0.189 A 
ATOM     19  C   UNL     1       0.877   6.960   3.131  0.00  0.00    +0.054 A 
ATOM     20  C   UNL     1      -0.182   7.312   3.982  0.00  0.00    +0.042 A 
ATOM     21  C   UNL     1      -1.137   6.367   3.841  0.00  0.00    +0.196 A 
ATOM     22  O   UNL     1      -0.719   5.462   2.946  0.00  0.00    -0.458 OA
ENDBRANCH  15  18
ENDBRANCH  13  14
ENDBRANCH   1  13
BRANCH  10  23
ATOM     23  C   UNL     1       4.768  -2.868  -0.239  0.00  0.00    -0.043 C 
BRANCH  23  24
ATOM     24  C   UNL     1       5.105  -3.844   0.859  0.00  0.00    -0.060 A 
ATOM     25  C   UNL     1       4.183  -4.803   1.236  0.00  0.00    +0.005 A 
ATOM     26  C   UNL     1       4.487  -5.701   2.242  0.00  0.00    +0.049 A 
ATOM     27  C   UNL     1       5.719  -5.642   2.874  0.00  0.00    +0.161 A 
ATOM     28  C   UNL     1       6.647  -4.677   2.494  0.00  0.00    +0.162 A 
ATOM     29  C   UNL     1       6.337  -3.783   1.482  0.00  0.00    +0.051 A 
BRANCH  28  30
ATOM     30  O   UNL     1       7.857  -4.615   3.112  0.00  0.00    -0.491 OA
ATOM     31  C   UNL     1       8.759  -3.599   2.670  0.00  0.00    +0.277 C 
ENDBRANCH  28  30
BRANCH  27  32
ATOM     32  O   UNL     1       6.020  -6.525   3.864  0.00  0.00    -0.491 OA
ATOM     33  C   UNL     1       5.019  -7.487   4.201  0.00  0.00    +0.277 C 
ENDBRANCH  27  32
ENDBRANCH  23  24
ENDBRANCH  10  23
TORSDOF 7
