REMARK  Name = ZINC14457832
REMARK  7 active torsions:
REMARK  status: ('A' for Active; 'I' for Inactive)
REMARK    1  A    between atoms: C_1  and  C_2
REMARK    2  A    between atoms: C_4  and  C_29
REMARK    3  A    between atoms: C_5  and  C_9
REMARK    4  A    between atoms: C_6  and  C_8
REMARK    5  A    between atoms: C_22  and  C_25
REMARK    6  A    between atoms: C_25  and  O_27
REMARK    7  A    between atoms: O_27  and  C_28
REMARK                            x       y       z     vdW  Elec       q    Type
REMARK                         _______ _______ _______ _____ _____    ______ ____
ROOT
ATOM      1  C   UNL     1       4.006   1.680   1.024  0.00  0.00    +0.105 C 
ATOM      2  C   UNL     1       4.389   3.145   1.246  0.00  0.00    +0.029 C 
ATOM      3  C   UNL     1       5.620   3.177   2.195  0.00  0.00    +0.033 C 
ATOM      4  C   UNL     1       5.008   3.037   3.575  0.00  0.00    -0.030 C 
ATOM      5  C   UNL     1       3.746   3.388   3.555  0.00  0.00    -0.023 C 
ATOM      6  C   UNL     1       3.333   3.809   2.154  0.00  0.00    +0.049 C 
ATOM      7  C   UNL     1       1.952   3.311   1.845  0.00  0.00    -0.019 A 
ATOM      8  C   UNL     1       0.881   3.925   2.480  0.00  0.00    +0.006 A 
ATOM      9  C   UNL     1      -0.418   3.513   2.247  0.00  0.00    +0.001 A 
ATOM     10  C   UNL     1      -0.671   2.479   1.372  0.00  0.00    +0.017 A 
ATOM     11  C   UNL     1       0.391   1.849   0.723  0.00  0.00    +0.080 A 
ATOM     12  C   UNL     1       1.714   2.268   0.967  0.00  0.00    +0.045 A 
ATOM     13  N   UNL     1       2.737   1.614   0.298  0.00  0.00    -0.336 N 
ATOM     14  H   UNL     1       2.484   0.658   0.098  0.00  0.00    +0.147 HD
ENDROOT
BRANCH   1  19
ATOM     15  C   UNL     1       3.447  -0.964   6.131  0.00  0.00    +0.044 C 
ATOM     16  C   UNL     1       3.593  -0.275   4.799  0.00  0.00    -0.050 A 
ATOM     17  C   UNL     1       2.503  -0.160   3.957  0.00  0.00    +0.007 A 
ATOM     18  C   UNL     1       2.636   0.472   2.736  0.00  0.00    -0.045 A 
ATOM     19  C   UNL     1       3.860   0.990   2.356  0.00  0.00    -0.021 A 
ATOM     20  C   UNL     1       4.952   0.871   3.195  0.00  0.00    -0.045 A 
ATOM     21  C   UNL     1       4.818   0.242   4.418  0.00  0.00    +0.007 A 
ATOM     22  C   UNL     1       6.288   1.430   2.778  0.00  0.00    +0.044 C 
ATOM     23  C   UNL     1       1.448   0.598   1.818  0.00  0.00    +0.044 C 
ENDBRANCH   1  19
BRANCH  11  24
ATOM     24  C   UNL     1       0.129   0.742  -0.213  0.00  0.00    +0.341 C 
ATOM     25  O   UNL     1       0.785   0.640  -1.231  0.00  0.00    -0.245 OA
BRANCH  24  26
ATOM     26  O   UNL     1      -0.841  -0.153   0.057  0.00  0.00    -0.464 OA
ATOM     27  C   UNL     1      -1.047  -1.214  -0.913  0.00  0.00    +0.280 C 
ENDBRANCH  24  26
ENDBRANCH  11  24
TORSDOF 3
