REMARK  Name = ZINC07048005
REMARK  6 active torsions:
REMARK  status: ('A' for Active; 'I' for Inactive)
REMARK    1  A    between atoms: C_1  and  C_2
REMARK    2  A    between atoms: C_4  and  N_23
REMARK    3  A    between atoms: C_6  and  S_8
REMARK    4  A    between atoms: S_8  and  C_9
REMARK    5  A    between atoms: C_9  and  C_10
REMARK    6  A    between atoms: C_20  and  C_22
REMARK                            x       y       z     vdW  Elec       q    Type
REMARK                         _______ _______ _______ _____ _____    ______ ____
ROOT
ATOM      1  C   UNL     1      -2.205   6.027   0.056  0.00  0.00    +0.173 C 
ENDROOT
BRANCH   1   2
ATOM      2  C   UNL     1      -3.404   6.941   0.072  0.00  0.00    +0.230 C 
ATOM      3  O   UNL     1      -4.523   6.473   0.080  0.00  0.00    -0.274 OA
ATOM      4  N   UNL     1      -3.233   8.277   0.078  0.00  0.00    -0.267 N 
ATOM      5  C   UNL     1      -1.995   8.927   0.069  0.00  0.00    +0.040 A 
ATOM      6  C   UNL     1      -0.709   8.382   0.054  0.00  0.00    +0.024 A 
ATOM      7  C   UNL     1       0.396   9.206   0.046  0.00  0.00    +0.002 A 
ATOM      8  C   UNL     1       0.239  10.580   0.054  0.00  0.00    +0.000 A 
ATOM      9  C   UNL     1      -1.030  11.127   0.070  0.00  0.00    +0.005 A 
ATOM     10  C   UNL     1      -2.141  10.305   0.077  0.00  0.00    -0.024 A 
ATOM     11  C   UNL     1      -3.617  10.632   0.093  0.00  0.00    +0.059 C 
ATOM     12  C   UNL     1      -4.317   9.263   0.087  0.00  0.00    +0.083 C 
ATOM     13  C   UNL     1      -5.170   9.101   1.347  0.00  0.00    +0.029 C 
ENDBRANCH   1   2
BRANCH   1  14
ATOM     14  S   UNL     1      -2.760   4.304   0.052  0.00  0.00    -0.077 S 
BRANCH  14  20
ATOM     15  C   UNL     1       0.002  -0.004   0.002  0.00  0.00    +0.066 C 
ATOM     16  C   UNL     1      -0.018   1.503   0.010  0.00  0.00    +0.044 A 
ATOM     17  C   UNL     1       1.164   2.217   0.003  0.00  0.00    +0.066 A 
ATOM     18  C   UNL     1       1.100   3.612   0.011  0.00  0.00    +0.121 A 
ATOM     19  N   UNL     1      -0.090   4.203   0.026  0.00  0.00    -0.207 NA
ATOM     20  C   UNL     1      -1.202   3.482   0.032  0.00  0.00    +0.191 A 
ATOM     21  N   UNL     1      -1.170   2.156   0.019  0.00  0.00    -0.227 NA
BRANCH  18  22
ATOM     22  N   UNL     1       2.260   4.369   0.004  0.00  0.00    -0.343 N 
ATOM     23  H   UNL     1       3.126   3.930  -0.007  0.00  0.00    +0.144 HD
ATOM     24  H   UNL     1       2.208   5.337   0.009  0.00  0.00    +0.144 HD
ENDBRANCH  18  22
ENDBRANCH  14  20
ENDBRANCH   1  14
TORSDOF 4
