REMARK  Name = ZINC37071645
REMARK  6 active torsions:
REMARK  status: ('A' for Active; 'I' for Inactive)
REMARK    1  A    between atoms: C_3  and  N_13
REMARK    2  A    between atoms: C_6  and  C_7
REMARK    3  A    between atoms: N_13  and  C_14
REMARK    4  A    between atoms: C_14  and  C_15
REMARK    5  A    between atoms: C_18  and  O_22
REMARK    6  A    between atoms: C_19  and  O_21
REMARK                            x       y       z     vdW  Elec       q    Type
REMARK                         _______ _______ _______ _____ _____    ______ ____
ROOT
ATOM      1  N   UNL     1       3.581   2.132  -0.022  0.00  0.00    -0.340 N 
ATOM      2  H   UNL     1       3.567   3.102  -0.016  0.00  0.00    +0.146 HD
ENDROOT
BRANCH   1   5
ATOM      3  C   UNL     1      -0.017   1.390   0.010  0.00  0.00    +0.012 A 
ATOM      4  C   UNL     1       1.169   2.094   0.002  0.00  0.00    +0.023 A 
ATOM      5  C   UNL     1       2.381   1.416  -0.013  0.00  0.00    +0.027 A 
ATOM      6  C   UNL     1       2.402   0.026  -0.022  0.00  0.00    +0.023 A 
ATOM      7  C   UNL     1       1.220  -0.682  -0.014  0.00  0.00    +0.012 A 
ATOM      8  C   UNL     1       0.002  -0.004   0.002  0.00  0.00    +0.002 A 
BRANCH   8   9
ATOM      9  C   UNL     1      -1.272  -0.764   0.011  0.00  0.00    +0.089 A 
ATOM     10  C   UNL     1      -1.398  -2.117   0.010  0.00  0.00    +0.112 A 
ATOM     11  N   UNL     1      -2.739  -2.386   0.021  0.00  0.00    -0.350 N 
ATOM     12  H   UNL     1      -3.148  -3.266   0.023  0.00  0.00    +0.166 HD
ATOM     13  C   UNL     1      -3.389  -1.202   0.027  0.00  0.00    +0.197 A 
ATOM     14  N   UNL     1      -2.513  -0.237   0.026  0.00  0.00    -0.236 NA
ENDBRANCH   8   9
ENDBRANCH   1   5
BRANCH   1  15
ATOM     15  C   UNL     1       4.860   1.418  -0.038  0.00  0.00    +0.137 C 
BRANCH  15  16
ATOM     16  C   UNL     1       5.991   2.413  -0.044  0.00  0.00    -0.027 A 
ATOM     17  C   UNL     1       6.493   2.880  -1.245  0.00  0.00    +0.009 A 
ATOM     18  C   UNL     1       7.531   3.793  -1.256  0.00  0.00    +0.049 A 
ATOM     19  C   UNL     1       8.070   4.244  -0.061  0.00  0.00    +0.158 A 
ATOM     20  C   UNL     1       7.564   3.774   1.147  0.00  0.00    +0.159 A 
ATOM     21  C   UNL     1       6.521   2.862   1.151  0.00  0.00    +0.054 A 
BRANCH  20  22
ATOM     22  O   UNL     1       8.090   4.213   2.322  0.00  0.00    -0.503 OA
ATOM     23  H   UNL     1       7.658   5.003   2.676  0.00  0.00    +0.292 HD
ENDBRANCH  20  22
BRANCH  19  24
ATOM     24  O   UNL     1       9.091   5.142  -0.070  0.00  0.00    -0.503 OA
ATOM     25  H   UNL     1       8.803   6.065  -0.059  0.00  0.00    +0.292 HD
ENDBRANCH  19  24
ENDBRANCH  15  16
ENDBRANCH   1  15
TORSDOF 6
