REMARK  Name = ZINC20468155
REMARK  5 active torsions:
REMARK  status: ('A' for Active; 'I' for Inactive)
REMARK    1  A    between atoms: C_3  and  N_12
REMARK    2  A    between atoms: C_4  and  C_10
REMARK    3  A    between atoms: C_6  and  N_7
REMARK    4  A    between atoms: C_10  and  O_11
REMARK    5  A    between atoms: C_15  and  O_18
REMARK                            x       y       z     vdW  Elec       q    Type
REMARK                         _______ _______ _______ _____ _____    ______ ____
ROOT
ATOM      1  C   UNL     1      -0.253   3.454   0.953  0.00  0.00    +0.034 A 
ATOM      2  C   UNL     1       0.957   2.789   0.931  0.00  0.00    +0.026 A 
ATOM      3  C   UNL     1       1.181   1.788  -0.006  0.00  0.00    +0.035 A 
ATOM      4  C   UNL     1       0.188   1.464  -0.922  0.00  0.00    +0.001 A 
ATOM      5  C   UNL     1      -1.018   2.137  -0.898  0.00  0.00    +0.040 A 
ATOM      6  C   UNL     1      -1.237   3.133   0.036  0.00  0.00    +0.127 A 
ENDROOT
BRANCH   3   7
ATOM      7  N   UNL     1       2.401   1.110  -0.028  0.00  0.00    -0.329 N 
ATOM      8  C   UNL     1       3.515   2.038  -0.258  0.00  0.00    +0.107 C 
ATOM      9  C   UNL     1       4.815   1.247  -0.420  0.00  0.00    +0.050 C 
ATOM     10  C   UNL     1       5.066   0.422   0.845  0.00  0.00    +0.118 C 
ATOM     11  C   UNL     1       3.870  -0.502   1.089  0.00  0.00    +0.050 C 
ATOM     12  C   UNL     1       2.597   0.340   1.208  0.00  0.00    +0.107 C 
BRANCH  10  13
ATOM     13  O   UNL     1       6.249  -0.362   0.677  0.00  0.00    -0.392 OA
ATOM     14  H   UNL     1       6.590  -1.023   1.488  0.00  0.00    +0.210 HD
ENDBRANCH  10  13
ENDBRANCH   3   7
BRANCH   6  15
ATOM     15  N   UNL     1      -2.530   3.853   0.058  0.00  0.00    +0.056 N 
ATOM     16  O   UNL     1      -3.400   3.567  -0.745  0.00  0.00    -0.126 OA
ATOM     17  O   UNL     1      -2.725   4.730   0.880  0.00  0.00    -0.126 OA
ENDBRANCH   6  15
BRANCH   4  18
ATOM     18  C   UNL     1       0.426   0.379  -1.941  0.00  0.00    +0.193 C 
BRANCH  18  19
ATOM     19  O   UNL     1      -0.685   0.316  -2.838  0.00  0.00    -0.390 OA
ATOM     20  H   UNL     1      -0.691  -0.421  -3.655  0.00  0.00    +0.210 HD
ENDBRANCH  18  19
ENDBRANCH   4  18
TORSDOF 5
