REMARK  Name = ZINC35990887
REMARK  9 active torsions:
REMARK  status: ('A' for Active; 'I' for Inactive)
REMARK    1  A    between atoms: C_1  and  C_2
REMARK    2  A    between atoms: C_2  and  O_3
REMARK    3  A    between atoms: O_3  and  C_4
REMARK    4  A    between atoms: C_4  and  C_6
REMARK    5  A    between atoms: C_7  and  C_22
REMARK    6  A    between atoms: N_8  and  C_21
REMARK    7  A    between atoms: C_12  and  C_14
REMARK    8  A    between atoms: C_17  and  C_20
REMARK    9  A    between atoms: C_22  and  N_23
REMARK                            x       y       z     vdW  Elec       q    Type
REMARK                         _______ _______ _______ _____ _____    ______ ____
ROOT
ATOM      1  C   UNL     1       1.346  -2.337  -2.521  0.00  0.00    +0.080 C 
ATOM      2  C   UNL     1       1.628  -3.654  -2.615  0.00  0.00    +0.041 C 
ATOM      3  N   UNL     1       2.336  -4.149  -3.672  0.00  0.00    -0.260 N 
ATOM      4  C   UNL     1       2.799  -3.393  -4.676  0.00  0.00    +0.307 C 
ATOM      5  O   UNL     1       3.420  -3.925  -5.575  0.00  0.00    -0.252 OA
ATOM      6  N   UNL     1       2.597  -2.062  -4.722  0.00  0.00    -0.288 N 
ATOM      7  C   UNL     1       1.837  -1.429  -3.630  0.00  0.00    +0.144 C 
ATOM      8  C   UNL     1       2.606  -5.589  -3.710  0.00  0.00    +0.139 C 
ATOM      9  H   UNL     1       2.941  -1.532  -5.458  0.00  0.00    +0.151 HD
ENDROOT
BRANCH   7  10
ATOM     10  C   UNL     1       0.639  -0.739  -4.231  0.00  0.00    -0.022 A 
ATOM     11  C   UNL     1      -0.158  -1.405  -5.142  0.00  0.00    +0.006 A 
ATOM     12  C   UNL     1      -1.256  -0.772  -5.693  0.00  0.00    +0.004 A 
ATOM     13  C   UNL     1      -1.558   0.528  -5.331  0.00  0.00    -0.050 A 
ATOM     14  C   UNL     1      -0.761   1.194  -4.419  0.00  0.00    +0.004 A 
ATOM     15  C   UNL     1       0.335   0.559  -3.865  0.00  0.00    +0.006 A 
ATOM     16  C   UNL     1      -2.755   1.218  -5.932  0.00  0.00    +0.044 C 
ENDBRANCH   7  10
BRANCH   1  17
ATOM     17  C   UNL     1       0.611  -1.823  -1.427  0.00  0.00    +0.339 C 
ATOM     18  O   UNL     1      -0.576  -1.587  -1.548  0.00  0.00    -0.245 OA
BRANCH  17  19
ATOM     19  O   UNL     1       1.228  -1.594  -0.248  0.00  0.00    -0.462 OA
BRANCH  19  21
ATOM     20  C   UNL     1       1.291  -0.881   2.060  0.00  0.00    +0.048 C 
ATOM     21  C   UNL     1       0.425  -1.074   0.814  0.00  0.00    +0.229 C 
ENDBRANCH  19  21
ENDBRANCH  17  19
ENDBRANCH   1  17
BRANCH   2  22
ATOM     22  C   UNL     1       1.153  -4.593  -1.536  0.00  0.00    +0.136 C 
BRANCH  22  23
ATOM     23  N   UNL     1       0.182  -5.539  -2.102  0.00  0.00    -0.299 NA
ATOM     24  C   UNL     1      -1.021  -4.831  -2.600  0.00  0.00    +0.083 C 
ATOM     25  C   UNL     1      -1.675  -5.685  -3.657  0.00  0.00    -0.004 C 
ATOM     26  C   UNL     1      -2.759  -6.610  -3.082  0.00  0.00    -0.081 C 
ATOM     27  N   UNL     1      -2.358  -7.232  -1.800  0.00  0.00    +0.380 N 
ATOM     28  C   UNL     1      -0.981  -7.670  -1.812  0.00  0.00    -0.067 C 
ATOM     29  C   UNL     1      -0.109  -6.561  -1.193  0.00  0.00    +0.066 C 
ATOM     30  H   UNL     1      -2.481  -6.560  -1.058  0.00  0.00    -0.086 HD
ATOM     31  H   UNL     1      -2.953  -8.027  -1.622  0.00  0.00    -0.086 HD
ENDBRANCH  22  23
ENDBRANCH   2  22
TORSDOF 6
