REMARK  Name = ZINC48373962
REMARK  9 active torsions:
REMARK  status: ('A' for Active; 'I' for Inactive)
REMARK    1  A    between atoms: C_1  and  C_2
REMARK    2  A    between atoms: C_4  and  C_29
REMARK    3  A    between atoms: N_5  and  C_7
REMARK    4  A    between atoms: C_12  and  N_13
REMARK    5  A    between atoms: N_16  and  C_17
REMARK    6  A    between atoms: C_17  and  C_18
REMARK    7  A    between atoms: C_18  and  N_19
REMARK    8  A    between atoms: N_19  and  C_20
REMARK    9  A    between atoms: C_25  and  N_26
REMARK                            x       y       z     vdW  Elec       q    Type
REMARK                         _______ _______ _______ _____ _____    ______ ____
ROOT
ATOM      1  N   UNL     1       1.548  -1.635   3.387  0.00  0.00    -0.268 N 
ATOM      2  C   UNL     1       1.362  -1.471   4.712  0.00  0.00    +0.304 C 
ATOM      3  O   UNL     1       1.467  -2.421   5.463  0.00  0.00    -0.253 OA
ATOM      4  N   UNL     1       1.059  -0.253   5.204  0.00  0.00    -0.298 N 
ATOM      5  H   UNL     1       1.424  -0.886   2.783  0.00  0.00    +0.156 HD
ATOM      6  H   UNL     1       0.975   0.505   4.605  0.00  0.00    +0.150 HD
ENDROOT
BRANCH   1  12
ATOM      7  C   UNL     1       2.643  -2.975   1.694  0.00  0.00    +0.087 A 
ATOM      8  C   UNL     1       3.014  -4.218   1.202  0.00  0.00    +0.029 A 
ATOM      9  C   UNL     1       2.661  -5.365   1.887  0.00  0.00    +0.002 A 
ATOM     10  C   UNL     1       1.938  -5.278   3.063  0.00  0.00    +0.002 A 
ATOM     11  C   UNL     1       1.565  -4.044   3.560  0.00  0.00    +0.025 A 
ATOM     12  C   UNL     1       1.920  -2.887   2.882  0.00  0.00    +0.060 A 
BRANCH   7  17
ATOM     13  C   UNL     1       4.366   1.583   0.760  0.00  0.00    +0.067 C 
ATOM     14  C   UNL     1       3.766   0.210   0.600  0.00  0.00    +0.061 A 
ATOM     15  C   UNL     1       3.313  -0.353  -0.598  0.00  0.00    +0.047 A 
ATOM     16  C   UNL     1       2.847  -1.594  -0.326  0.00  0.00    +0.042 A 
ATOM     17  N   UNL     1       3.001  -1.809   1.000  0.00  0.00    -0.235 N 
ATOM     18  N   UNL     1       3.584  -0.664   1.558  0.00  0.00    -0.171 NA
ATOM     19  C   UNL     1       2.263  -2.562  -1.322  0.00  0.00    +0.066 C 
ENDBRANCH   7  17
ENDBRANCH   1  12
BRANCH   4  20
ATOM     20  C   UNL     1       0.857  -0.075   6.644  0.00  0.00    +0.124 C 
BRANCH  20  21
ATOM     21  C   UNL     1       0.528   1.391   6.935  0.00  0.00    +0.120 C 
BRANCH  21  22
ATOM     22  N   UNL     1       0.326   1.569   8.375  0.00  0.00    -0.341 N 
ATOM     23  H   UNL     1       0.410   0.811   8.974  0.00  0.00    +0.146 HD
BRANCH  22  24
ATOM     24  C   UNL     1       0.012   2.831   8.885  0.00  0.00    +0.058 A 
ATOM     25  C   UNL     1      -0.141   3.911   8.025  0.00  0.00    +0.025 A 
ATOM     26  C   UNL     1      -0.452   5.157   8.532  0.00  0.00    +0.002 A 
ATOM     27  C   UNL     1      -0.610   5.331   9.895  0.00  0.00    +0.002 A 
ATOM     28  C   UNL     1      -0.458   4.258  10.754  0.00  0.00    +0.034 A 
ATOM     29  C   UNL     1      -0.153   3.008  10.252  0.00  0.00    +0.147 A 
BRANCH  29  30
ATOM     30  N   UNL     1       0.004   1.859  11.172  0.00  0.00    +0.058 N 
ATOM     31  O   UNL     1      -0.405   0.767  10.851  0.00  0.00    -0.126 OA
ATOM     32  O   UNL     1       0.541   2.011  12.244  0.00  0.00    -0.126 OA
ENDBRANCH  29  30
ENDBRANCH  22  24
ENDBRANCH  21  22
ENDBRANCH  20  21
ENDBRANCH   4  20
TORSDOF 7
