REMARK  Name = ZINC16859161
REMARK  9 active torsions:
REMARK  status: ('A' for Active; 'I' for Inactive)
REMARK    1  A    between atoms: C_1  and  C_2
REMARK    2  A    between atoms: N_11  and  C_15
REMARK    3  A    between atoms: C_15  and  C_16
REMARK    4  A    between atoms: C_16  and  O_18
REMARK    5  A    between atoms: O_18  and  C_19
REMARK    6  A    between atoms: C_19  and  C_21
REMARK    7  A    between atoms: C_19  and  C_22
REMARK    8  A    between atoms: N_24  and  C_25
REMARK    9  A    between atoms: C_28  and  C_32
REMARK                            x       y       z     vdW  Elec       q    Type
REMARK                         _______ _______ _______ _____ _____    ______ ____
ROOT
ATOM      1  C   UNL     1      -3.221   6.280   1.058  0.00  0.00    +0.326 C 
ATOM      2  O   UNL     1      -4.170   5.735   1.570  0.00  0.00    -0.249 OA
ENDROOT
BRANCH   1   3
ATOM      3  C   UNL     1      -3.036   7.768   1.208  0.00  0.00    +0.238 C 
BRANCH   3  13
ATOM      4  C   UNL     1      -5.092  11.500   2.433  0.00  0.00    +0.010 C 
ATOM      5  C   UNL     1      -6.404  10.726   2.579  0.00  0.00    +0.018 C 
ATOM      6  C   UNL     1      -7.286  10.982   1.354  0.00  0.00    +0.006 C 
ATOM      7  C   UNL     1      -8.589  10.191   1.491  0.00  0.00    +0.000 C 
ATOM      8  C   UNL     1      -8.272   8.697   1.576  0.00  0.00    +0.003 C 
ATOM      9  C   UNL     1      -7.394   8.431   2.801  0.00  0.00    +0.035 C 
ATOM     10  C   UNL     1      -6.104   9.235   2.689  0.00  0.00    +0.115 C 
ATOM     11  C   UNL     1      -5.292   8.775   1.500  0.00  0.00    +0.247 C 
ATOM     12  O   UNL     1      -5.617   8.808   0.333  0.00  0.00    -0.273 OA
ATOM     13  N   UNL     1      -4.130   8.318   2.012  0.00  0.00    -0.213 N 
ATOM     14  C   UNL     1      -4.099   8.434   3.345  0.00  0.00    +0.310 C 
ATOM     15  O   UNL     1      -3.156   8.093   4.032  0.00  0.00    -0.252 OA
ATOM     16  N   UNL     1      -5.231   8.970   3.840  0.00  0.00    -0.285 N 
ATOM     17  H   UNL     1      -5.431   9.147   4.773  0.00  0.00    +0.151 HD
ENDBRANCH   3  13
ENDBRANCH   1   3
BRANCH   1  18
ATOM     18  O   UNL     1      -2.332   5.561   0.355  0.00  0.00    -0.451 OA
BRANCH  18  19
ATOM     19  C   UNL     1      -2.574   4.133   0.252  0.00  0.00    +0.259 C 
ATOM     20  C   UNL     1      -3.430   3.848  -0.983  0.00  0.00    +0.062 C 
BRANCH  19  21
ATOM     21  C   UNL     1      -1.258   3.409   0.128  0.00  0.00    +0.258 C 
ATOM     22  O   UNL     1      -0.219   4.034   0.127  0.00  0.00    -0.271 OA
ATOM     23  N   UNL     1      -1.236   2.065   0.019  0.00  0.00    -0.282 N 
ATOM     24  H   UNL     1      -2.067   1.570  -0.047  0.00  0.00    +0.155 HD
BRANCH  23  25
ATOM     25  C   UNL     1      -0.017   1.387   0.001  0.00  0.00    +0.035 A 
ATOM     26  C   UNL     1       1.089   1.962  -0.620  0.00  0.00    +0.024 A 
ATOM     27  C   UNL     1       2.292   1.294  -0.645  0.00  0.00    +0.022 A 
ATOM     28  C   UNL     1       2.404   0.035  -0.046  0.00  0.00    +0.070 A 
ATOM     29  C   UNL     1       1.291  -0.540   0.577  0.00  0.00    +0.060 A 
ATOM     30  C   UNL     1       0.089   0.136   0.598  0.00  0.00    +0.044 A 
ATOM     31 CL   UNL     1       1.423  -2.103   1.322  0.00  0.00    -0.082 Cl
BRANCH  28  32
ATOM     32  C   UNL     1       3.654  -0.663  -0.071  0.00  0.00    +0.101 C 
ATOM     33  N   UNL     1       4.645  -1.217  -0.090  0.00  0.00    -0.191 NA
ENDBRANCH  28  32
ENDBRANCH  23  25
ENDBRANCH  19  21
ENDBRANCH  18  19
ENDBRANCH   1  18
TORSDOF 7
