REMARK  Name = ZINC00268294
REMARK  6 active torsions:
REMARK  status: ('A' for Active; 'I' for Inactive)
REMARK    1  A    between atoms: C_1  and  C_2
REMARK    2  A    between atoms: C_2  and  C_4
REMARK    3  A    between atoms: C_2  and  S_7
REMARK    4  A    between atoms: S_7  and  C_8
REMARK    5  A    between atoms: C_10  and  C_18
REMARK    6  A    between atoms: C_12  and  C_14
REMARK                            x       y       z     vdW  Elec       q    Type
REMARK                         _______ _______ _______ _____ _____    ______ ____
ROOT
ATOM      1  C   UNL     1      -2.663   2.514   2.322  0.00  0.00    +0.190 A 
ATOM      2  N   UNL     1      -2.019   2.753   3.454  0.00  0.00    -0.222 NA
ATOM      3  C   UNL     1      -0.704   2.568   3.538  0.00  0.00    +0.076 A 
ATOM      4  C   UNL     1      -0.010   2.117   2.412  0.00  0.00    +0.060 A 
ATOM      5  C   UNL     1      -0.722   1.881   1.250  0.00  0.00    +0.148 A 
ATOM      6  N   UNL     1      -2.029   2.091   1.237  0.00  0.00    -0.218 NA
ENDROOT
BRANCH   3   7
ATOM      7  C   UNL     1       0.014   2.835   4.808  0.00  0.00    +0.000 A 
ATOM      8  C   UNL     1       1.391   2.632   4.889  0.00  0.00    +0.010 A 
ATOM      9  C   UNL     1       2.055   2.888   6.072  0.00  0.00    +0.001 A 
ATOM     10  C   UNL     1       1.355   3.333   7.178  0.00  0.00    +0.000 A 
ATOM     11  C   UNL     1      -0.012   3.531   7.106  0.00  0.00    +0.001 A 
ATOM     12  C   UNL     1      -0.686   3.284   5.927  0.00  0.00    +0.010 A 
ENDBRANCH   3   7
BRANCH   5  13
ATOM     13  C   UNL     1      -0.017   1.395   0.010  0.00  0.00    +0.434 C 
ATOM     14  F   UNL     1       0.002  -0.004   0.002  0.00  0.00    -0.164 F 
ATOM     15  F   UNL     1       1.296   1.879  -0.000  0.00  0.00    -0.164 F 
ATOM     16  F   UNL     1      -0.694   1.858  -1.124  0.00  0.00    -0.164 F 
ENDBRANCH   5  13
BRANCH   1  17
ATOM     17  S   UNL     1      -4.404   2.772   2.253  0.00  0.00    -0.074 S 
BRANCH  17  19
ATOM     18  C   UNL     1      -4.419   0.818   0.344  0.00  0.00    +0.029 C 
ATOM     19  C   UNL     1      -4.724   2.305   0.533  0.00  0.00    +0.137 C 
BRANCH  19  20
ATOM     20  C   UNL     1      -6.170   2.568   0.202  0.00  0.00    +0.224 C 
ATOM     21  O   UNL     1      -6.987   2.671   1.092  0.00  0.00    -0.275 OA
ATOM     22  N   UNL     1      -6.556   2.687  -1.084  0.00  0.00    -0.328 N 
ATOM     23  H   UNL     1      -5.902   2.604  -1.796  0.00  0.00    +0.145 HD
ATOM     24  H   UNL     1      -7.487   2.856  -1.297  0.00  0.00    +0.145 HD
ENDBRANCH  19  20
ENDBRANCH  17  19
ENDBRANCH   1  17
TORSDOF 5
