REMARK  Name = ZINC66177667
REMARK  9 active torsions:
REMARK  status: ('A' for Active; 'I' for Inactive)
REMARK    1  A    between atoms: C_1  and  C_2
REMARK    2  A    between atoms: C_6  and  C_29
REMARK    3  A    between atoms: C_8  and  N_11
REMARK    4  A    between atoms: N_14  and  C_15
REMARK    5  A    between atoms: N_14  and  C_16
REMARK    6  A    between atoms: N_19  and  C_22
REMARK    7  A    between atoms: C_22  and  C_23
REMARK    8  A    between atoms: C_29  and  C_30
REMARK    9  A    between atoms: C_29  and  C_31
REMARK                            x       y       z     vdW  Elec       q    Type
REMARK                         _______ _______ _______ _____ _____    ______ ____
ROOT
ATOM      1  N   UNL     1       0.224   1.450   2.497  0.00  0.00    -0.296 N 
ATOM      2  C   UNL     1       1.345   2.138   2.792  0.00  0.00    +0.302 C 
ATOM      3  O   UNL     1       2.373   1.542   3.051  0.00  0.00    -0.253 OA
ATOM      4  N   UNL     1       1.326   3.486   2.799  0.00  0.00    -0.286 N 
ATOM      5  C   UNL     1       0.088   4.203   2.487  0.00  0.00    +0.134 C 
ATOM      6  H   UNL     1      -0.596   1.925   2.290  0.00  0.00    +0.151 HD
ENDROOT
BRANCH   1  12
ATOM      7  C   UNL     1       0.247   1.529  -0.001  0.00  0.00    +0.007 C 
ATOM      8  C   UNL     1       0.268  -0.000  -0.009  0.00  0.00    -0.012 C 
ATOM      9  C   UNL     1      -1.168  -0.530  -0.026  0.00  0.00    +0.004 C 
ATOM     10  C   UNL     1      -1.908  -0.037   1.218  0.00  0.00    +0.006 C 
ATOM     11  C   UNL     1      -1.192  -0.544   2.472  0.00  0.00    +0.012 C 
ATOM     12  C   UNL     1       0.244  -0.015   2.489  0.00  0.00    +0.078 C 
ATOM     13  C   UNL     1       0.984  -0.508   1.244  0.00  0.00    +0.026 C 
BRANCH  11  14
ATOM     14  C   UNL     1      -1.932  -0.051   3.717  0.00  0.00    -0.012 C 
ATOM     15  C   UNL     1      -3.367  -0.580   3.700  0.00  0.00    +0.007 C 
ATOM     16  C   UNL     1      -1.216  -0.558   4.970  0.00  0.00    +0.007 C 
ENDBRANCH  11  14
ENDBRANCH   1  12
BRANCH   4  17
ATOM     17  C   UNL     1       2.545   4.233   3.120  0.00  0.00    +0.074 C 
ATOM     18  C   UNL     1       2.920   5.133   1.939  0.00  0.00    +0.004 C 
ATOM     19  C   UNL     1       4.146   5.969   2.311  0.00  0.00    -0.077 C 
ATOM     20  N   UNL     1       3.841   6.798   3.483  0.00  0.00    +0.382 N 
ATOM     21  C   UNL     1       3.551   5.941   4.638  0.00  0.00    -0.077 C 
ATOM     22  C   UNL     1       2.301   5.104   4.356  0.00  0.00    +0.004 C 
ATOM     23  H   UNL     1       3.038   7.376   3.284  0.00  0.00    -0.081 HD
BRANCH  20  24
ATOM     24  C   UNL     1       4.994   7.655   3.788  0.00  0.00    -0.043 C 
BRANCH  24  25
ATOM     25  C   UNL     1       4.639   8.593   4.913  0.00  0.00    -0.061 A 
ATOM     26  C   UNL     1       4.080   9.835   4.652  0.00  0.00    +0.021 A 
ATOM     27  C   UNL     1       3.768  10.669   5.708  0.00  0.00    +0.111 A 
ATOM     28  N   UNL     1       3.996  10.295   6.952  0.00  0.00    -0.263 NA
ATOM     29  C   UNL     1       4.526   9.122   7.238  0.00  0.00    +0.111 A 
ATOM     30  C   UNL     1       4.859   8.233   6.234  0.00  0.00    +0.021 A 
ENDBRANCH  24  25
ENDBRANCH  20  24
ENDBRANCH   4  17
TORSDOF 5
