REMARK  Name = ZINC66257722
REMARK  5 active torsions:
REMARK  status: ('A' for Active; 'I' for Inactive)
REMARK    1  A    between atoms: C_4  and  C_8
REMARK    2  A    between atoms: C_8  and  C_9
REMARK    3  A    between atoms: C_12  and  S_14
REMARK    4  A    between atoms: S_14  and  C_15
REMARK    5  A    between atoms: C_15  and  C_16
REMARK                            x       y       z     vdW  Elec       q    Type
REMARK                         _______ _______ _______ _____ _____    ______ ____
ROOT
ATOM      1  C   UNL     1       4.165  -0.963   1.377  0.00  0.00    +0.223 A 
ATOM      2  N   UNL     1       3.888  -2.010   2.097  0.00  0.00    -0.111 NA
ATOM      3  N   UNL     1       4.436  -1.894   3.255  0.00  0.00    -0.101 NA
ATOM      4  C   UNL     1       5.089  -0.758   3.315  0.00  0.00    +0.278 A 
ATOM      5  O   UNL     1       4.935  -0.147   2.125  0.00  0.00    -0.415 OA
ENDROOT
BRANCH   1   6
ATOM      6  C   UNL     1       3.713  -0.710  -0.038  0.00  0.00    +0.137 C 
BRANCH   6  10
ATOM      7  C   UNL     1      -0.017   1.378   0.010  0.00  0.00    +0.004 A 
ATOM      8  C   UNL     1       1.170   2.086   0.002  0.00  0.00    +0.039 A 
ATOM      9  C   UNL     1       2.379   1.411  -0.013  0.00  0.00    +0.128 A 
ATOM     10  C   UNL     1       2.398   0.026  -0.021  0.00  0.00    +0.015 A 
ATOM     11  C   UNL     1       1.209  -0.680  -0.013  0.00  0.00    +0.047 A 
ATOM     12  C   UNL     1       0.002  -0.004   0.002  0.00  0.00    +0.020 A 
ATOM     13 CL   UNL     1       1.232  -2.416  -0.022  0.00  0.00    -0.083 Cl
ATOM     14  F   UNL     1       3.539   2.103  -0.021  0.00  0.00    -0.205 F 
ENDBRANCH   6  10
ENDBRANCH   1   6
BRANCH   4  15
ATOM     15  S   UNL     1       6.002  -0.148   4.693  0.00  0.00    -0.058 S 
BRANCH  15  16
ATOM     16  C   UNL     1       5.815  -1.442   5.950  0.00  0.00    +0.155 C 
BRANCH  16  17
ATOM     17  C   UNL     1       6.558  -1.041   7.198  0.00  0.00    +0.146 A 
ATOM     18  N   UNL     1       7.827  -1.380   7.347  0.00  0.00    -0.199 NA
ATOM     19  C   UNL     1       8.487  -1.027   8.448  0.00  0.00    +0.217 A 
ATOM     20  N   UNL     1       7.870  -0.333   9.397  0.00  0.00    -0.181 NA
ATOM     21  C   UNL     1       6.594   0.006   9.244  0.00  0.00    +0.217 A 
ATOM     22  N   UNL     1       5.942  -0.346   8.138  0.00  0.00    -0.199 NA
ATOM     23  N   UNL     1       5.948   0.728  10.227  0.00  0.00    -0.327 N 
ATOM     24  N   UNL     1       9.812  -1.383   8.603  0.00  0.00    -0.327 N 
ATOM     25  H   UNL     1       6.425   0.987  11.031  0.00  0.00    +0.145 HD
ATOM     26  H   UNL     1       5.017   0.975  10.114  0.00  0.00    +0.145 HD
ATOM     27  H   UNL     1      10.262  -1.890   7.909  0.00  0.00    +0.145 HD
ATOM     28  H   UNL     1      10.292  -1.125   9.405  0.00  0.00    +0.145 HD
ENDBRANCH  16  17
ENDBRANCH  15  16
ENDBRANCH   4  15
TORSDOF 5
