REMARK  Name = ZINC36596274
REMARK  10 active torsions:
REMARK  status: ('A' for Active; 'I' for Inactive)
REMARK    1  A    between atoms: C_1  and  C_2
REMARK    2  A    between atoms: C_5  and  C_7
REMARK    3  A    between atoms: C_7  and  N_8
REMARK    4  A    between atoms: N_8  and  C_11
REMARK    5  A    between atoms: C_11  and  C_13
REMARK    6  A    between atoms: C_11  and  C_22
REMARK    7  A    between atoms: C_14  and  O_21
REMARK    8  A    between atoms: C_16  and  O_20
REMARK    9  A    between atoms: C_18  and  O_19
REMARK   10  A    between atoms: N_24  and  C_25
REMARK                            x       y       z     vdW  Elec       q    Type
REMARK                         _______ _______ _______ _____ _____    ______ ____
ROOT
ATOM      1  C   UNL     1       1.073  -4.674  -1.930  0.00  0.00    +0.199 C 
ENDROOT
BRANCH   1   2
ATOM      2  C   UNL     1       2.359  -5.444  -1.776  0.00  0.00    +0.065 A 
ATOM      3  C   UNL     1       3.050  -5.872  -2.899  0.00  0.00    +0.129 A 
ATOM      4  C   UNL     1       4.234  -6.581  -2.757  0.00  0.00    +0.091 A 
ATOM      5  C   UNL     1       4.727  -6.861  -1.492  0.00  0.00    +0.124 A 
ATOM      6  C   UNL     1       4.037  -6.432  -0.368  0.00  0.00    +0.091 A 
ATOM      7  C   UNL     1       2.855  -5.720  -0.510  0.00  0.00    +0.129 A 
BRANCH   7   8
ATOM      8  O   UNL     1       2.181  -5.295   0.591  0.00  0.00    -0.506 OA
ATOM      9  H   UNL     1       1.531  -5.930   0.923  0.00  0.00    +0.292 HD
ENDBRANCH   7   8
BRANCH   5  10
ATOM     10  O   UNL     1       5.886  -7.556  -1.353  0.00  0.00    -0.507 OA
ATOM     11  H   UNL     1       6.677  -7.000  -1.323  0.00  0.00    +0.292 HD
ENDBRANCH   5  10
BRANCH   3  12
ATOM     12  O   UNL     1       2.567  -5.598  -4.139  0.00  0.00    -0.506 OA
ATOM     13  H   UNL     1       2.954  -4.811  -4.547  0.00  0.00    +0.292 HD
ENDBRANCH   3  12
ENDBRANCH   1   2
BRANCH   1  14
ATOM     14  C   UNL     1       0.958  -4.167  -3.344  0.00  0.00    +0.239 C 
ATOM     15  O   UNL     1       1.398  -3.075  -3.634  0.00  0.00    -0.273 OA
ATOM     16  N   UNL     1       0.365  -4.927  -4.286  0.00  0.00    -0.311 N 
ATOM     17  H   UNL     1       0.001  -5.794  -4.051  0.00  0.00    +0.149 HD
BRANCH  16  18
ATOM     18  C   UNL     1       0.270  -4.442  -5.666  0.00  0.00    +0.073 C 
ATOM     19  C   UNL     1      -0.968  -3.555  -5.811  0.00  0.00    +0.022 C 
ATOM     20  C   UNL     1      -1.067  -3.048  -7.251  0.00  0.00    +0.002 C 
ATOM     21  C   UNL     1      -1.178  -4.240  -8.204  0.00  0.00    +0.000 C 
ATOM     22  C   UNL     1       0.060  -5.127  -8.059  0.00  0.00    +0.002 C 
ATOM     23  C   UNL     1       0.158  -5.633  -6.619  0.00  0.00    +0.022 C 
ENDBRANCH  16  18
ENDBRANCH   1  14
BRANCH   1  24
ATOM     24  N   UNL     1       1.068  -3.541  -1.002  0.00  0.00    -0.281 N 
ATOM     25  C   UNL     1       2.105  -2.679  -0.986  0.00  0.00    +0.329 C 
ATOM     26  O   UNL     1       3.072  -2.881  -1.689  0.00  0.00    -0.279 OA
BRANCH  24  27
ATOM     27  C   UNL     1      -0.063  -3.343  -0.093  0.00  0.00    +0.182 C 
BRANCH  27  32
ATOM     28  C   UNL     1      -2.620   0.737  -1.595  0.00  0.00    +0.086 C 
ATOM     29  C   UNL     1      -2.211  -0.702  -1.414  0.00  0.00    +0.102 A 
ATOM     30  C   UNL     1      -2.840  -1.770  -1.937  0.00  0.00    +0.045 A 
ATOM     31  C   UNL     1      -2.123  -2.914  -1.516  0.00  0.00    +0.046 A 
ATOM     32  C   UNL     1      -1.099  -2.476  -0.760  0.00  0.00    +0.122 A 
ATOM     33  O   UNL     1      -1.155  -1.135  -0.707  0.00  0.00    -0.463 OA
ENDBRANCH  27  32
ENDBRANCH  24  27
ENDBRANCH   1  24
TORSDOF 9
