REMARK  Name = ZINC60093746
REMARK  11 active torsions:
REMARK  status: ('A' for Active; 'I' for Inactive)
REMARK    1  A    between atoms: C_1  and  C_2
REMARK    2  A    between atoms: N_4  and  C_5
REMARK    3  A    between atoms: C_8  and  O_29
REMARK    4  A    between atoms: C_9  and  C_11
REMARK    5  A    between atoms: C_17  and  C_20
REMARK    6  A    between atoms: C_20  and  N_21
REMARK    7  A    between atoms: C_22  and  O_24
REMARK    8  A    between atoms: O_24  and  C_25
REMARK    9  A    between atoms: C_25  and  C_26
REMARK   10  A    between atoms: C_25  and  C_27
REMARK   11  A    between atoms: C_25  and  C_28
REMARK                            x       y       z     vdW  Elec       q    Type
REMARK                         _______ _______ _______ _____ _____    ______ ____
ROOT
ATOM      1  C   UNL     1      -3.989  -4.884   0.034  0.00  0.00    +0.250 C 
ATOM      2  O   UNL     1      -3.001  -4.176  -0.002  0.00  0.00    -0.270 OA
ATOM      3  N   UNL     1      -5.215  -4.329   0.105  0.00  0.00    -0.297 N 
ATOM      4  C   UNL     1      -5.371  -2.872   0.217  0.00  0.00    +0.108 C 
ATOM      5  C   UNL     1      -6.250  -2.562   1.432  0.00  0.00    +0.019 C 
ATOM      6  C   UNL     1      -7.569  -3.328   1.312  0.00  0.00    +0.008 C 
ATOM      7  C   UNL     1      -7.287  -4.832   1.290  0.00  0.00    +0.024 C 
ATOM      8  C   UNL     1      -6.420  -5.168   0.068  0.00  0.00    +0.113 C 
ENDROOT
BRANCH   1  13
ATOM      9  C   UNL     1      -4.404  -8.480  -0.976  0.00  0.00    +0.034 A 
ATOM     10  C   UNL     1      -3.570  -9.116  -0.063  0.00  0.00    +0.027 A 
ATOM     11  C   UNL     1      -2.877  -8.380   0.877  0.00  0.00    +0.048 A 
ATOM     12  C   UNL     1      -3.007  -7.000   0.916  0.00  0.00    +0.129 A 
ATOM     13  C   UNL     1      -3.845  -6.352  -0.002  0.00  0.00    +0.080 A 
ATOM     14  C   UNL     1      -4.540  -7.103  -0.953  0.00  0.00    +0.040 A 
BRANCH   9  18
ATOM     15  C   UNL     1      -6.413 -11.226  -2.592  0.00  0.00    +0.109 C 
ATOM     16  C   UNL     1      -5.585 -10.451  -1.600  0.00  0.00    +0.214 C 
ATOM     17  O   UNL     1      -5.350 -10.923  -0.507  0.00  0.00    -0.276 OA
ATOM     18  N   UNL     1      -5.105  -9.235  -1.927  0.00  0.00    -0.286 N 
ATOM     19  H   UNL     1      -5.244  -8.883  -2.820  0.00  0.00    +0.155 HD
ENDBRANCH   9  18
BRANCH  12  20
ATOM     20  O   UNL     1      -2.324  -6.278   1.841  0.00  0.00    -0.506 OA
ATOM     21  H   UNL     1      -1.450  -5.989   1.547  0.00  0.00    +0.292 HD
ENDBRANCH  12  20
ENDBRANCH   1  13
BRANCH   7  22
ATOM     22  C   UNL     1      -8.609  -5.598   1.204  0.00  0.00    +0.112 C 
BRANCH  22  23
ATOM     23  N   UNL     1      -8.347  -7.037   1.304  0.00  0.00    -0.281 N 
ATOM     24  C   UNL     1      -9.370  -7.913   1.251  0.00  0.00    +0.401 C 
ATOM     25  O   UNL     1     -10.509  -7.510   1.121  0.00  0.00    -0.226 OA
ATOM     26  H   UNL     1      -7.438  -7.358   1.408  0.00  0.00    +0.152 HD
BRANCH  24  27
ATOM     27  O   UNL     1      -9.129  -9.234   1.343  0.00  0.00    -0.445 OA
BRANCH  27  28
ATOM     28  C   UNL     1     -10.260 -10.105   1.280  0.00  0.00    +0.107 C 
ATOM     29  C   UNL     1     -10.980  -9.911  -0.056  0.00  0.00    +0.055 C 
ATOM     30  C   UNL     1      -9.793 -11.557   1.401  0.00  0.00    +0.055 C 
ATOM     31  C   UNL     1     -11.219  -9.781   2.428  0.00  0.00    +0.055 C 
ENDBRANCH  27  28
ENDBRANCH  24  27
ENDBRANCH  22  23
ENDBRANCH   7  22
TORSDOF 7
