REMARK  Name = ZINC63139020
REMARK  10 active torsions:
REMARK  status: ('A' for Active; 'I' for Inactive)
REMARK    1  A    between atoms: C_1  and  C_2
REMARK    2  A    between atoms: C_2  and  N_3
REMARK    3  A    between atoms: N_3  and  C_4
REMARK    4  A    between atoms: N_3  and  C_6
REMARK    5  A    between atoms: C_4  and  C_5
REMARK    6  A    between atoms: C_6  and  C_7
REMARK    7  A    between atoms: C_7  and  C_8
REMARK    8  A    between atoms: C_8  and  N_9
REMARK    9  A    between atoms: C_29  and  C_31
REMARK   10  A    between atoms: C_35  and  N_37
REMARK                            x       y       z     vdW  Elec       q    Type
REMARK                         _______ _______ _______ _____ _____    ______ ____
ROOT
ATOM      1  N   UNL     1       4.038  -4.229   3.934  0.00  0.00    -0.291 N 
ATOM      2  C   UNL     1       5.463  -3.955   4.004  0.00  0.00    +0.203 C 
ATOM      3  C   UNL     1       6.043  -4.312   5.332  0.00  0.00    +0.234 C 
ATOM      4  O   UNL     1       7.230  -4.125   5.498  0.00  0.00    -0.274 OA
ATOM      5  N   UNL     1       5.346  -4.824   6.354  0.00  0.00    -0.279 N 
ATOM      6  C   UNL     1       3.910  -5.075   6.281  0.00  0.00    +0.167 C 
ATOM      7  C   UNL     1       3.333  -4.725   4.949  0.00  0.00    +0.237 C 
ATOM      8  O   UNL     1       2.145  -4.907   4.780  0.00  0.00    -0.274 OA
ATOM      9  C   UNL     1       3.182  -4.284   7.382  0.00  0.00    +0.065 C 
ATOM     10  C   UNL     1       3.963  -4.498   8.654  0.00  0.00    -0.034 C 
ATOM     11  C   UNL     1       3.584  -4.887   9.865  0.00  0.00    -0.001 A 
ATOM     12  C   UNL     1       2.254  -5.143  10.441  0.00  0.00    +0.010 A 
ATOM     13  C   UNL     1       2.231  -5.557  11.735  0.00  0.00    +0.001 A 
ATOM     14  C   UNL     1       3.384  -5.741  12.505  0.00  0.00    +0.002 A 
ATOM     15  C   UNL     1       4.646  -5.520  12.060  0.00  0.00    +0.026 A 
ATOM     16  C   UNL     1       4.800  -5.073  10.716  0.00  0.00    +0.043 A 
ATOM     17  N   UNL     1       5.873  -4.767  10.048  0.00  0.00    -0.375 N 
ATOM     18  C   UNL     1       5.472  -4.294   8.723  0.00  0.00    +0.131 C 
ATOM     19  C   UNL     1       6.079  -5.140   7.600  0.00  0.00    +0.133 C 
ATOM     20  H   UNL     1       6.784  -4.839  10.374  0.00  0.00    +0.160 HD
ENDROOT
BRANCH  19  21
ATOM     21  C   UNL     1       5.927  -6.604   7.925  0.00  0.00    -0.023 A 
ATOM     22  C   UNL     1       4.668  -7.143   8.116  0.00  0.00    +0.005 A 
ATOM     23  C   UNL     1       4.528  -8.485   8.413  0.00  0.00    +0.003 A 
ATOM     24  C   UNL     1       5.647  -9.290   8.520  0.00  0.00    +0.033 A 
ATOM     25  C   UNL     1       6.906  -8.751   8.329  0.00  0.00    +0.127 A 
ATOM     26  C   UNL     1       7.045  -7.409   8.027  0.00  0.00    +0.038 A 
BRANCH  25  27
ATOM     27  N   UNL     1       8.104  -9.612   8.444  0.00  0.00    +0.056 N 
ATOM     28  O   UNL     1       7.982 -10.787   8.705  0.00  0.00    -0.126 OA
ATOM     29  O   UNL     1       9.205  -9.142   8.276  0.00  0.00    -0.126 OA
ENDBRANCH  25  27
ENDBRANCH  19  21
BRANCH   1  30
ATOM     30  C   UNL     1       3.337  -3.939   2.681  0.00  0.00    +0.106 C 
BRANCH  30  31
ATOM     31  C   UNL     1       2.820  -2.499   2.708  0.00  0.00    +0.000 C 
BRANCH  31  32
ATOM     32  C   UNL     1       2.088  -2.196   1.399  0.00  0.00    -0.077 C 
BRANCH  32  33
ATOM     33  N   UNL     1       1.482  -0.860   1.475  0.00  0.00    +0.379 N 
ATOM     34  H   UNL     1       0.898  -0.802   2.296  0.00  0.00    -0.082 HD
BRANCH  33  36
ATOM     35  C   UNL     1       1.911   1.534   1.758  0.00  0.00    -0.017 C 
ATOM     36  C   UNL     1       2.541   0.155   1.553  0.00  0.00    -0.082 C 
ENDBRANCH  33  36
BRANCH  33  37
ATOM     37  C   UNL     1       0.665  -0.624   0.277  0.00  0.00    -0.082 C 
ATOM     38  C   UNL     1      -0.528  -1.582   0.276  0.00  0.00    -0.017 C 
ENDBRANCH  33  37
ENDBRANCH  32  33
ENDBRANCH  31  32
ENDBRANCH  30  31
ENDBRANCH   1  30
TORSDOF 8
