REMARK  Name = ZINC08845441
REMARK  8 active torsions:
REMARK  status: ('A' for Active; 'I' for Inactive)
REMARK    1  A    between atoms: C_1  and  C_2
REMARK    2  A    between atoms: C_5  and  O_35
REMARK    3  A    between atoms: C_6  and  C_8
REMARK    4  A    between atoms: C_10  and  C_14
REMARK    5  A    between atoms: N_16  and  C_17
REMARK    6  A    between atoms: C_18  and  C_26
REMARK    7  A    between atoms: N_28  and  C_29
REMARK    8  A    between atoms: C_29  and  C_30
REMARK                            x       y       z     vdW  Elec       q    Type
REMARK                         _______ _______ _______ _____ _____    ______ ____
ROOT
ATOM      1  C   UNL     1       0.106  -5.777   4.648  0.00  0.00    +0.266 C 
ATOM      2  O   UNL     1       0.121  -6.800   3.991  0.00  0.00    -0.268 OA
ATOM      3  N   UNL     1       0.110  -5.840   5.995  0.00  0.00    -0.274 N 
ATOM      4  H   UNL     1       0.098  -5.024   6.519  0.00  0.00    +0.156 HD
ENDROOT
BRANCH   3   5
ATOM      5  C   UNL     1       0.132  -7.071   6.630  0.00  0.00    +0.085 A 
ATOM      6  C   UNL     1       0.134  -7.328   7.992  0.00  0.00    +0.069 A 
ATOM      7  C   UNL     1       0.159  -8.720   8.406  0.00  0.00    -0.023 A 
ATOM      8  C   UNL     1       0.178  -9.600   7.382  0.00  0.00    -0.004 A 
ATOM      9  S   UNL     1       0.155  -8.596   5.926  0.00  0.00    -0.077 S 
ATOM     10  C   UNL     1       0.208 -11.094   7.480  0.00  0.00    +0.043 C 
ATOM     11  C   UNL     1       0.594 -11.475   8.917  0.00  0.00    +0.005 C 
ATOM     12  C   UNL     1      -0.260 -10.660   9.892  0.00  0.00    +0.005 C 
ATOM     13  C   UNL     1       0.164  -9.190   9.853  0.00  0.00    +0.037 C 
BRANCH   6  14
ATOM     14  C   UNL     1       0.112  -6.239   8.974  0.00  0.00    +0.247 C 
ATOM     15  O   UNL     1      -0.951  -5.807   9.380  0.00  0.00    -0.270 OA
ATOM     16  N   UNL     1       1.268  -5.717   9.428  0.00  0.00    -0.304 N 
ATOM     17  H   UNL     1       2.116  -6.062   9.104  0.00  0.00    +0.149 HD
BRANCH  16  18
ATOM     18  C   UNL     1       1.246  -4.630  10.409  0.00  0.00    +0.179 C 
BRANCH  18  19
ATOM     19  C   UNL     1       2.659  -4.230  10.748  0.00  0.00    +0.122 A 
ATOM     20  C   UNL     1       3.383  -3.287  10.118  0.00  0.00    +0.046 A 
ATOM     21  C   UNL     1       4.643  -3.242  10.759  0.00  0.00    +0.041 A 
ATOM     22  C   UNL     1       4.613  -4.160  11.742  0.00  0.00    +0.195 A 
ATOM     23  O   UNL     1       3.408  -4.752  11.734  0.00  0.00    -0.466 OA
ENDBRANCH  18  19
ENDBRANCH  16  18
ENDBRANCH   6  14
ENDBRANCH   3   5
BRANCH   1  26
ATOM     24  C   UNL     1       0.051  -2.842   2.468  0.00  0.00    +0.097 A 
ATOM     25  C   UNL     1       0.076  -4.241   2.611  0.00  0.00    +0.062 A 
ATOM     26  C   UNL     1       0.083  -4.469   3.974  0.00  0.00    +0.121 A 
ATOM     27  N   UNL     1       0.063  -3.240   4.572  0.00  0.00    -0.272 N 
ATOM     28  H   UNL     1       0.063  -3.087   5.530  0.00  0.00    +0.189 HD
ATOM     29  N   UNL     1       0.051  -2.319   3.677  0.00  0.00    -0.173 NA
BRANCH  24  35
ATOM     30  C   UNL     1      -0.018   1.503   0.010  0.00  0.00    +0.044 C 
ATOM     31  C   UNL     1       0.002  -0.004   0.002  0.00  0.00    -0.050 A 
ATOM     32  C   UNL     1       0.006  -0.687  -1.202  0.00  0.00    +0.007 A 
ATOM     33  C   UNL     1       0.024  -2.069  -1.219  0.00  0.00    +0.046 A 
ATOM     34  C   UNL     1       0.039  -2.778  -0.029  0.00  0.00    +0.126 A 
ATOM     35  C   UNL     1       0.036  -2.091   1.188  0.00  0.00    +0.044 A 
ATOM     36  C   UNL     1       0.023  -0.698   1.195  0.00  0.00    +0.017 A 
BRANCH  34  37
ATOM     37  O   UNL     1       0.056  -4.136  -0.044  0.00  0.00    -0.506 OA
ATOM     38  H   UNL     1       0.944  -4.518  -0.053  0.00  0.00    +0.292 HD
ENDBRANCH  34  37
ENDBRANCH  24  35
ENDBRANCH   1  26
TORSDOF 7
