REMARK  Name = ZINC06720184
REMARK  9 active torsions:
REMARK  status: ('A' for Active; 'I' for Inactive)
REMARK    1  A    between atoms: C_1  and  C_2
REMARK    2  A    between atoms: C_2  and  C_3
REMARK    3  A    between atoms: C_2  and  C_4
REMARK    4  A    between atoms: C_7  and  C_10
REMARK    5  A    between atoms: C_13  and  C_24
REMARK    6  A    between atoms: C_19  and  N_23
REMARK    7  A    between atoms: C_20  and  C_21
REMARK    8  A    between atoms: C_27  and  O_30
REMARK    9  A    between atoms: O_30  and  C_31
REMARK                            x       y       z     vdW  Elec       q    Type
REMARK                         _______ _______ _______ _____ _____    ______ ____
ROOT
ATOM      1  C   UNL     1      -5.539  -2.013   0.088  0.00  0.00    +0.102 C 
ATOM      2  C   UNL     1      -5.459  -3.509  -0.079  0.00  0.00    +0.054 A 
ATOM      3  C   UNL     1      -5.042  -4.454   0.797  0.00  0.00    +0.074 A 
ATOM      4  N   UNL     1      -5.159  -5.664   0.173  0.00  0.00    -0.273 N 
ATOM      5  H   UNL     1      -4.935  -6.527   0.554  0.00  0.00    +0.189 HD
ATOM      6  N   UNL     1      -5.663  -5.437  -1.117  0.00  0.00    -0.135 NA
ATOM      7  C   UNL     1      -5.843  -4.156  -1.270  0.00  0.00    +0.245 A 
ATOM      8  O   UNL     1      -6.313  -3.467  -2.345  0.00  0.00    -0.421 OA
ATOM      9  C   UNL     1      -6.659  -2.178  -2.155  0.00  0.00    +0.201 C 
ATOM     10  C   UNL     1      -6.340  -1.453  -1.061  0.00  0.00    +0.098 C 
ENDROOT
BRANCH   1  14
ATOM     11  C   UNL     1      -1.605  -0.348   0.051  0.00  0.00    -0.045 A 
ATOM     12  C   UNL     1      -2.442  -0.122   1.129  0.00  0.00    +0.004 A 
ATOM     13  C   UNL     1      -3.715  -0.660   1.140  0.00  0.00    +0.005 A 
ATOM     14  C   UNL     1      -4.152  -1.425   0.074  0.00  0.00    -0.035 A 
ATOM     15  C   UNL     1      -3.316  -1.650  -1.003  0.00  0.00    +0.005 A 
ATOM     16  C   UNL     1      -2.044  -1.108  -1.017  0.00  0.00    +0.004 A 
BRANCH  11  18
ATOM     17  C   UNL     1      -0.308   1.764   0.130  0.00  0.00    +0.012 C 
ATOM     18  C   UNL     1      -0.218   0.239   0.039  0.00  0.00    +0.013 C 
ATOM     19  C   UNL     1       0.574  -0.297   1.234  0.00  0.00    +0.012 C 
ENDBRANCH  11  18
ENDBRANCH   1  14
BRANCH   3  20
ATOM     20  C   UNL     1      -4.551  -4.220   2.173  0.00  0.00    +0.000 A 
ATOM     21  C   UNL     1      -5.261  -3.384   3.036  0.00  0.00    +0.013 A 
ATOM     22  C   UNL     1      -4.800  -3.169   4.318  0.00  0.00    +0.046 A 
ATOM     23  C   UNL     1      -3.632  -3.782   4.750  0.00  0.00    +0.120 A 
ATOM     24  C   UNL     1      -2.923  -4.614   3.893  0.00  0.00    +0.046 A 
ATOM     25  C   UNL     1      -3.380  -4.838   2.612  0.00  0.00    +0.013 A 
BRANCH  23  26
ATOM     26  O   UNL     1      -3.181  -3.567   6.013  0.00  0.00    -0.495 OA
ATOM     27  C   UNL     1      -1.972  -4.229   6.392  0.00  0.00    +0.277 C 
ENDBRANCH  23  26
ENDBRANCH   3  20
BRANCH   9  28
ATOM     28  N   UNL     1      -7.388  -1.560  -3.140  0.00  0.00    -0.328 N 
ATOM     29  H   UNL     1      -7.637  -2.050  -3.939  0.00  0.00    +0.145 HD
ATOM     30  H   UNL     1      -7.656  -0.633  -3.036  0.00  0.00    +0.145 HD
ENDBRANCH   9  28
BRANCH  10  31
ATOM     31  C   UNL     1      -6.781  -0.093  -0.988  0.00  0.00    +0.101 C 
ATOM     32  N   UNL     1      -7.130   0.987  -0.931  0.00  0.00    -0.191 NA
ENDBRANCH  10  31
TORSDOF 6
