REMARK  Name = ZINC08723502
REMARK  2 active torsions:
REMARK  status: ('A' for Active; 'I' for Inactive)
REMARK    1  A    between atoms: N_13  and  C_17
REMARK    2  A    between atoms: C_17  and  C_18
REMARK                            x       y       z     vdW  Elec       q    Type
REMARK                         _______ _______ _______ _____ _____    ______ ____
ROOT
ATOM      1  C   UNL     1       6.168  -1.249   2.273  0.00  0.00    +0.001 A 
ATOM      2  C   UNL     1       7.083  -1.491   3.281  0.00  0.00    +0.004 A 
ATOM      3  C   UNL     1       8.345  -0.935   3.214  0.00  0.00    +0.046 A 
ATOM      4  C   UNL     1       8.699  -0.132   2.136  0.00  0.00    +0.126 A 
ATOM      5  C   UNL     1       7.782   0.107   1.126  0.00  0.00    +0.027 A 
ATOM      6  C   UNL     1       6.517  -0.452   1.200  0.00  0.00    +0.010 A 
ATOM      7  C   UNL     1       8.134   0.966  -0.056  0.00  0.00    +0.144 C 
ATOM      8  C   UNL     1       9.375   1.804   0.237  0.00  0.00    +0.081 C 
ATOM      9  C   UNL     1      10.440   0.890   0.856  0.00  0.00    +0.232 C 
ATOM     10  O   UNL     1       9.947   0.403   2.105  0.00  0.00    -0.492 OA
ATOM     11  C   UNL     1       6.975   1.859  -0.429  0.00  0.00    +0.252 C 
ATOM     12  O   UNL     1       6.457   2.715   0.256  0.00  0.00    -0.272 OA
ATOM     13  N   UNL     1       6.635   1.503  -1.686  0.00  0.00    -0.220 N 
ATOM     14  C   UNL     1       7.421   0.523  -2.149  0.00  0.00    +0.310 C 
ATOM     15  O   UNL     1       7.312   0.037  -3.258  0.00  0.00    -0.252 OA
ATOM     16  N   UNL     1       8.345   0.136  -1.249  0.00  0.00    -0.281 N 
ATOM     17  H   UNL     1       9.016  -0.554  -1.366  0.00  0.00    +0.152 HD
ENDROOT
BRANCH  13  18
ATOM     18  C   UNL     1       5.547   2.117  -2.450  0.00  0.00    +0.154 C 
BRANCH  18  19
ATOM     19  C   UNL     1       4.300   1.282  -2.309  0.00  0.00    -0.012 A 
ATOM     20  C   UNL     1       4.347   0.083  -1.621  0.00  0.00    +0.055 A 
ATOM     21  C   UNL     1       3.202  -0.687  -1.489  0.00  0.00    +0.162 A 
ATOM     22  C   UNL     1       2.006  -0.250  -2.047  0.00  0.00    +0.163 A 
ATOM     23  C   UNL     1       1.965   0.953  -2.736  0.00  0.00    +0.065 A 
ATOM     24  C   UNL     1       3.111   1.716  -2.866  0.00  0.00    +0.026 A 
ATOM     25 BR   UNL     1       3.053   3.355  -3.807  0.00  0.00    -0.050 Br
ATOM     26  O   UNL     1       0.870  -0.989  -1.925  0.00  0.00    -0.485 OA
ATOM     27  C   UNL     1       1.031  -2.362  -1.554  0.00  0.00    +0.270 C 
ATOM     28  C   UNL     1       2.022  -2.430  -0.383  0.00  0.00    +0.270 C 
ATOM     29  O   UNL     1       3.266  -1.868  -0.816  0.00  0.00    -0.485 OA
ENDBRANCH  18  19
ENDBRANCH  13  18
TORSDOF 2
