REMARK  Name = ZINC15066514
REMARK  10 active torsions:
REMARK  status: ('A' for Active; 'I' for Inactive)
REMARK    1  A    between atoms: C_1  and  C_2
REMARK    2  A    between atoms: C_2  and  C_3
REMARK    3  A    between atoms: C_2  and  C_4
REMARK    4  A    between atoms: C_4  and  C_5
REMARK    5  A    between atoms: C_5  and  N_56
REMARK    6  A    between atoms: C_11  and  C_13
REMARK    7  A    between atoms: C_13  and  C_14
REMARK    8  A    between atoms: N_16  and  C_17
REMARK    9  A    between atoms: C_17  and  C_18
REMARK   10  A    between atoms: N_26  and  C_27
REMARK                            x       y       z     vdW  Elec       q    Type
REMARK                         _______ _______ _______ _____ _____    ______ ____
ROOT
ATOM      1  C   UNL     1      -2.238   1.142   1.195  0.00  0.00    +0.089 C 
ENDROOT
BRANCH   1   7
ATOM      2  C   UNL     1      -0.182   3.815  -0.453  0.00  0.00    -0.059 C 
ATOM      3  C   UNL     1       1.184   3.315   0.019  0.00  0.00    +0.085 C 
ATOM      4  N   UNL     1       1.168   1.860   0.145  0.00  0.00    -0.318 N 
ATOM      5  C   UNL     1       0.038   1.150   0.223  0.00  0.00    +0.200 C 
ATOM      6  O   UNL     1       0.116  -0.053   0.357  0.00  0.00    -0.278 OA
ATOM      7  C   UNL     1      -1.325   1.779   0.146  0.00  0.00    +0.028 C 
ATOM      8  H   UNL     1       2.015   1.388   0.173  0.00  0.00    +0.149 HD
ATOM      9  N   UNL     1      -1.214   3.224   0.422  0.00  0.00    +0.389 N 
ATOM     10  H   UNL     1      -0.940   3.359   1.403  0.00  0.00    -0.081 HD
BRANCH   9  11
ATOM     11  C   UNL     1      -2.518   3.886   0.191  0.00  0.00    -0.077 C 
BRANCH  11  12
ATOM     12  C   UNL     1      -2.510   5.252   0.879  0.00  0.00    -0.016 C 
BRANCH  12  14
ATOM     13  C   UNL     1      -3.896   7.251   1.450  0.00  0.00    +0.007 C 
ATOM     14  C   UNL     1      -3.858   5.942   0.659  0.00  0.00    -0.019 C 
ATOM     15  C   UNL     1      -4.041   6.240  -0.831  0.00  0.00    +0.007 C 
ENDBRANCH  12  14
ENDBRANCH  11  12
ENDBRANCH   9  11
ENDBRANCH   1   7
BRANCH   1  16
ATOM     16  C   UNL     1      -1.685   1.410   2.571  0.00  0.00    +0.212 C 
ATOM     17  O   UNL     1      -0.725   2.139   2.708  0.00  0.00    -0.276 OA
ATOM     18  N   UNL     1      -2.257   0.839   3.650  0.00  0.00    -0.308 N 
ATOM     19  H   UNL     1      -3.024   0.256   3.541  0.00  0.00    +0.149 HD
BRANCH  18  20
ATOM     20  C   UNL     1      -1.719   1.099   4.988  0.00  0.00    +0.178 C 
BRANCH  20  21
ATOM     21  C   UNL     1      -2.532   0.348   6.011  0.00  0.00    +0.128 A 
ATOM     22  N   UNL     1      -2.282  -0.863   6.418  0.00  0.00    -0.231 NA
ATOM     23  C   UNL     1      -3.207  -1.233   7.341  0.00  0.00    +0.089 A 
ATOM     24  C   UNL     1      -3.411  -2.397   8.087  0.00  0.00    +0.030 A 
ATOM     25  C   UNL     1      -4.460  -2.471   8.959  0.00  0.00    +0.002 A 
ATOM     26  C   UNL     1      -5.329  -1.400   9.114  0.00  0.00    +0.002 A 
ATOM     27  C   UNL     1      -5.147  -0.242   8.389  0.00  0.00    +0.028 A 
ATOM     28  C   UNL     1      -4.086  -0.149   7.498  0.00  0.00    +0.069 A 
ATOM     29  N   UNL     1      -3.630   0.838   6.647  0.00  0.00    -0.329 N 
ATOM     30  C   UNL     1      -4.220   2.166   6.461  0.00  0.00    +0.150 C 
ENDBRANCH  20  21
ENDBRANCH  18  20
ENDBRANCH   1  16
TORSDOF 7
