REMARK  Name = ZINC13381886
REMARK  2 active torsions:
REMARK  status: ('A' for Active; 'I' for Inactive)
REMARK    1  A    between atoms: C_5  and  C_7
REMARK    2  A    between atoms: C_18  and  N_23
REMARK                            x       y       z     vdW  Elec       q    Type
REMARK                         _______ _______ _______ _____ _____    ______ ____
ROOT
ATOM      1  C   UNL     1      -0.974   1.621   1.054  0.00  0.00    +0.108 C 
ATOM      2  C   UNL     1      -0.013   1.086   0.008  0.00  0.00    +0.029 C 
ATOM      3  C   UNL     1       1.407   1.668  -0.002  0.00  0.00    +0.033 C 
ATOM      4  C   UNL     1       1.796   1.505  -1.473  0.00  0.00    -0.030 C 
ATOM      5  C   UNL     1       0.706   1.488  -2.231  0.00  0.00    -0.023 C 
ATOM      6  C   UNL     1      -0.482   1.668  -1.359  0.00  0.00    +0.049 C 
ATOM      7  C   UNL     1      -1.791   1.060  -1.685  0.00  0.00    -0.017 A 
ATOM      8  C   UNL     1      -2.165   0.758  -2.976  0.00  0.00    +0.038 A 
ATOM      9  C   UNL     1      -3.405   0.202  -3.231  0.00  0.00    +0.127 A 
ATOM     10  C   UNL     1      -4.276  -0.053  -2.187  0.00  0.00    +0.034 A 
ATOM     11  C   UNL     1      -3.908   0.241  -0.890  0.00  0.00    +0.025 A 
ATOM     12  C   UNL     1      -2.661   0.793  -0.622  0.00  0.00    +0.032 A 
ATOM     13  N   UNL     1      -2.296   1.050   0.705  0.00  0.00    -0.336 N 
ATOM     14  H   UNL     1      -2.917   0.837   1.419  0.00  0.00    +0.147 HD
ENDROOT
BRANCH   1  19
ATOM     15  C   UNL     1      -2.201   5.095   0.228  0.00  0.00    +0.000 A 
ATOM     16  C   UNL     1      -1.216   5.880   0.797  0.00  0.00    +0.003 A 
ATOM     17  C   UNL     1      -0.151   5.288   1.449  0.00  0.00    +0.039 A 
ATOM     18  C   UNL     1      -0.074   3.908   1.538  0.00  0.00    +0.128 A 
ATOM     19  C   UNL     1      -1.059   3.123   0.963  0.00  0.00    +0.008 A 
ATOM     20  C   UNL     1      -2.123   3.717   0.311  0.00  0.00    +0.008 A 
ATOM     21  F   UNL     1       0.964   3.329   2.180  0.00  0.00    -0.205 F 
ENDBRANCH   1  19
BRANCH   9  22
ATOM     22  N   UNL     1      -3.801  -0.121  -4.620  0.00  0.00    +0.056 N 
ATOM     23  O   UNL     1      -3.034   0.104  -5.539  0.00  0.00    -0.126 OA
ATOM     24  O   UNL     1      -4.893  -0.611  -4.844  0.00  0.00    -0.126 OA
ENDBRANCH   9  22
TORSDOF 2
