REMARK  Name = ZINC31370838
REMARK  7 active torsions:
REMARK  status: ('A' for Active; 'I' for Inactive)
REMARK    1  A    between atoms: C_1  and  C_2
REMARK    2  A    between atoms: C_5  and  C_7
REMARK    3  A    between atoms: C_9  and  C_29
REMARK    4  A    between atoms: C_10  and  C_12
REMARK    5  A    between atoms: N_14  and  C_15
REMARK    6  A    between atoms: C_15  and  C_17
REMARK    7  A    between atoms: C_15  and  C_18
REMARK                            x       y       z     vdW  Elec       q    Type
REMARK                         _______ _______ _______ _____ _____    ______ ____
ROOT
ATOM      1  C   UNL     1       1.147   1.655   0.000  0.00  0.00    +0.253 C 
ATOM      2  O   UNL     1       1.130   2.873   0.007  0.00  0.00    -0.270 OA
ATOM      3  N   UNL     1      -0.011   0.966   0.007  0.00  0.00    -0.304 N 
ATOM      4  H   UNL     1       0.004  -0.134   0.006  0.00  0.00    +0.150 HD
ENDROOT
BRANCH   1   8
ATOM      5  C   UNL     1       4.535  -0.711  -0.045  0.00  0.00    +0.144 A 
ATOM      6  N   UNL     1       4.724   0.608  -0.040  0.00  0.00    -0.240 NA
ATOM      7  C   UNL     1       3.721   1.440  -0.026  0.00  0.00    +0.058 A 
ATOM      8  C   UNL     1       2.425   0.941  -0.016  0.00  0.00    +0.097 A 
ATOM      9  S   UNL     1       2.750  -0.818  -0.021  0.00  0.00    -0.059 S 
ATOM     10  C   UNL     1       3.966   2.927  -0.021  0.00  0.00    +0.067 C 
BRANCH   5  15
ATOM     11  C   UNL     1       6.543  -5.301  -0.088  0.00  0.00    +0.086 C 
ATOM     12  C   UNL     1       6.416  -3.800  -0.079  0.00  0.00    +0.103 A 
ATOM     13  C   UNL     1       7.442  -2.924  -0.085  0.00  0.00    +0.045 A 
ATOM     14  C   UNL     1       6.885  -1.633  -0.073  0.00  0.00    +0.052 A 
ATOM     15  C   UNL     1       5.529  -1.791  -0.060  0.00  0.00    +0.160 A 
ATOM     16  O   UNL     1       5.263  -3.113  -0.059  0.00  0.00    -0.458 OA
ENDBRANCH   5  15
ENDBRANCH   1   8
BRANCH   3  17
ATOM     17  C   UNL     1      -1.290   1.681   0.017  0.00  0.00    +0.100 C 
ATOM     18  C   UNL     1      -1.680   2.047  -1.416  0.00  0.00    +0.033 C 
BRANCH  17  19
ATOM     19  C   UNL     1      -2.354   0.799   0.618  0.00  0.00    -0.025 A 
ATOM     20  C   UNL     1      -2.382  -0.550   0.317  0.00  0.00    +0.009 A 
ATOM     21  C   UNL     1      -3.355  -1.366   0.864  0.00  0.00    +0.048 A 
ATOM     22  C   UNL     1      -4.304  -0.831   1.717  0.00  0.00    +0.142 A 
ATOM     23  C   UNL     1      -4.276   0.529   2.021  0.00  0.00    +0.076 A 
ATOM     24  C   UNL     1      -3.296   1.341   1.474  0.00  0.00    +0.032 A 
ATOM     25  N   UNL     1      -5.245   1.059   2.885  0.00  0.00    -0.280 N 
ATOM     26  C   UNL     1      -5.976   0.215   3.645  0.00  0.00    +0.255 C 
ATOM     27  O   UNL     1      -6.839   0.649   4.378  0.00  0.00    -0.272 OA
ATOM     28  C   UNL     1      -5.713  -1.268   3.579  0.00  0.00    +0.325 C 
ATOM     29  O   UNL     1      -5.267  -1.619   2.267  0.00  0.00    -0.481 OA
ATOM     30  H   UNL     1      -5.399   2.147   2.937  0.00  0.00    +0.155 HD
ENDBRANCH  17  19
ENDBRANCH   3  17
TORSDOF 4
