REMARK  Name = ZINC67608417
REMARK  6 active torsions:
REMARK  status: ('A' for Active; 'I' for Inactive)
REMARK    1  A    between atoms: C_1  and  C_2
REMARK    2  A    between atoms: C_4  and  C_7
REMARK    3  A    between atoms: C_7  and  N_8
REMARK    4  A    between atoms: N_11  and  N_12
REMARK    5  A    between atoms: C_13  and  C_15
REMARK    6  A    between atoms: C_16  and  C_24
REMARK                            x       y       z     vdW  Elec       q    Type
REMARK                         _______ _______ _______ _____ _____    ______ ____
ROOT
ATOM      1  N   UNL     1      -2.021  -4.652  -3.962  0.00  0.00    -0.227 N 
ATOM      2  C   UNL     1      -2.197  -5.075  -5.230  0.00  0.00    +0.296 C 
ATOM      3  O   UNL     1      -2.875  -6.060  -5.453  0.00  0.00    -0.265 OA
ATOM      4  H   UNL     1      -1.481  -3.866  -3.784  0.00  0.00    +0.173 HD
ENDROOT
BRANCH   2   5
ATOM      5  C   UNL     1      -1.571  -4.347  -6.342  0.00  0.00    +0.195 A 
ATOM      6  C   UNL     1      -1.683  -4.677  -7.654  0.00  0.00    +0.008 A 
ATOM      7  C   UNL     1      -0.902  -3.683  -8.390  0.00  0.00    +0.024 A 
ATOM      8  C   UNL     1      -0.622  -3.471  -9.742  0.00  0.00    +0.012 A 
ATOM      9  C   UNL     1       0.166  -2.419 -10.114  0.00  0.00    +0.001 A 
ATOM     10  C   UNL     1       0.691  -1.561  -9.157  0.00  0.00    +0.004 A 
ATOM     11  C   UNL     1       0.427  -1.753  -7.818  0.00  0.00    +0.047 A 
ATOM     12  C   UNL     1      -0.373  -2.816  -7.416  0.00  0.00    +0.136 A 
ATOM     13  O   UNL     1      -0.802  -3.245  -6.213  0.00  0.00    -0.450 OA
ATOM     14  C   UNL     1      -2.456  -5.833  -8.235  0.00  0.00    +0.048 C 
ENDBRANCH   2   5
BRANCH   1  18
ATOM     15  N   UNL     1      -1.691  -3.832  -1.387  0.00  0.00    -0.293 N 
ATOM     16  C   UNL     1      -2.442  -4.923  -1.635  0.00  0.00    +0.316 C 
ATOM     17  O   UNL     1      -2.961  -5.526  -0.715  0.00  0.00    -0.251 OA
ATOM     18  N   UNL     1      -2.619  -5.346  -2.902  0.00  0.00    -0.218 N 
ATOM     19  H   UNL     1      -1.278  -3.351  -2.121  0.00  0.00    +0.151 HD
ATOM     20  H   UNL     1      -3.159  -6.132  -3.080  0.00  0.00    +0.174 HD
BRANCH  15  21
ATOM     21  C   UNL     1      -1.500  -3.372  -0.010  0.00  0.00    +0.164 C 
BRANCH  21  25
ATOM     22  C   UNL     1      -0.018   1.503   0.010  0.00  0.00    +0.089 C 
ATOM     23  C   UNL     1       0.002  -0.004   0.002  0.00  0.00    +0.135 A 
ATOM     24  C   UNL     1      -1.077  -0.810   0.003  0.00  0.00    +0.072 A 
ATOM     25  C   UNL     1      -0.627  -2.143  -0.007  0.00  0.00    +0.101 A 
ATOM     26  N   UNL     1       0.676  -2.130  -0.013  0.00  0.00    -0.081 NA
ATOM     27  O   UNL     1       1.098  -0.778  -0.013  0.00  0.00    -0.360 OA
ENDBRANCH  21  25
ENDBRANCH  15  21
ENDBRANCH   1  18
TORSDOF 4
