REMARK  Name = ZINC08764815
REMARK  9 active torsions:
REMARK  status: ('A' for Active; 'I' for Inactive)
REMARK    1  A    between atoms: C_1  and  C_2
REMARK    2  A    between atoms: C_2  and  N_57
REMARK    3  A    between atoms: C_6  and  C_8
REMARK    4  A    between atoms: C_8  and  N_9
REMARK    5  A    between atoms: C_10  and  C_12
REMARK    6  A    between atoms: C_12  and  C_13
REMARK    7  A    between atoms: C_14  and  C_29
REMARK    8  A    between atoms: C_18  and  C_28
REMARK    9  A    between atoms: C_19  and  C_27
REMARK                            x       y       z     vdW  Elec       q    Type
REMARK                         _______ _______ _______ _____ _____    ______ ____
ROOT
ATOM      1  C   UNL     1      -3.980   2.608  -0.027  0.00  0.00    +0.049 A 
ATOM      2  C   UNL     1      -2.877   3.357  -0.279  0.00  0.00    -0.029 A 
ATOM      3  C   UNL     1      -1.577   2.682  -0.327  0.00  0.00    +0.022 A 
ATOM      4  C   UNL     1      -0.411   3.398  -0.598  0.00  0.00    +0.023 A 
ATOM      5  C   UNL     1       0.804   2.728  -0.637  0.00  0.00    +0.024 A 
ATOM      6  C   UNL     1       2.192   3.142  -0.884  0.00  0.00    -0.002 A 
ATOM      7  C   UNL     1       2.935   2.033  -0.787  0.00  0.00    +0.106 A 
ATOM      8  O   UNL     1       2.156   0.973  -0.506  0.00  0.00    -0.460 OA
ATOM      9  C   UNL     1       0.862   1.339  -0.405  0.00  0.00    +0.139 A 
ATOM     10  C   UNL     1      -0.302   0.634  -0.136  0.00  0.00    +0.093 A 
ATOM     11  C   UNL     1      -1.519   1.291  -0.100  0.00  0.00    +0.143 A 
ATOM     12  O   UNL     1      -2.658   0.608   0.156  0.00  0.00    -0.422 OA
ATOM     13  C   UNL     1      -3.850   1.221   0.196  0.00  0.00    +0.341 A 
ATOM     14  O   UNL     1      -4.847   0.562   0.431  0.00  0.00    -0.245 OA
ATOM     15  C   UNL     1       4.431   1.979  -0.967  0.00  0.00    +0.086 C 
ATOM     16  C   UNL     1       2.681   4.535  -1.186  0.00  0.00    +0.048 C 
ATOM     17  C   UNL     1      -2.988   4.841  -0.520  0.00  0.00    +0.045 C 
ENDROOT
BRANCH   1  18
ATOM     18  C   UNL     1      -5.339   3.257   0.027  0.00  0.00    +0.138 C 
BRANCH  18  20
ATOM     19  N   UNL     1      -6.788   4.326   1.723  0.00  0.00    -0.317 N 
ATOM     20  C   UNL     1      -5.623   3.713   1.435  0.00  0.00    +0.218 C 
ATOM     21  O   UNL     1      -4.802   3.529   2.309  0.00  0.00    -0.275 OA
ATOM     22  H   UNL     1      -7.444   4.474   1.024  0.00  0.00    +0.149 HD
BRANCH  19  23
ATOM     23  C   UNL     1      -7.063   4.769   3.092  0.00  0.00    +0.089 C 
BRANCH  23  27
ATOM     24  C   UNL     1      -8.992   7.870   2.912  0.00  0.00    -0.078 C 
ATOM     25  C   UNL     1      -9.559   7.325   4.240  0.00  0.00    -0.020 C 
ATOM     26  C   UNL     1      -8.641   6.111   4.541  0.00  0.00    -0.016 C 
ATOM     27  C   UNL     1      -8.371   5.563   3.118  0.00  0.00    -0.051 C 
ATOM     28  N   UNL     1      -8.247   6.770   2.277  0.00  0.00    +0.382 N 
ATOM     29  H   UNL     1      -7.257   7.031   2.201  0.00  0.00    -0.081 HD
BRANCH  28  31
ATOM     30  C   UNL     1      -8.767   7.800   0.104  0.00  0.00    -0.017 C 
ATOM     31  C   UNL     1      -8.785   6.505   0.917  0.00  0.00    -0.082 C 
ENDBRANCH  28  31
ENDBRANCH  23  27
ENDBRANCH  19  23
ENDBRANCH  18  20
ENDBRANCH   1  18
TORSDOF 5
