REMARK  Name = ZINC01475147
REMARK  4 active torsions:
REMARK  status: ('A' for Active; 'I' for Inactive)
REMARK    1  A    between atoms: C_3  and  C_6
REMARK    2  A    between atoms: N_8  and  N_9
REMARK    3  A    between atoms: C_10  and  C_11
REMARK    4  A    between atoms: C_16  and  O_17
REMARK                            x       y       z     vdW  Elec       q    Type
REMARK                         _______ _______ _______ _____ _____    ______ ____
ROOT
ATOM      1  N   UNL     1      -1.240  -2.060   0.002  0.00  0.00    -0.187 NA
ATOM      2  C   UNL     1      -1.262  -0.762   0.009  0.00  0.00    +0.142 C 
ENDROOT
BRANCH   2   3
ATOM      3  C   UNL     1       0.002  -0.004   0.002  0.00  0.00    +0.038 A 
ATOM      4  C   UNL     1      -0.017   1.393   0.010  0.00  0.00    +0.028 A 
ATOM      5  C   UNL     1       1.170   2.097   0.002  0.00  0.00    +0.020 A 
ATOM      6  C   UNL     1       2.381   1.424  -0.013  0.00  0.00    +0.034 A 
ATOM      7  C   UNL     1       2.412   0.042  -0.021  0.00  0.00    +0.061 A 
ATOM      8  C   UNL     1       1.229  -0.680  -0.013  0.00  0.00    +0.139 A 
ATOM      9 BR   UNL     1       4.072  -0.865  -0.042  0.00  0.00    -0.046 Br
ATOM     10 BR   UNL     1       1.143   3.988   0.012  0.00  0.00    -0.050 Br
BRANCH   8  11
ATOM     11  O   UNL     1       1.259  -2.038  -0.021  0.00  0.00    -0.505 OA
ATOM     12  H   UNL     1       1.260  -2.427  -0.907  0.00  0.00    +0.292 HD
ENDBRANCH   8  11
ENDBRANCH   2   3
BRANCH   1  15
ATOM     13  C   UNL     1      -2.419  -4.128   0.002  0.00  0.00    +0.299 C 
ATOM     14  O   UNL     1      -1.355  -4.719  -0.011  0.00  0.00    -0.265 OA
ATOM     15  N   UNL     1      -2.441  -2.781   0.009  0.00  0.00    -0.200 N 
ATOM     16  H   UNL     1      -3.289  -2.310   0.020  0.00  0.00    +0.178 HD
BRANCH  13  19
ATOM     17  C   UNL     1      -5.171  -6.527   0.014  0.00  0.00    +0.042 A 
ATOM     18  C   UNL     1      -3.796  -6.243   0.003  0.00  0.00    +0.054 A 
ATOM     19  C   UNL     1      -3.676  -4.883   0.009  0.00  0.00    +0.191 A 
ATOM     20  O   UNL     1      -4.917  -4.354   0.030  0.00  0.00    -0.458 OA
ATOM     21  C   UNL     1      -5.821  -5.343   0.027  0.00  0.00    +0.196 A 
ENDBRANCH  13  19
ENDBRANCH   1  15
TORSDOF 4
