REMARK  Name = ZINC39315625
REMARK  5 active torsions:
REMARK  status: ('A' for Active; 'I' for Inactive)
REMARK    1  A    between atoms: C_1  and  C_2
REMARK    2  A    between atoms: C_4  and  C_31
REMARK    3  A    between atoms: C_18  and  N_30
REMARK    4  A    between atoms: C_19  and  C_28
REMARK    5  A    between atoms: C_20  and  C_22
REMARK                            x       y       z     vdW  Elec       q    Type
REMARK                         _______ _______ _______ _____ _____    ______ ____
ROOT
ATOM      1  C   UNL     1      -0.018   1.503   0.010  0.00  0.00    +0.044 C 
ATOM      2  C   UNL     1       0.002  -0.004   0.002  0.00  0.00    -0.038 A 
ATOM      3  C   UNL     1       0.006  -0.696  -1.189  0.00  0.00    +0.027 A 
ATOM      4  C   UNL     1       0.025  -2.081  -1.193  0.00  0.00    +0.040 A 
ATOM      5  N   UNL     1       0.069  -2.754  -0.056  0.00  0.00    -0.245 NA
ATOM      6  C   UNL     1       0.091  -2.142   1.104  0.00  0.00    +0.107 A 
ATOM      7  C   UNL     1       0.023  -0.728   1.217  0.00  0.00    +0.030 A 
ATOM      8  C   UNL     1      -0.064  -0.205   2.583  0.00  0.00    +0.065 C 
ATOM      9  N   UNL     1      -0.653   0.835   3.111  0.00  0.00    -0.179 NA
ATOM     10  C   UNL     1      -0.831   0.968   4.432  0.00  0.00    +0.268 C 
ATOM     11  O   UNL     1      -1.279   2.018   4.859  0.00  0.00    -0.268 OA
ATOM     12  C   UNL     1      -0.507  -0.096   5.384  0.00  0.00    +0.068 C 
ATOM     13  C   UNL     1       0.241  -1.139   4.976  0.00  0.00    +0.135 C 
ATOM     14  C   UNL     1       0.708  -1.124   3.544  0.00  0.00    +0.166 C 
ATOM     15  S   UNL     1       0.220  -2.734   2.784  0.00  0.00    -0.088 S 
ATOM     16  O   UNL     1       0.563  -2.148   5.797  0.00  0.00    -0.444 OA
ATOM     17  C   UNL     1      -0.127  -2.337   6.937  0.00  0.00    +0.198 C 
ATOM     18  C   UNL     1      -0.885  -1.350   7.474  0.00  0.00    +0.098 C 
ATOM     19  C   UNL     1      -0.983  -0.005   6.808  0.00  0.00    +0.103 C 
ATOM     20  C   UNL     1      -0.005  -2.826  -2.502  0.00  0.00    +0.065 C 
ENDROOT
BRANCH  19  21
ATOM     21  C   UNL     1      -0.131   0.987   7.557  0.00  0.00    -0.035 A 
ATOM     22  C   UNL     1       1.232   0.784   7.666  0.00  0.00    +0.004 A 
ATOM     23  C   UNL     1       2.014   1.693   8.353  0.00  0.00    +0.000 A 
ATOM     24  C   UNL     1       1.433   2.807   8.931  0.00  0.00    +0.000 A 
ATOM     25  C   UNL     1       0.070   3.010   8.821  0.00  0.00    +0.000 A 
ATOM     26  C   UNL     1      -0.711   2.103   8.131  0.00  0.00    +0.004 A 
ENDBRANCH  19  21
BRANCH  17  27
ATOM     27  N   UNL     1      -0.061  -3.554   7.569  0.00  0.00    -0.328 N 
ATOM     28  H   UNL     1       0.478  -4.267   7.193  0.00  0.00    +0.145 HD
ATOM     29  H   UNL     1      -0.554  -3.700   8.391  0.00  0.00    +0.145 HD
ENDBRANCH  17  27
BRANCH  18  30
ATOM     30  C   UNL     1      -1.601  -1.591   8.690  0.00  0.00    +0.101 C 
ATOM     31  N   UNL     1      -2.170  -1.782   9.655  0.00  0.00    -0.191 NA
ENDBRANCH  18  30
TORSDOF 3
