REMARK  Name = ZINC39675089
REMARK  9 active torsions:
REMARK  status: ('A' for Active; 'I' for Inactive)
REMARK    1  A    between atoms: C_1  and  C_2
REMARK    2  A    between atoms: C_4  and  C_35
REMARK    3  A    between atoms: N_5  and  C_7
REMARK    4  A    between atoms: C_7  and  C_8
REMARK    5  A    between atoms: C_8  and  N_9
REMARK    6  A    between atoms: C_10  and  C_12
REMARK    7  A    between atoms: C_23  and  C_25
REMARK    8  A    between atoms: C_28  and  O_32
REMARK    9  A    between atoms: O_32  and  C_33
REMARK                            x       y       z     vdW  Elec       q    Type
REMARK                         _______ _______ _______ _____ _____    ______ ____
ROOT
ATOM      1  C   UNL     1       2.474  -7.128   4.300  0.00  0.00    +0.100 C 
ATOM      2  C   UNL     1       1.774  -8.105   3.329  0.00  0.00    +0.121 C 
ATOM      3  N   UNL     1       2.883  -8.810   2.644  0.00  0.00    -0.296 N 
ATOM      4  C   UNL     1       3.890  -9.037   3.709  0.00  0.00    +0.115 C 
ATOM      5  C   UNL     1       3.861  -7.745   4.550  0.00  0.00    -0.004 C 
ATOM      6  C   UNL     1       4.034  -8.074   6.029  0.00  0.00    -0.010 C 
ATOM      7  C   UNL     1       5.441  -8.632   6.263  0.00  0.00    -0.082 C 
ATOM      8  N   UNL     1       6.438  -7.641   5.841  0.00  0.00    +0.379 N 
ATOM      9  C   UNL     1       6.325  -7.399   4.398  0.00  0.00    -0.082 C 
ATOM     10  C   UNL     1       4.956  -6.790   4.086  0.00  0.00    -0.010 C 
ATOM     11  C   UNL     1       2.959  -9.166   1.346  0.00  0.00    +0.247 C 
ATOM     12  O   UNL     1       2.104  -8.799   0.564  0.00  0.00    -0.270 OA
ATOM     13  H   UNL     1       6.283  -6.777   6.339  0.00  0.00    -0.086 HD
ATOM     14  H   UNL     1       7.363  -7.986   6.052  0.00  0.00    -0.086 HD
ENDROOT
BRANCH  11  15
ATOM     15  C   UNL     1       4.081 -10.002   0.875  0.00  0.00    +0.040 A 
ATOM     16  C   UNL     1       4.803 -10.782   1.782  0.00  0.00    +0.036 A 
ATOM     17  C   UNL     1       5.850 -11.561   1.338  0.00  0.00    +0.085 A 
ATOM     18  C   UNL     1       6.187 -11.572  -0.010  0.00  0.00    +0.157 A 
ATOM     19  C   UNL     1       5.471 -10.798  -0.916  0.00  0.00    +0.085 A 
ATOM     20  C   UNL     1       4.419 -10.021  -0.481  0.00  0.00    +0.036 A 
ATOM     21 CL   UNL     1       5.897 -10.816  -2.599  0.00  0.00    -0.080 Cl
ATOM     22 CL   UNL     1       6.748 -12.529   2.465  0.00  0.00    -0.080 Cl
BRANCH  18  23
ATOM     23  O   UNL     1       7.219 -12.340  -0.444  0.00  0.00    -0.492 OA
ATOM     24  C   UNL     1       6.910 -13.677  -0.844  0.00  0.00    +0.277 C 
ENDBRANCH  18  23
ENDBRANCH  11  15
BRANCH   1  26
ATOM     25  N   UNL     1       2.736  -4.673   4.443  0.00  0.00    -0.313 N 
ATOM     26  C   UNL     1       2.612  -5.767   3.667  0.00  0.00    +0.218 C 
ATOM     27  O   UNL     1       2.611  -5.657   2.459  0.00  0.00    -0.275 OA
ATOM     28  H   UNL     1       2.737  -4.761   5.409  0.00  0.00    +0.149 HD
BRANCH  25  29
ATOM     29  C   UNL     1       2.870  -3.350   3.828  0.00  0.00    +0.127 C 
BRANCH  29  30
ATOM     30  C   UNL     1       2.994  -2.288   4.923  0.00  0.00    +0.162 C 
BRANCH  30  35
ATOM     31  C   UNL     1       5.043   1.829   2.911  0.00  0.00    +0.067 C 
ATOM     32  C   UNL     1       4.045   0.826   3.431  0.00  0.00    +0.060 A 
ATOM     33  C   UNL     1       2.655   0.982   3.442  0.00  0.00    +0.047 A 
ATOM     34  C   UNL     1       2.116  -0.134   3.986  0.00  0.00    +0.036 A 
ATOM     35  N   UNL     1       3.128  -0.966   4.308  0.00  0.00    -0.267 N 
ATOM     36  N   UNL     1       4.330  -0.343   3.945  0.00  0.00    -0.176 NA
ATOM     37  C   UNL     1       0.647  -0.399   4.195  0.00  0.00    +0.065 C 
ENDBRANCH  30  35
ENDBRANCH  29  30
ENDBRANCH  25  29
ENDBRANCH   1  26
TORSDOF 6
