REMARK  Name = ZINC05788555
REMARK  7 active torsions:
REMARK  status: ('A' for Active; 'I' for Inactive)
REMARK    1  A    between atoms: C_1  and  C_2
REMARK    2  A    between atoms: C_5  and  C_9
REMARK    3  A    between atoms: C_6  and  C_8
REMARK    4  A    between atoms: N_11  and  N_12
REMARK    5  A    between atoms: N_12  and  C_13
REMARK    6  A    between atoms: C_18  and  C_20
REMARK    7  A    between atoms: C_18  and  C_21
REMARK                            x       y       z     vdW  Elec       q    Type
REMARK                         _______ _______ _______ _____ _____    ______ ____
ROOT
ATOM      1  C   UNL     1       0.536  -4.239   0.145  0.00  0.00    +0.260 C 
ATOM      2  O   UNL     1       0.619  -4.778   1.231  0.00  0.00    -0.269 OA
ATOM      3  N   UNL     1       0.677  -4.967  -0.981  0.00  0.00    -0.233 N 
ATOM      4  H   UNL     1       0.611  -4.537  -1.848  0.00  0.00    +0.173 HD
ENDROOT
BRANCH   1   9
ATOM      5  C   UNL     1      -0.455   1.419  -0.194  0.00  0.00    +0.044 C 
ATOM      6  C   UNL     1      -0.195  -0.062  -0.105  0.00  0.00    -0.050 A 
ATOM      7  C   UNL     1       0.082  -0.783  -1.254  0.00  0.00    +0.004 A 
ATOM      8  C   UNL     1       0.321  -2.139  -1.179  0.00  0.00    +0.013 A 
ATOM      9  C   UNL     1       0.282  -2.785   0.058  0.00  0.00    +0.041 A 
ATOM     10  C   UNL     1       0.001  -2.053   1.212  0.00  0.00    -0.038 A 
ATOM     11  C   UNL     1      -0.230  -0.695   1.124  0.00  0.00    +0.007 A 
ATOM     12  C   UNL     1      -0.043  -2.741   2.551  0.00  0.00    +0.044 C 
ENDBRANCH   1   9
BRANCH   3  13
ATOM     13  N   UNL     1       0.918  -6.345  -0.898  0.00  0.00    -0.268 N 
ATOM     14  H   UNL     1       0.910  -6.788  -0.036  0.00  0.00    +0.170 HD
BRANCH  13  15
ATOM     15  C   UNL     1       1.163  -7.062  -2.030  0.00  0.00    +0.026 C 
ATOM     16  C   UNL     1       1.066  -6.457  -3.234  0.00  0.00    +0.066 C 
ATOM     17  C   UNL     1       1.302  -7.149  -4.426  0.00  0.00    +0.158 C 
ATOM     18  O   UNL     1       1.206  -6.568  -5.489  0.00  0.00    -0.293 OA
ATOM     19  C   UNL     1       1.675  -8.609  -4.404  0.00  0.00    +0.085 C 
ATOM     20  C   UNL     1       1.058  -9.265  -3.164  0.00  0.00    -0.023 C 
ATOM     21  C   UNL     1       1.543  -8.515  -1.917  0.00  0.00    +0.059 C 
ATOM     22  C   UNL     1       1.500 -10.728  -3.085  0.00  0.00    +0.011 C 
ATOM     23  C   UNL     1      -0.468  -9.191  -3.251  0.00  0.00    +0.011 C 
ENDBRANCH  13  15
ENDBRANCH   3  13
TORSDOF 3
