REMARK  Name = ZINC19812108
REMARK  7 active torsions:
REMARK  status: ('A' for Active; 'I' for Inactive)
REMARK    1  A    between atoms: C_6  and  C_7
REMARK    2  A    between atoms: C_7  and  N_8
REMARK    3  A    between atoms: C_14  and  C_16
REMARK    4  A    between atoms: C_16  and  C_17
REMARK    5  A    between atoms: N_19  and  C_20
REMARK    6  A    between atoms: C_20  and  C_21
REMARK    7  A    between atoms: C_21  and  N_22
REMARK                            x       y       z     vdW  Elec       q    Type
REMARK                         _______ _______ _______ _____ _____    ______ ____
ROOT
ATOM      1  N   UNL     1       0.343  -2.512  -1.393  0.00  0.00    +0.391 N 
ATOM      2  C   UNL     1       0.167  -3.971  -1.313  0.00  0.00    -0.058 C 
ATOM      3  C   UNL     1       1.531  -4.641  -1.486  0.00  0.00    +0.085 C 
ATOM      4  N   UNL     1       2.505  -4.034  -0.583  0.00  0.00    -0.318 N 
ATOM      5  C   UNL     1       2.320  -2.839  -0.011  0.00  0.00    +0.200 C 
ATOM      6  O   UNL     1       3.194  -2.395   0.702  0.00  0.00    -0.278 OA
ATOM      7  C   UNL     1       1.074  -2.024  -0.216  0.00  0.00    +0.028 C 
ATOM      8  H   UNL     1       3.439  -4.563  -0.346  0.00  0.00    +0.149 HD
ATOM      9  H   UNL     1       0.935  -2.279  -2.291  0.00  0.00    -0.080 HD
ENDROOT
BRANCH   1  10
ATOM     10  C   UNL     1      -0.952  -1.831  -1.528  0.00  0.00    -0.042 C 
BRANCH  10  16
ATOM     11  C   UNL     1      -2.559  -3.497  -2.481  0.00  0.00    +0.003 A 
ATOM     12  C   UNL     1      -3.257  -4.041  -3.543  0.00  0.00    +0.023 A 
ATOM     13  C   UNL     1      -3.111  -3.512  -4.812  0.00  0.00    +0.076 A 
ATOM     14  C   UNL     1      -2.262  -2.436  -5.018  0.00  0.00    +0.142 A 
ATOM     15  C   UNL     1      -1.567  -1.889  -3.954  0.00  0.00    +0.041 A 
ATOM     16  C   UNL     1      -1.712  -2.424  -2.687  0.00  0.00    -0.061 A 
ATOM     17  F   UNL     1      -2.118  -1.917  -6.258  0.00  0.00    -0.204 F 
ATOM     18 CL   UNL     1      -3.989  -4.194  -6.145  0.00  0.00    -0.081 Cl
ENDBRANCH  10  16
ENDBRANCH   1  10
BRANCH   7  19
ATOM     19  C   UNL     1       1.456  -0.558  -0.427  0.00  0.00    +0.089 C 
BRANCH  19  20
ATOM     20  C   UNL     1       2.333  -0.437  -1.646  0.00  0.00    +0.212 C 
ATOM     21  O   UNL     1       2.546  -1.410  -2.339  0.00  0.00    -0.276 OA
ATOM     22  N   UNL     1       2.882   0.751  -1.966  0.00  0.00    -0.314 N 
ATOM     23  H   UNL     1       2.686   1.635  -1.341  0.00  0.00    +0.149 HD
BRANCH  22  24
ATOM     24  C   UNL     1       3.740   0.867  -3.148  0.00  0.00    +0.123 C 
BRANCH  24  25
ATOM     25  C   UNL     1       4.229   2.311  -3.284  0.00  0.00    +0.128 C 
BRANCH  25  26
ATOM     26  N   UNL     1       5.087   2.427  -4.465  0.00  0.00    -0.283 N 
ATOM     27  C   UNL     1       6.546   2.238  -4.481  0.00  0.00    +0.128 C 
ATOM     28  C   UNL     1       6.932   2.469  -5.955  0.00  0.00    +0.124 C 
ATOM     29  N   UNL     1       5.651   2.772  -6.612  0.00  0.00    -0.298 N 
ATOM     30  C   UNL     1       4.669   2.727  -5.702  0.00  0.00    +0.302 C 
ATOM     31  O   UNL     1       3.503   2.939  -5.974  0.00  0.00    -0.253 OA
ATOM     32  H   UNL     1       5.624   2.988  -7.690  0.00  0.00    +0.150 HD
ENDBRANCH  25  26
ENDBRANCH  24  25
ENDBRANCH  22  24
ENDBRANCH  19  20
ENDBRANCH   7  19
TORSDOF 7
