REMARK  Name = ZINC02347964
REMARK  3 active torsions:
REMARK  status: ('A' for Active; 'I' for Inactive)
REMARK    1  A    between atoms: C_1  and  C_2
REMARK    2  A    between atoms: C_7  and  N_8
REMARK    3  A    between atoms: C_28  and  C_33
REMARK                            x       y       z     vdW  Elec       q    Type
REMARK                         _______ _______ _______ _____ _____    ______ ____
ROOT
ATOM      1  N   UNL     1       0.025  -0.012   2.419  0.00  0.00    -0.210 N 
ATOM      2  C   UNL     1      -1.099   0.325   3.062  0.00  0.00    +0.228 C 
ATOM      3  O   UNL     1      -2.224   0.080   2.681  0.00  0.00    -0.275 OA
ATOM      4  C   UNL     1      -0.748   1.060   4.336  0.00  0.00    +0.074 C 
ATOM      5  C   UNL     1      -1.138   0.195   5.548  0.00  0.00    -0.054 C 
ATOM      6  C   UNL     1      -2.260  -0.776   5.139  0.00  0.00    -0.016 C 
ATOM      7  C   UNL     1      -1.545  -2.054   4.658  0.00  0.00    -0.020 C 
ATOM      8  C   UNL     1      -0.039  -1.746   4.790  0.00  0.00    -0.076 C 
ATOM      9  N   UNL     1       0.059  -0.655   5.825  0.00  0.00    +0.395 N 
ATOM     10  C   UNL     1       1.208   0.218   5.533  0.00  0.00    +0.053 C 
ATOM     11  C   UNL     1       0.805   1.087   4.318  0.00  0.00    +0.089 C 
ATOM     12  C   UNL     1       1.152   0.361   3.037  0.00  0.00    +0.229 C 
ATOM     13  O   UNL     1       2.275   0.151   2.633  0.00  0.00    -0.275 OA
ATOM     14  C   UNL     1       1.565   1.074   6.716  0.00  0.00    -0.026 A 
ATOM     15  C   UNL     1       0.874   2.013   7.449  0.00  0.00    +0.024 A 
ATOM     16  C   UNL     1       1.489   2.652   8.512  0.00  0.00    +0.042 A 
ATOM     17  C   UNL     1       2.799   2.343   8.836  0.00  0.00    +0.025 A 
ATOM     18  C   UNL     1       3.494   1.402   8.105  0.00  0.00    -0.028 A 
ATOM     19  C   UNL     1       2.882   0.756   7.033  0.00  0.00    +0.039 A 
ATOM     20  N   UNL     1       3.369  -0.216   6.156  0.00  0.00    -0.286 N 
ATOM     21  C   UNL     1       2.448  -0.585   5.245  0.00  0.00    +0.212 C 
ATOM     22  O   UNL     1       2.590  -1.406   4.363  0.00  0.00    -0.277 OA
ATOM     23  C   UNL     1       4.919   1.073   8.466  0.00  0.00    +0.046 C 
ATOM     24 CL   UNL     1       0.620   3.837   9.436  0.00  0.00    -0.084 Cl
ATOM     25  H   UNL     1       4.266  -0.583   6.197  0.00  0.00    +0.155 HD
ATOM     26  H   UNL     1       0.069  -1.015   6.768  0.00  0.00    -0.079 HD
ENDROOT
BRANCH   1  33
ATOM     27  C   UNL     1      -0.018   1.503   0.010  0.00  0.00    +0.045 C 
ATOM     28  C   UNL     1       0.002  -0.004   0.002  0.00  0.00    -0.029 A 
ATOM     29  C   UNL     1       0.006  -0.689  -1.198  0.00  0.00    +0.006 A 
ATOM     30  C   UNL     1       0.024  -2.071  -1.207  0.00  0.00    +0.020 A 
ATOM     31  C   UNL     1       0.040  -2.773  -0.014  0.00  0.00    +0.043 A 
ATOM     32  C   UNL     1       0.036  -2.093   1.189  0.00  0.00    +0.044 A 
ATOM     33  C   UNL     1       0.023  -0.705   1.200  0.00  0.00    +0.048 A 
ATOM     34 CL   UNL     1       0.062  -4.509  -0.030  0.00  0.00    -0.083 Cl
ENDBRANCH   1  33
TORSDOF 1
