REMARK  Name = ZINC05348334
REMARK  9 active torsions:
REMARK  status: ('A' for Active; 'I' for Inactive)
REMARK    1  A    between atoms: C_1  and  C_2
REMARK    2  A    between atoms: C_2  and  C_3
REMARK    3  A    between atoms: C_3  and  C_4
REMARK    4  A    between atoms: C_13  and  O_15
REMARK    5  A    between atoms: O_15  and  C_16
REMARK    6  A    between atoms: C_16  and  C_17
REMARK    7  A    between atoms: N_19  and  C_20
REMARK    8  A    between atoms: C_23  and  O_26
REMARK    9  A    between atoms: O_26  and  C_27
REMARK                            x       y       z     vdW  Elec       q    Type
REMARK                         _______ _______ _______ _____ _____    ______ ____
ROOT
ATOM      1  O   UNL     1       3.767  -4.699  -0.368  0.00  0.00    -0.483 OA
ENDROOT
BRANCH   1  11
ATOM      2  C   UNL     1       4.536 -10.212  -0.852  0.00  0.00    -0.030 A 
ATOM      3  C   UNL     1       5.813 -10.663  -0.958  0.00  0.00    +0.096 A 
ATOM      4  C   UNL     1       6.884  -9.746  -0.943  0.00  0.00    +0.337 A 
ATOM      5  O   UNL     1       8.024 -10.164  -1.039  0.00  0.00    -0.245 OA
ATOM      6  O   UNL     1       6.679  -8.425  -0.826  0.00  0.00    -0.422 OA
ATOM      7  C   UNL     1       5.435  -7.911  -0.716  0.00  0.00    +0.143 A 
ATOM      8  C   UNL     1       4.320  -8.770  -0.724  0.00  0.00    +0.021 A 
ATOM      9  C   UNL     1       3.029  -8.242  -0.612  0.00  0.00    +0.015 A 
ATOM     10  C   UNL     1       2.856  -6.893  -0.489  0.00  0.00    +0.046 A 
ATOM     11  C   UNL     1       3.955  -6.038  -0.486  0.00  0.00    +0.125 A 
ATOM     12  C   UNL     1       5.241  -6.544  -0.596  0.00  0.00    +0.092 A 
BRANCH   2  13
ATOM     13  C   UNL     1       3.373 -11.171  -0.864  0.00  0.00    +0.036 C 
BRANCH  13  15
ATOM     14  C   UNL     1       1.641 -12.258  -2.300  0.00  0.00    +0.004 C 
ATOM     15  C   UNL     1       2.821 -11.285  -2.287  0.00  0.00    +0.001 C 
ENDBRANCH  13  15
ENDBRANCH   2  13
ENDBRANCH   1  11
BRANCH   1  16
ATOM     16  C   UNL     1       2.417  -4.241  -0.258  0.00  0.00    +0.324 C 
BRANCH  16  17
ATOM     17  C   UNL     1       2.405  -2.739  -0.137  0.00  0.00    +0.255 C 
ATOM     18  O   UNL     1       3.449  -2.122  -0.144  0.00  0.00    -0.272 OA
ATOM     19  N   UNL     1       1.234  -2.083  -0.020  0.00  0.00    -0.283 N 
ATOM     20  H   UNL     1       0.405  -2.580   0.062  0.00  0.00    +0.155 HD
BRANCH  19  21
ATOM     21  C   UNL     1       1.213  -0.681  -0.019  0.00  0.00    +0.034 A 
ATOM     22  C   UNL     1       2.138   0.027  -0.775  0.00  0.00    +0.027 A 
ATOM     23  C   UNL     1       2.117   1.408  -0.773  0.00  0.00    +0.047 A 
ATOM     24  C   UNL     1       1.173   2.087  -0.017  0.00  0.00    +0.127 A 
ATOM     25  C   UNL     1       0.249   1.379   0.739  0.00  0.00    +0.047 A 
ATOM     26  C   UNL     1       0.269  -0.001   0.738  0.00  0.00    +0.027 A 
BRANCH  24  27
ATOM     27  O   UNL     1       1.153   3.446  -0.015  0.00  0.00    -0.434 OA
BRANCH  27  28
ATOM     28  C   UNL     1       0.154   4.080   0.786  0.00  0.00    +0.541 C 
ATOM     29  F   UNL     1      -1.115   3.686   0.347  0.00  0.00    -0.166 F 
ATOM     30  F   UNL     1       0.322   3.705   2.123  0.00  0.00    -0.166 F 
ENDBRANCH  27  28
ENDBRANCH  24  27
ENDBRANCH  19  21
ENDBRANCH  16  17
ENDBRANCH   1  16
TORSDOF 8
