REMARK  Name = ZINC05151568
REMARK  4 active torsions:
REMARK  status: ('A' for Active; 'I' for Inactive)
REMARK    1  A    between atoms: C_1  and  C_2
REMARK    2  A    between atoms: C_7  and  C_8
REMARK    3  A    between atoms: C_10  and  C_26
REMARK    4  A    between atoms: N_14  and  C_19
REMARK                            x       y       z     vdW  Elec       q    Type
REMARK                         _______ _______ _______ _____ _____    ______ ____
ROOT
ATOM      1  C   UNL     1       0.173   0.157   2.409  0.00  0.00    +0.163 A 
ATOM      2  N   UNL     1       0.041   1.471   2.335  0.00  0.00    -0.220 NA
ATOM      3  C   UNL     1       0.099   2.229   3.430  0.00  0.00    +0.154 A 
ATOM      4  C   UNL     1       0.314   1.608   4.661  0.00  0.00    +0.117 A 
ATOM      5  C   UNL     1       0.455   0.209   4.693  0.00  0.00    +0.170 A 
ATOM      6  N   UNL     1       0.379  -0.470   3.562  0.00  0.00    -0.208 NA
ATOM      7  N   UNL     1       0.656  -0.139   6.018  0.00  0.00    -0.245 N 
ATOM      8  C   UNL     1       0.639   0.985   6.760  0.00  0.00    +0.333 A 
ATOM      9  O   UNL     1       0.787   1.029   7.967  0.00  0.00    -0.246 OA
ATOM     10  N   UNL     1       0.435   2.053   5.965  0.00  0.00    -0.303 N 
ATOM     11  H   UNL     1       0.382   2.977   6.257  0.00  0.00    +0.171 HD
ENDROOT
BRANCH   1  18
ATOM     12  C   UNL     1      -1.986   0.622   0.541  0.00  0.00    +0.044 C 
ATOM     13  C   UNL     1      -0.942  -0.426   0.257  0.00  0.00    -0.040 A 
ATOM     14  C   UNL     1      -1.013  -1.178  -0.899  0.00  0.00    +0.004 A 
ATOM     15  C   UNL     1      -0.053  -2.138  -1.164  0.00  0.00    +0.000 A 
ATOM     16  C   UNL     1       0.978  -2.357  -0.268  0.00  0.00    +0.001 A 
ATOM     17  C   UNL     1       1.057  -1.615   0.893  0.00  0.00    +0.012 A 
ATOM     18  C   UNL     1       0.095  -0.643   1.163  0.00  0.00    +0.022 A 
ENDBRANCH   1  18
BRANCH   7  19
ATOM     19  C   UNL     1       0.844  -1.440   6.504  0.00  0.00    +0.053 A 
ATOM     20  C   UNL     1       0.832  -2.518   5.629  0.00  0.00    +0.028 A 
ATOM     21  C   UNL     1       1.023  -3.798   6.111  0.00  0.00    +0.022 A 
ATOM     22  C   UNL     1       1.215  -4.008   7.465  0.00  0.00    +0.041 A 
ATOM     23  C   UNL     1       1.220  -2.936   8.340  0.00  0.00    +0.022 A 
ATOM     24  C   UNL     1       1.036  -1.653   7.863  0.00  0.00    +0.028 A 
ATOM     25 CL   UNL     1       1.447  -5.620   8.068  0.00  0.00    -0.084 Cl
ENDBRANCH   7  19
BRANCH   3  26
ATOM     26  C   UNL     1      -0.056   3.700   3.342  0.00  0.00    +0.262 C 
ATOM     27  O   UNL     1       0.004   4.378   4.348  0.00  0.00    -0.269 OA
ATOM     28  N   UNL     1      -0.264   4.285   2.145  0.00  0.00    -0.324 N 
ATOM     29  H   UNL     1      -0.311   3.743   1.342  0.00  0.00    +0.145 HD
ATOM     30  H   UNL     1      -0.365   5.247   2.087  0.00  0.00    +0.145 HD
ENDBRANCH   3  26
TORSDOF 3
