REMARK  Name = ZINC16951214
REMARK  6 active torsions:
REMARK  status: ('A' for Active; 'I' for Inactive)
REMARK    1  A    between atoms: C_1  and  C_2
REMARK    2  A    between atoms: C_6  and  C_24
REMARK    3  A    between atoms: C_7  and  N_8
REMARK    4  A    between atoms: N_9  and  C_10
REMARK    5  A    between atoms: C_11  and  C_23
REMARK    6  A    between atoms: C_15  and  C_16
REMARK                            x       y       z     vdW  Elec       q    Type
REMARK                         _______ _______ _______ _____ _____    ______ ____
ROOT
ATOM      1  C   UNL     1      -1.369  -2.094   0.494  0.00  0.00    +0.133 A 
ATOM      2  C   UNL     1      -0.249  -2.924   0.637  0.00  0.00    +0.071 A 
ATOM      3  N   UNL     1      -0.430  -4.217   0.831  0.00  0.00    -0.218 NA
ATOM      4  C   UNL     1      -1.649  -4.740   0.882  0.00  0.00    +0.213 A 
ATOM      5  N   UNL     1      -2.738  -4.000   0.748  0.00  0.00    -0.212 NA
ATOM      6  C   UNL     1      -2.650  -2.688   0.555  0.00  0.00    +0.103 A 
ATOM      7  N   UNL     1      -1.785  -6.100   1.082  0.00  0.00    -0.327 N 
ATOM      8  C   UNL     1       1.142  -2.348   0.576  0.00  0.00    +0.068 C 
ATOM      9  H   UNL     1      -2.787  -6.552   1.127  0.00  0.00    +0.145 HD
ATOM     10  H   UNL     1      -0.891  -6.731   1.196  0.00  0.00    +0.145 HD
ENDROOT
BRANCH   6  11
ATOM     11  C   UNL     1      -3.871  -1.863   0.406  0.00  0.00    +0.003 A 
ATOM     12  C   UNL     1      -3.961  -0.624   1.039  0.00  0.00    +0.010 A 
ATOM     13  C   UNL     1      -5.099   0.142   0.892  0.00  0.00    +0.001 A 
ATOM     14  C   UNL     1      -6.154  -0.322   0.127  0.00  0.00    +0.000 A 
ATOM     15  C   UNL     1      -6.073  -1.553  -0.499  0.00  0.00    +0.001 A 
ATOM     16  C   UNL     1      -4.938  -2.325  -0.364  0.00  0.00    +0.010 A 
ENDBRANCH   6  11
BRANCH   1  18
ATOM     17  N   UNL     1      -0.430  -0.072   1.049  0.00  0.00    -0.149 NA
ATOM     18  N   UNL     1      -1.227  -0.753   0.297  0.00  0.00    -0.145 NA
BRANCH  17  25
ATOM     19  C   UNL     1      -0.189   1.010  -1.568  0.00  0.00    +0.046 C 
ATOM     20  C   UNL     1      -0.252   1.875  -0.336  0.00  0.00    -0.023 A 
ATOM     21  C   UNL     1      -0.199   3.248  -0.452  0.00  0.00    +0.005 A 
ATOM     22  C   UNL     1      -0.252   4.044   0.679  0.00  0.00    +0.001 A 
ATOM     23  C   UNL     1      -0.363   3.470   1.933  0.00  0.00    +0.005 A 
ATOM     24  C   UNL     1      -0.424   2.098   2.064  0.00  0.00    -0.023 A 
ATOM     25  C   UNL     1      -0.371   1.288   0.927  0.00  0.00    +0.092 A 
ATOM     26  C   UNL     1      -0.546   1.474   3.431  0.00  0.00    +0.046 C 
ENDBRANCH  17  25
ENDBRANCH   1  18
TORSDOF 3
