REMARK  Name = ZINC34674721
REMARK  8 active torsions:
REMARK  status: ('A' for Active; 'I' for Inactive)
REMARK    1  A    between atoms: C_1  and  C_2
REMARK    2  A    between atoms: C_2  and  C_3
REMARK    3  A    between atoms: C_3  and  C_21
REMARK    4  A    between atoms: N_6  and  C_10
REMARK    5  A    between atoms: C_10  and  C_11
REMARK    6  A    between atoms: C_11  and  O_12
REMARK    7  A    between atoms: O_12  and  C_13
REMARK    8  A    between atoms: C_18  and  C_19
REMARK                            x       y       z     vdW  Elec       q    Type
REMARK                         _______ _______ _______ _____ _____    ______ ____
ROOT
ATOM      1  C   UNL     1       0.742  -0.511   1.242  0.00  0.00    +0.109 C 
ATOM      2  C   UNL     1       0.685  -2.024   1.315  0.00  0.00    +0.246 C 
ATOM      3  O   UNL     1       1.132  -2.813   0.511  0.00  0.00    -0.273 OA
ATOM      4  N   UNL     1       0.035  -2.309   2.461  0.00  0.00    -0.221 N 
ATOM      5  C   UNL     1      -0.323  -1.198   3.115  0.00  0.00    +0.309 C 
ATOM      6  O   UNL     1      -0.920  -1.199   4.173  0.00  0.00    -0.252 OA
ATOM      7  N   UNL     1       0.053  -0.079   2.470  0.00  0.00    -0.285 N 
ATOM      8  C   UNL     1       2.192  -0.023   1.238  0.00  0.00    +0.041 C 
ATOM      9  H   UNL     1      -0.100   0.835   2.757  0.00  0.00    +0.151 HD
ENDROOT
BRANCH   1  11
ATOM     10  C   UNL     1      -0.019   1.526   0.010  0.00  0.00    +0.006 C 
ATOM     11  C   UNL     1       0.002  -0.004   0.002  0.00  0.00    +0.031 C 
ENDBRANCH   1  11
BRANCH   4  12
ATOM     12  C   UNL     1      -0.245  -3.667   2.932  0.00  0.00    +0.159 C 
BRANCH  12  13
ATOM     13  C   UNL     1       0.913  -4.154   3.805  0.00  0.00    +0.248 C 
BRANCH  13  14
ATOM     14  O   UNL     1       0.989  -3.353   4.986  0.00  0.00    -0.489 OA
BRANCH  14  15
ATOM     15  C   UNL     1       1.970  -3.655   5.873  0.00  0.00    +0.138 A 
ATOM     16  C   UNL     1       2.847  -4.696   5.614  0.00  0.00    +0.047 A 
ATOM     17  C   UNL     1       3.845  -5.003   6.518  0.00  0.00    +0.004 A 
ATOM     18  C   UNL     1       3.978  -4.274   7.689  0.00  0.00    +0.001 A 
ATOM     19  C   UNL     1       3.115  -3.235   7.963  0.00  0.00    +0.022 A 
ATOM     20  C   UNL     1       2.104  -2.911   7.054  0.00  0.00    +0.093 A 
BRANCH  20  21
ATOM     21  C   UNL     1       1.208  -1.829   7.330  0.00  0.00    +0.103 C 
ATOM     22  N   UNL     1       0.496  -0.970   7.548  0.00  0.00    -0.191 NA
ENDBRANCH  20  21
ENDBRANCH  14  15
ENDBRANCH  13  14
ENDBRANCH  12  13
ENDBRANCH   4  12
TORSDOF 6
