REMARK  Name = ZINC48915156
REMARK  5 active torsions:
REMARK  status: ('A' for Active; 'I' for Inactive)
REMARK    1  A    between atoms: C_1  and  C_2
REMARK    2  A    between atoms: C_2  and  C_3
REMARK    3  A    between atoms: C_7  and  C_21
REMARK    4  A    between atoms: C_14  and  C_17
REMARK    5  A    between atoms: N_18  and  O_19
REMARK                            x       y       z     vdW  Elec       q    Type
REMARK                         _______ _______ _______ _____ _____    ______ ____
ROOT
ATOM      1  C   UNL     1      -1.480  -0.400  -0.039  0.00  0.00    +0.100 C 
ATOM      2  C   UNL     1      -1.565  -1.929  -0.104  0.00  0.00    +0.182 C 
ATOM      3  O   UNL     1      -2.925  -2.333   0.071  0.00  0.00    -0.373 OA
ATOM      4  C   UNL     1      -3.481  -1.980   1.340  0.00  0.00    +0.132 C 
ATOM      5  C   UNL     1      -3.495  -0.453   1.478  0.00  0.00    +0.138 C 
ATOM      6  N   UNL     1      -2.142   0.051   1.195  0.00  0.00    -0.307 N 
ATOM      7  C   UNL     1      -1.508   0.925   2.067  0.00  0.00    +0.122 A 
ATOM      8  C   UNL     1      -1.732   2.295   1.951  0.00  0.00    +0.044 A 
ATOM      9  C   UNL     1      -1.099   3.157   2.821  0.00  0.00    +0.016 A 
ATOM     10  C   UNL     1      -0.248   2.616   3.795  0.00  0.00    +0.036 A 
ATOM     11  C   UNL     1      -0.074   1.234   3.849  0.00  0.00    +0.124 A 
ATOM     12  N   UNL     1      -0.702   0.444   3.003  0.00  0.00    -0.240 NA
ATOM     13  C   UNL     1      -4.911  -2.516   1.438  0.00  0.00    +0.039 C 
ENDROOT
BRANCH  10  14
ATOM     14  C   UNL     1       0.455   3.499   4.752  0.00  0.00    +0.164 C 
ATOM     15  N   UNL     1       0.285   4.788   4.693  0.00  0.00    -0.071 NA
ATOM     16  N   UNL     1       1.292   2.954   5.710  0.00  0.00    -0.340 N 
ATOM     17  H   UNL     1       1.419   1.993   5.754  0.00  0.00    +0.144 HD
ATOM     18  H   UNL     1       1.753   3.532   6.337  0.00  0.00    +0.144 HD
BRANCH  15  19
ATOM     19  O   UNL     1       0.958   5.633   5.608  0.00  0.00    -0.408 OA
ATOM     20  H   UNL     1       0.770   6.573   5.487  0.00  0.00    +0.328 HD
ENDBRANCH  15  19
ENDBRANCH  10  14
BRANCH   1  22
ATOM     21  C   UNL     1       0.634  -0.315  -1.367  0.00  0.00    +0.006 C 
ATOM     22  C   UNL     1      -0.013   0.035  -0.026  0.00  0.00    +0.021 C 
ENDBRANCH   1  22
TORSDOF 3
