REMARK  Name = ZINC06530416
REMARK  5 active torsions:
REMARK  status: ('A' for Active; 'I' for Inactive)
REMARK    1  A    between atoms: C_1  and  C_2
REMARK    2  A    between atoms: C_2  and  C_3
REMARK    3  A    between atoms: C_10  and  N_21
REMARK    4  A    between atoms: C_11  and  C_19
REMARK    5  A    between atoms: C_16  and  C_18
REMARK                            x       y       z     vdW  Elec       q    Type
REMARK                         _______ _______ _______ _____ _____    ______ ____
ROOT
ATOM      1  C   UNL     1      -1.583  -1.022   0.175  0.00  0.00    +0.070 A 
ATOM      2  C   UNL     1      -2.223  -1.201   1.394  0.00  0.00    +0.051 A 
ATOM      3  C   UNL     1      -3.362  -1.928   1.170  0.00  0.00    +0.223 A 
ATOM      4  N   UNL     1      -3.424  -2.191  -0.145  0.00  0.00    -0.246 N 
ATOM      5  H   UNL     1      -4.122  -2.690  -0.595  0.00  0.00    +0.192 HD
ATOM      6  N   UNL     1      -2.300  -1.609  -0.753  0.00  0.00    -0.176 NA
ATOM      7  O   UNL     1      -4.215  -2.272   2.167  0.00  0.00    -0.423 OA
ATOM      8  C   UNL     1      -4.073  -1.664   3.362  0.00  0.00    +0.200 C 
ATOM      9  C   UNL     1      -2.987  -0.929   3.705  0.00  0.00    +0.099 C 
ATOM     10  C   UNL     1      -1.833  -0.731   2.764  0.00  0.00    +0.070 C 
ATOM     11  C   UNL     1      -0.595  -1.500   3.265  0.00  0.00    +0.048 C 
ATOM     12  C   UNL     1       0.549  -0.497   2.963  0.00  0.00    +0.161 C 
ATOM     13  O   UNL     1      -0.049   0.791   3.232  0.00  0.00    -0.376 OA
ATOM     14  C   UNL     1      -1.399   0.740   2.735  0.00  0.00    +0.131 C 
ATOM     15  C   UNL     1      -2.316   1.572   3.634  0.00  0.00    +0.039 C 
ENDROOT
BRANCH   8  16
ATOM     16  N   UNL     1      -5.084  -1.795   4.281  0.00  0.00    -0.328 N 
ATOM     17  H   UNL     1      -5.873  -2.315   4.062  0.00  0.00    +0.145 HD
ATOM     18  H   UNL     1      -5.009  -1.369   5.149  0.00  0.00    +0.145 HD
ENDBRANCH   8  16
BRANCH   1  20
ATOM     19  C   UNL     1       0.868  -1.274  -0.110  0.00  0.00    +0.010 C 
ATOM     20  C   UNL     1      -0.291  -0.278  -0.044  0.00  0.00    +0.054 C 
ENDBRANCH   1  20
BRANCH   9  21
ATOM     21  C   UNL     1      -2.939  -0.324   5.002  0.00  0.00    +0.101 C 
ATOM     22  N   UNL     1      -2.901   0.157   6.030  0.00  0.00    -0.191 NA
ENDBRANCH   9  21
TORSDOF 3
