REMARK  Name = ZINC14720645
REMARK  12 active torsions:
REMARK  status: ('A' for Active; 'I' for Inactive)
REMARK    1  A    between atoms: C_1  and  C_2
REMARK    2  A    between atoms: C_2  and  C_3
REMARK    3  A    between atoms: C_3  and  C_4
REMARK    4  A    between atoms: C_4  and  N_5
REMARK    5  A    between atoms: N_5  and  C_6
REMARK    6  A    between atoms: C_7  and  N_19
REMARK    7  A    between atoms: N_8  and  C_15
REMARK    8  A    between atoms: C_15  and  C_16
REMARK    9  A    between atoms: C_16  and  C_17
REMARK   10  A    between atoms: C_16  and  C_18
REMARK   11  A    between atoms: C_20  and  C_22
REMARK   12  A    between atoms: C_25  and  C_28
REMARK                            x       y       z     vdW  Elec       q    Type
REMARK                         _______ _______ _______ _____ _____    ______ ____
ROOT
ATOM      1  N   UNL     1       0.900  -3.118   2.180  0.00  0.00    -0.260 N 
ATOM      2  C   UNL     1       0.790  -2.762   3.475  0.00  0.00    +0.251 C 
ATOM      3  O   UNL     1       0.887  -3.603   4.348  0.00  0.00    -0.270 OA
ENDROOT
BRANCH   1   4
ATOM      4  C   UNL     1       0.853  -2.134   1.171  0.00  0.00    +0.140 A 
ATOM      5  C   UNL     1      -0.134  -2.163   0.207  0.00  0.00    +0.127 A 
ATOM      6  N   UNL     1      -0.153  -1.189  -0.764  0.00  0.00    -0.280 N 
ATOM      7  C   UNL     1       0.782  -0.221  -0.776  0.00  0.00    +0.331 A 
ATOM      8  O   UNL     1       0.750   0.628  -1.646  0.00  0.00    -0.246 OA
ATOM      9  N   UNL     1       1.748  -0.174   0.158  0.00  0.00    -0.273 N 
ATOM     10  H   UNL     1       2.426   0.561   0.131  0.00  0.00    +0.173 HD
ATOM     11  C   UNL     1       1.812  -1.104   1.131  0.00  0.00    +0.277 A 
ATOM     12  O   UNL     1       2.695  -1.054   1.971  0.00  0.00    -0.266 OA
BRANCH   5  13
ATOM     13  N   UNL     1      -1.086  -3.154   0.217  0.00  0.00    -0.343 N 
ATOM     14  H   UNL     1      -1.689  -3.255  -0.537  0.00  0.00    +0.144 HD
ATOM     15  H   UNL     1      -1.155  -3.752   0.977  0.00  0.00    +0.144 HD
ENDBRANCH   5  13
BRANCH   6  16
ATOM     16  C   UNL     1      -1.195  -1.208  -1.794  0.00  0.00    +0.131 C 
BRANCH  16  17
ATOM     17  C   UNL     1      -2.401  -0.397  -1.315  0.00  0.00    +0.003 C 
ATOM     18  C   UNL     1      -2.002   1.073  -1.170  0.00  0.00    +0.009 C 
ATOM     19  C   UNL     1      -3.535  -0.520  -2.334  0.00  0.00    +0.009 C 
ENDBRANCH  16  17
ENDBRANCH   6  16
ENDBRANCH   1   4
BRANCH   2  20
ATOM     20  C   UNL     1       0.550  -1.349   3.834  0.00  0.00    +0.037 A 
ATOM     21  C   UNL     1      -0.070  -0.491   2.923  0.00  0.00    +0.013 A 
ATOM     22  C   UNL     1      -0.298   0.824   3.261  0.00  0.00    +0.009 A 
ATOM     23  C   UNL     1       0.101   1.302   4.509  0.00  0.00    -0.018 A 
ATOM     24  C   UNL     1       0.726   0.448   5.418  0.00  0.00    +0.009 A 
ATOM     25  C   UNL     1       0.949  -0.869   5.084  0.00  0.00    +0.013 A 
BRANCH  23  26
ATOM     26  C   UNL     1      -0.139   2.720   4.870  0.00  0.00    -0.018 A 
ATOM     27  C   UNL     1       0.253   3.201   6.118  0.00  0.00    +0.008 A 
ATOM     28  C   UNL     1       0.032   4.523   6.447  0.00  0.00    +0.001 A 
ATOM     29  C   UNL     1      -0.587   5.368   5.543  0.00  0.00    +0.000 A 
ATOM     30  C   UNL     1      -0.984   4.896   4.305  0.00  0.00    +0.001 A 
ATOM     31  C   UNL     1      -0.763   3.577   3.964  0.00  0.00    +0.008 A 
ENDBRANCH  23  26
ENDBRANCH   2  20
BRANCH   1  32
ATOM     32  C   UNL     1       1.068  -4.528   1.820  0.00  0.00    +0.114 C 
BRANCH  32  33
ATOM     33  C   UNL     1       2.553  -4.894   1.871  0.00  0.00    +0.019 C 
BRANCH  33  35
ATOM     34  C   UNL     1       4.214  -6.732   1.546  0.00  0.00    +0.004 C 
ATOM     35  C   UNL     1       2.729  -6.366   1.495  0.00  0.00    -0.002 C 
ENDBRANCH  33  35
ENDBRANCH  32  33
ENDBRANCH   1  32
TORSDOF 9
