REMARK  Name = ZINC19330310
REMARK  6 active torsions:
REMARK  status: ('A' for Active; 'I' for Inactive)
REMARK    1  A    between atoms: C_1  and  C_2
REMARK    2  A    between atoms: C_10  and  N_11
REMARK    3  A    between atoms: N_15  and  C_18
REMARK    4  A    between atoms: C_18  and  C_19
REMARK    5  A    between atoms: C_19  and  O_20
REMARK    6  A    between atoms: O_20  and  C_21
REMARK                            x       y       z     vdW  Elec       q    Type
REMARK                         _______ _______ _______ _____ _____    ______ ____
ROOT
ATOM      1  N   UNL     1       0.412  -2.781   2.888  0.00  0.00    -0.181 NA
ATOM      2  C   UNL     1       0.338  -4.090   2.754  0.00  0.00    +0.185 C 
ATOM      3  N   UNL     1       0.187  -4.694   1.521  0.00  0.00    -0.304 N 
ATOM      4  C   UNL     1      -0.736  -5.838   1.444  0.00  0.00    +0.193 C 
ATOM      5  N   UNL     1      -0.423  -6.771   2.538  0.00  0.00    -0.269 NA
ATOM      6  C   UNL     1      -0.507  -6.097   3.844  0.00  0.00    +0.193 C 
ATOM      7  N   UNL     1       0.414  -4.944   3.838  0.00  0.00    -0.304 N 
ATOM      8  H   UNL     1       1.042  -4.789   4.561  0.00  0.00    +0.150 HD
ATOM      9  H   UNL     1       0.667  -4.377   0.740  0.00  0.00    +0.150 HD
ENDROOT
BRANCH   1  19
ATOM     10  C   UNL     1       0.431   1.659   1.140  0.00  0.00    +0.066 C 
ATOM     11  C   UNL     1       0.341   0.169   0.934  0.00  0.00    +0.051 A 
ATOM     12  C   UNL     1       0.180  -0.370  -0.357  0.00  0.00    +0.022 A 
ATOM     13  C   UNL     1       0.098   0.443  -1.496  0.00  0.00    +0.012 A 
ATOM     14  C   UNL     1      -0.057  -0.133  -2.722  0.00  0.00    +0.001 A 
ATOM     15  C   UNL     1      -0.136  -1.517  -2.859  0.00  0.00    +0.002 A 
ATOM     16  C   UNL     1      -0.060  -2.336  -1.774  0.00  0.00    +0.028 A 
ATOM     17  C   UNL     1       0.101  -1.780  -0.495  0.00  0.00    +0.077 A 
ATOM     18  N   UNL     1       0.182  -2.542   0.602  0.00  0.00    -0.211 NA
ATOM     19  C   UNL     1       0.333  -1.980   1.792  0.00  0.00    +0.254 A 
ATOM     20  N   UNL     1       0.416  -0.655   1.956  0.00  0.00    -0.215 NA
ENDBRANCH   1  19
BRANCH   5  21
ATOM     21  C   UNL     1      -1.302  -7.947   2.496  0.00  0.00    +0.115 C 
BRANCH  21  22
ATOM     22  C   UNL     1      -0.852  -8.880   1.371  0.00  0.00    +0.175 C 
BRANCH  22  23
ATOM     23  O   UNL     1       0.452  -9.387   1.665  0.00  0.00    -0.382 OA
ATOM     24  C   UNL     1       0.969 -10.274   0.671  0.00  0.00    +0.194 C 
ENDBRANCH  22  23
ENDBRANCH  21  22
ENDBRANCH   5  21
TORSDOF 4
