REMARK  Name = ZINC01376454
REMARK  4 active torsions:
REMARK  status: ('A' for Active; 'I' for Inactive)
REMARK    1  A    between atoms: C_7  and  S_17
REMARK    2  A    between atoms: C_9  and  C_11
REMARK    3  A    between atoms: S_17  and  C_18
REMARK    4  A    between atoms: C_18  and  C_19
REMARK                            x       y       z     vdW  Elec       q    Type
REMARK                         _______ _______ _______ _____ _____    ______ ____
ROOT
ATOM      1  C   UNL     1      -2.061  -6.851  -0.033  0.00  0.00    +0.001 A 
ATOM      2  C   UNL     1      -3.380  -7.297  -0.023  0.00  0.00    +0.002 A 
ATOM      3  C   UNL     1      -4.419  -6.415   0.008  0.00  0.00    +0.028 A 
ATOM      4  C   UNL     1      -4.158  -5.038   0.014  0.00  0.00    +0.076 A 
ATOM      5  C   UNL     1      -2.816  -4.587  -0.002  0.00  0.00    +0.032 A 
ATOM      6  C   UNL     1      -1.772  -5.518  -0.023  0.00  0.00    +0.012 A 
ATOM      7  C   UNL     1      -2.579  -3.190   0.010  0.00  0.00    +0.109 A 
ATOM      8  N   UNL     1      -3.628  -2.377   0.024  0.00  0.00    -0.225 NA
ATOM      9  C   UNL     1      -4.866  -2.846   0.033  0.00  0.00    +0.134 A 
ATOM     10  N   UNL     1      -5.144  -4.128   0.028  0.00  0.00    -0.232 NA
ENDROOT
BRANCH   9  11
ATOM     11  C   UNL     1      -6.007  -1.862   0.050  0.00  0.00    +0.057 C 
ATOM     12  C   UNL     1      -5.935  -0.976  -1.195  0.00  0.00    +0.011 C 
ATOM     13  C   UNL     1      -7.094   0.023  -1.178  0.00  0.00    +0.001 C 
ATOM     14  C   UNL     1      -6.998   0.895   0.075  0.00  0.00    +0.000 C 
ATOM     15  C   UNL     1      -7.070   0.008   1.320  0.00  0.00    +0.001 C 
ATOM     16  C   UNL     1      -5.911  -0.991   1.303  0.00  0.00    +0.011 C 
ENDBRANCH   9  11
BRANCH   7  17
ATOM     17  S   UNL     1      -0.938  -2.550  -0.003  0.00  0.00    -0.096 S 
BRANCH  17  18
ATOM     18  C   UNL     1      -1.293  -0.775   0.010  0.00  0.00    +0.172 C 
BRANCH  18  19
ATOM     19  C   UNL     1       0.002  -0.004   0.002  0.00  0.00    +0.230 C 
ATOM     20  O   UNL     1       1.061  -0.596  -0.011  0.00  0.00    -0.274 OA
ATOM     21  N   UNL     1      -0.016   1.344   0.009  0.00  0.00    -0.260 N 
ATOM     22  C   UNL     1      -1.286   2.085   0.019  0.00  0.00    +0.209 C 
ATOM     23  C   UNL     1      -1.185   3.253  -0.922  0.00  0.00    +0.235 C 
ATOM     24  O   UNL     1      -2.184   3.669  -1.469  0.00  0.00    -0.274 OA
ATOM     25  N   UNL     1       0.001   3.841  -1.168  0.00  0.00    -0.283 N 
ATOM     26  C   UNL     1       1.176   3.349  -0.589  0.00  0.00    +0.055 A 
ATOM     27  C   UNL     1       1.176   2.084   0.002  0.00  0.00    +0.058 A 
ATOM     28  C   UNL     1       2.333   1.580   0.567  0.00  0.00    +0.025 A 
ATOM     29  C   UNL     1       3.492   2.337   0.548  0.00  0.00    +0.002 A 
ATOM     30  C   UNL     1       3.494   3.591  -0.033  0.00  0.00    +0.002 A 
ATOM     31  C   UNL     1       2.340   4.100  -0.601  0.00  0.00    +0.025 A 
ATOM     32  H   UNL     1       0.042   4.613  -1.753  0.00  0.00    +0.155 HD
ENDBRANCH  18  19
ENDBRANCH  17  18
ENDBRANCH   7  17
TORSDOF 4
