REMARK  Name = ZINC39481127
REMARK  7 active torsions:
REMARK  status: ('A' for Active; 'I' for Inactive)
REMARK    1  A    between atoms: C_1  and  C_2
REMARK    2  A    between atoms: C_2  and  C_3
REMARK    3  A    between atoms: C_6  and  N_17
REMARK    4  A    between atoms: C_7  and  N_9
REMARK    5  A    between atoms: N_17  and  S_18
REMARK    6  A    between atoms: S_18  and  C_21
REMARK    7  A    between atoms: C_26  and  O_27
REMARK                            x       y       z     vdW  Elec       q    Type
REMARK                         _______ _______ _______ _____ _____    ______ ____
ROOT
ATOM      1  C   UNL     1      -2.159   0.501  -0.228  0.00  0.00    -0.046 A 
ATOM      2  C   UNL     1      -2.580   0.068   1.015  0.00  0.00    +0.005 A 
ATOM      3  C   UNL     1      -3.724  -0.699   1.134  0.00  0.00    +0.026 A 
ATOM      4  C   UNL     1      -4.452  -1.038   0.003  0.00  0.00    +0.069 A 
ATOM      5  C   UNL     1      -4.027  -0.601  -1.252  0.00  0.00    +0.053 A 
ATOM      6  C   UNL     1      -2.881   0.172  -1.361  0.00  0.00    +0.028 A 
ENDROOT
BRANCH   5   7
ATOM      7  N   UNL     1      -4.757  -0.940  -2.397  0.00  0.00    -0.330 N 
ATOM      8  C   UNL     1      -5.838  -0.072  -2.889  0.00  0.00    +0.086 C 
ATOM      9  C   UNL     1      -7.086  -0.931  -3.116  0.00  0.00    -0.060 C 
ATOM     10  N   UNL     1      -6.754  -2.049  -4.008  0.00  0.00    +0.400 N 
ATOM     11  C   UNL     1      -5.778  -2.934  -3.358  0.00  0.00    +0.119 C 
ATOM     12  C   UNL     1      -4.461  -2.171  -3.147  0.00  0.00    +0.120 C 
ATOM     13  O   UNL     1      -5.539  -4.072  -4.189  0.00  0.00    -0.250 OA
ATOM     14  H   UNL     1      -7.591  -2.571  -4.218  0.00  0.00    -0.082 HD
ATOM     15  H   UNL     1      -6.361  -1.689  -4.865  0.00  0.00    -0.082 HD
ENDBRANCH   5   7
BRANCH   1  17
ATOM     16  C   UNL     1      -1.277   2.818  -0.235  0.00  0.00    +0.009 C 
ATOM     17  C   UNL     1      -0.911   1.337  -0.350  0.00  0.00    +0.032 C 
ENDBRANCH   1  17
BRANCH   4  18
ATOM     18  N   UNL     1      -5.610  -1.815   0.120  0.00  0.00    -0.214 N 
ATOM     19  H   UNL     1      -5.834  -2.460  -0.569  0.00  0.00    +0.174 HD
BRANCH  18  20
ATOM     20  S   UNL     1      -6.599  -1.635   1.437  0.00  0.00    +0.076 S 
ATOM     21  O   UNL     1      -6.777  -0.237   1.622  0.00  0.00    -0.150 OA
ATOM     22  O   UNL     1      -7.692  -2.524   1.249  0.00  0.00    -0.150 OA
BRANCH  20  23
ATOM     23  C   UNL     1      -5.710  -2.220   2.841  0.00  0.00    +0.150 A 
ATOM     24  C   UNL     1      -5.386  -1.351   3.865  0.00  0.00    +0.032 A 
ATOM     25  C   UNL     1      -4.688  -1.809   4.967  0.00  0.00    +0.002 A 
ATOM     26  C   UNL     1      -4.312  -3.138   5.047  0.00  0.00    +0.004 A 
ATOM     27  C   UNL     1      -4.633  -4.010   4.025  0.00  0.00    +0.047 A 
ATOM     28  C   UNL     1      -5.338  -3.554   2.921  0.00  0.00    +0.143 A 
BRANCH  28  29
ATOM     29  O   UNL     1      -5.661  -4.412   1.917  0.00  0.00    -0.505 OA
ATOM     30  H   UNL     1      -4.984  -4.486   1.231  0.00  0.00    +0.292 HD
ENDBRANCH  28  29
ENDBRANCH  20  23
ENDBRANCH  18  20
ENDBRANCH   4  18
TORSDOF 6
