REMARK  Name = ZINC64717885
REMARK  8 active torsions:
REMARK  status: ('A' for Active; 'I' for Inactive)
REMARK    1  A    between atoms: N_9  and  C_14
REMARK    2  A    between atoms: C_10  and  O_13
REMARK    3  A    between atoms: C_14  and  C_15
REMARK    4  A    between atoms: C_15  and  C_16
REMARK    5  A    between atoms: C_16  and  C_17
REMARK    6  A    between atoms: N_19  and  C_20
REMARK    7  A    between atoms: C_20  and  C_21
REMARK    8  A    between atoms: C_21  and  C_22
REMARK                            x       y       z     vdW  Elec       q    Type
REMARK                         _______ _______ _______ _____ _____    ______ ____
ROOT
ATOM      1  C   UNL     1       2.326  -6.337  -1.500  0.00  0.00    +0.097 C 
ENDROOT
BRANCH   1   2
ATOM      2  C   UNL     1       1.972  -6.938  -2.836  0.00  0.00    +0.213 C 
ATOM      3  O   UNL     1       1.665  -6.218  -3.762  0.00  0.00    -0.276 OA
ATOM      4  N   UNL     1       1.998  -8.276  -3.001  0.00  0.00    -0.315 N 
ATOM      5  H   UNL     1       2.244  -8.851  -2.260  0.00  0.00    +0.149 HD
BRANCH   4   6
ATOM      6  C   UNL     1       1.654  -8.860  -4.300  0.00  0.00    +0.108 C 
BRANCH   6   7
ATOM      7  C   UNL     1       1.761 -10.384  -4.218  0.00  0.00    +0.052 C 
BRANCH   7   8
ATOM      8  C   UNL     1       1.407 -10.985  -5.553  0.00  0.00    -0.040 C 
ATOM      9  C   UNL     1       2.265 -11.344  -6.536  0.00  0.00    +0.002 A 
ATOM     10  C   UNL     1       3.727 -11.284  -6.651  0.00  0.00    +0.048 A 
ATOM     11  C   UNL     1       4.315 -11.728  -7.787  0.00  0.00    +0.124 A 
ATOM     12  C   UNL     1       3.562 -12.243  -8.854  0.00  0.00    +0.040 A 
ATOM     13  C   UNL     1       2.216 -12.329  -8.821  0.00  0.00    +0.029 A 
ATOM     14  C   UNL     1       1.495 -11.892  -7.676  0.00  0.00    +0.043 A 
ATOM     15  N   UNL     1       0.212 -11.872  -7.408  0.00  0.00    -0.380 N 
ATOM     16  C   UNL     1       0.023 -11.315  -6.064  0.00  0.00    +0.144 C 
ATOM     17  F   UNL     1       5.660 -11.674  -7.896  0.00  0.00    -0.205 F 
ATOM     18  H   UNL     1      -0.495 -12.178  -7.998  0.00  0.00    +0.160 HD
ENDBRANCH   7   8
ENDBRANCH   6   7
ENDBRANCH   4   6
ENDBRANCH   1   2
BRANCH   1  19
ATOM     19  C   UNL     1       2.219  -4.813  -1.582  0.00  0.00    +0.028 C 
BRANCH  19  20
ATOM     20  C   UNL     1       2.578  -4.203  -0.226  0.00  0.00    +0.112 C 
BRANCH  20  29
ATOM     21  C   UNL     1      -0.017   1.375   0.010  0.00  0.00    +0.001 A 
ATOM     22  C   UNL     1       1.168   2.095   0.002  0.00  0.00    +0.002 A 
ATOM     23  C   UNL     1       2.386   1.444  -0.015  0.00  0.00    +0.024 A 
ATOM     24  C   UNL     1       2.422   0.060  -0.024  0.00  0.00    +0.042 A 
ATOM     25  C   UNL     1       1.223  -0.674  -0.013  0.00  0.00    +0.058 A 
ATOM     26  C   UNL     1       0.002  -0.004   0.002  0.00  0.00    +0.015 A 
ATOM     27  C   UNL     1       1.301  -2.146  -0.013  0.00  0.00    +0.251 C 
ATOM     28  O   UNL     1       0.318  -2.814   0.246  0.00  0.00    -0.270 OA
ATOM     29  N   UNL     1       2.475  -2.744  -0.304  0.00  0.00    -0.256 N 
ATOM     30  C   UNL     1       3.647  -1.961  -0.696  0.00  0.00    +0.299 C 
ATOM     31  N   UNL     1       3.620  -0.645  -0.047  0.00  0.00    -0.303 N 
ATOM     32  H   UNL     1       4.421  -0.275   0.357  0.00  0.00    +0.150 HD
BRANCH  30  33
ATOM     33  O   UNL     1       3.646  -1.786  -2.114  0.00  0.00    -0.359 OA
ATOM     34  H   UNL     1       4.397  -1.275  -2.448  0.00  0.00    +0.213 HD
ENDBRANCH  30  33
ENDBRANCH  20  29
ENDBRANCH  19  20
ENDBRANCH   1  19
TORSDOF 8
