REMARK  Name = ZINC03359783
REMARK  11 active torsions:
REMARK  status: ('A' for Active; 'I' for Inactive)
REMARK    1  A    between atoms: C_1  and  C_2
REMARK    2  A    between atoms: C_2  and  C_3
REMARK    3  A    between atoms: C_2  and  C_4
REMARK    4  A    between atoms: C_9  and  N_10
REMARK    5  A    between atoms: C_20  and  S_21
REMARK    6  A    between atoms: S_21  and  C_22
REMARK    7  A    between atoms: C_22  and  C_23
REMARK    8  A    between atoms: C_23  and  C_25
REMARK    9  A    between atoms: C_26  and  N_35
REMARK   10  A    between atoms: N_27  and  C_34
REMARK   11  A    between atoms: N_30  and  C_33
REMARK                            x       y       z     vdW  Elec       q    Type
REMARK                         _______ _______ _______ _____ _____    ______ ____
ROOT
ATOM      1  N   UNL     1      -2.518   3.727   0.044  0.00  0.00    -0.255 N 
ATOM      2  C   UNL     1      -3.126   4.041  -1.123  0.00  0.00    +0.267 A 
ATOM      3  O   UNL     1      -2.626   3.750  -2.194  0.00  0.00    -0.267 OA
ATOM      4  C   UNL     1      -4.415   4.742  -1.050  0.00  0.00    +0.065 A 
ATOM      5  C   UNL     1      -5.122   5.105  -2.196  0.00  0.00    +0.015 A 
ATOM      6  C   UNL     1      -6.315   5.762  -2.071  0.00  0.00    +0.001 A 
ATOM      7  C   UNL     1      -6.828   6.071  -0.818  0.00  0.00    +0.002 A 
ATOM      8  C   UNL     1      -6.157   5.727   0.321  0.00  0.00    +0.028 A 
ATOM      9  C   UNL     1      -4.934   5.054   0.227  0.00  0.00    +0.079 A 
ATOM     10  N   UNL     1      -4.236   4.696   1.329  0.00  0.00    -0.223 NA
ATOM     11  C   UNL     1      -3.090   4.066   1.239  0.00  0.00    +0.177 A 
ENDROOT
BRANCH   1  17
ATOM     12  C   UNL     1      -0.102   3.773  -0.003  0.00  0.00    -0.021 A 
ATOM     13  C   UNL     1       1.107   3.107  -0.018  0.00  0.00    +0.006 A 
ATOM     14  C   UNL     1       1.137   1.724  -0.004  0.00  0.00    +0.000 A 
ATOM     15  C   UNL     1      -0.044   1.005   0.026  0.00  0.00    +0.002 A 
ATOM     16  C   UNL     1      -1.256   1.665   0.037  0.00  0.00    +0.026 A 
ATOM     17  C   UNL     1      -1.289   3.054   0.028  0.00  0.00    +0.055 A 
BRANCH  12  19
ATOM     18  C   UNL     1       0.600   5.818   1.212  0.00  0.00    +0.012 C 
ATOM     19  C   UNL     1      -0.134   5.280  -0.018  0.00  0.00    +0.015 C 
ATOM     20  C   UNL     1       0.553   5.791  -1.286  0.00  0.00    +0.012 C 
ENDBRANCH  12  19
ENDBRANCH   1  17
BRANCH  11  21
ATOM     21  S   UNL     1      -2.248   3.637   2.726  0.00  0.00    -0.079 S 
BRANCH  21  22
ATOM     22  C   UNL     1      -3.409   4.298   3.947  0.00  0.00    +0.157 C 
BRANCH  22  23
ATOM     23  C   UNL     1      -2.881   4.039   5.334  0.00  0.00    +0.182 C 
ATOM     24  O   UNL     1      -1.822   3.463   5.483  0.00  0.00    -0.291 OA
BRANCH  23  25
ATOM     25  C   UNL     1      -3.616   4.466   6.461  0.00  0.00    +0.120 A 
ATOM     26  C   UNL     1      -3.208   4.130   7.763  0.00  0.00    +0.116 A 
ATOM     27  N   UNL     1      -3.950   4.571   8.822  0.00  0.00    -0.284 N 
ATOM     28  C   UNL     1      -5.059   5.305   8.639  0.00  0.00    +0.333 A 
ATOM     29  O   UNL     1      -5.687   5.669   9.614  0.00  0.00    -0.246 OA
ATOM     30  N   UNL     1      -5.500   5.652   7.419  0.00  0.00    -0.263 N 
ATOM     31  C   UNL     1      -4.835   5.270   6.309  0.00  0.00    +0.269 A 
ATOM     32  O   UNL     1      -5.238   5.586   5.205  0.00  0.00    -0.267 OA
ATOM     33  C   UNL     1      -6.719   6.455   7.293  0.00  0.00    +0.157 C 
ATOM     34  C   UNL     1      -3.530   4.231  10.184  0.00  0.00    +0.155 C 
BRANCH  26  35
ATOM     35  N   UNL     1      -2.090   3.382   7.966  0.00  0.00    -0.344 N 
ATOM     36  H   UNL     1      -1.523   3.144   7.216  0.00  0.00    +0.144 HD
ATOM     37  H   UNL     1      -1.859   3.087   8.861  0.00  0.00    +0.144 HD
ENDBRANCH  26  35
ENDBRANCH  23  25
ENDBRANCH  22  23
ENDBRANCH  21  22
ENDBRANCH  11  21
TORSDOF 7
