REMARK  Name = ZINC43402102
REMARK  8 active torsions:
REMARK  status: ('A' for Active; 'I' for Inactive)
REMARK    1  A    between atoms: C_1  and  C_2
REMARK    2  A    between atoms: C_2  and  C_3
REMARK    3  A    between atoms: N_9  and  C_10
REMARK    4  A    between atoms: C_10  and  C_11
REMARK    5  A    between atoms: C_13  and  C_16
REMARK    6  A    between atoms: C_16  and  C_17
REMARK    7  A    between atoms: C_16  and  C_18
REMARK    8  A    between atoms: C_16  and  N_19
REMARK                            x       y       z     vdW  Elec       q    Type
REMARK                         _______ _______ _______ _____ _____    ______ ____
ROOT
ATOM      1  C   UNL     1      -1.261   1.312   3.778  0.00  0.00    +0.241 A 
ATOM      2  N   UNL     1      -0.908   1.458   5.025  0.00  0.00    -0.196 NA
ATOM      3  C   UNL     1      -1.990   1.641   5.790  0.00  0.00    +0.160 A 
ATOM      4  N   UNL     1      -3.050   1.613   5.035  0.00  0.00    -0.063 NA
ATOM      5  O   UNL     1      -2.595   1.404   3.706  0.00  0.00    -0.337 OA
ENDROOT
BRANCH   3   6
ATOM      6  C   UNL     1      -1.983   1.845   7.283  0.00  0.00    -0.012 C 
ATOM      7  C   UNL     1      -3.420   2.017   7.781  0.00  0.00    -0.003 C 
ATOM      8  C   UNL     1      -1.350   0.628   7.961  0.00  0.00    -0.003 C 
BRANCH   6   9
ATOM      9  N   UNL     1      -1.205   3.048   7.609  0.00  0.00    +0.386 N 
ATOM     10  H   UNL     1      -1.622   3.850   7.162  0.00  0.00    -0.089 HD
ATOM     11  H   UNL     1      -1.200   3.184   8.609  0.00  0.00    -0.089 HD
ATOM     12  H   UNL     1      -0.258   2.934   7.281  0.00  0.00    -0.089 HD
ENDBRANCH   6   9
ENDBRANCH   3   6
BRANCH   1  13
ATOM     13  C   UNL     1      -0.328   1.085   2.617  0.00  0.00    +0.183 C 
BRANCH  13  19
ATOM     14  C   UNL     1       0.589  -0.626   1.168  0.00  0.00    +0.083 C 
ATOM     15  C   UNL     1       0.724  -2.139   0.977  0.00  0.00    +0.178 C 
ATOM     16  O   UNL     1       1.389  -2.701   2.111  0.00  0.00    -0.377 OA
ATOM     17  C   UNL     1       0.717  -2.459   3.351  0.00  0.00    +0.175 C 
ATOM     18  C   UNL     1       0.582  -0.950   3.566  0.00  0.00    +0.113 C 
ATOM     19  N   UNL     1      -0.128  -0.357   2.423  0.00  0.00    -0.287 NA
BRANCH  14  21
ATOM     20  C   UNL     1       0.590  -0.247  -1.301  0.00  0.00    +0.005 C 
ATOM     21  C   UNL     1      -0.192  -0.030  -0.004  0.00  0.00    +0.018 C 
ENDBRANCH  14  21
ENDBRANCH  13  19
ENDBRANCH   1  13
TORSDOF 5
