REMARK  Name = ZINC63840269
REMARK  7 active torsions:
REMARK  status: ('A' for Active; 'I' for Inactive)
REMARK    1  A    between atoms: C_1  and  C_2
REMARK    2  A    between atoms: C_5  and  N_24
REMARK    3  A    between atoms: C_7  and  C_8
REMARK    4  A    between atoms: N_10  and  C_11
REMARK    5  A    between atoms: C_14  and  S_17
REMARK    6  A    between atoms: S_17  and  C_18
REMARK    7  A    between atoms: N_22  and  C_23
REMARK                            x       y       z     vdW  Elec       q    Type
REMARK                         _______ _______ _______ _____ _____    ______ ____
ROOT
ATOM      1  C   UNL     1       0.928  -0.338   2.664  0.00  0.00    +0.249 C 
ATOM      2  O   UNL     1       1.448   0.759   2.734  0.00  0.00    -0.270 OA
ATOM      3  N   UNL     1       0.440  -0.924   3.776  0.00  0.00    -0.281 N 
ATOM      4  H   UNL     1       0.094  -1.829   3.734  0.00  0.00    +0.155 HD
ENDROOT
BRANCH   1  11
ATOM      5  C   UNL     1       1.716   1.047   0.249  0.00  0.00    +0.044 C 
ATOM      6  C   UNL     1       1.209  -0.371   0.190  0.00  0.00    -0.038 A 
ATOM      7  C   UNL     1       1.122  -1.023  -1.023  0.00  0.00    +0.006 A 
ATOM      8  C   UNL     1       0.656  -2.325  -1.080  0.00  0.00    +0.033 A 
ATOM      9  C   UNL     1       0.275  -2.981   0.078  0.00  0.00    +0.127 A 
ATOM     10  C   UNL     1       0.358  -2.340   1.296  0.00  0.00    +0.046 A 
ATOM     11  C   UNL     1       0.832  -1.028   1.361  0.00  0.00    +0.042 A 
BRANCH   9  12
ATOM     12  N   UNL     1      -0.222  -4.373   0.007  0.00  0.00    +0.056 N 
ATOM     13  O   UNL     1      -0.295  -4.936  -1.060  0.00  0.00    -0.126 OA
ATOM     14  O   UNL     1      -0.555  -4.948   1.018  0.00  0.00    -0.126 OA
ENDBRANCH   9  12
ENDBRANCH   1  11
BRANCH   3  15
ATOM     15  C   UNL     1       0.433  -0.226   4.990  0.00  0.00    +0.034 A 
ATOM     16  C   UNL     1       0.229   1.148   5.000  0.00  0.00    +0.024 A 
ATOM     17  C   UNL     1       0.222   1.835   6.197  0.00  0.00    +0.017 A 
ATOM     18  C   UNL     1       0.419   1.153   7.391  0.00  0.00    +0.016 A 
ATOM     19  C   UNL     1       0.623  -0.221   7.381  0.00  0.00    +0.017 A 
ATOM     20  C   UNL     1       0.625  -0.909   6.184  0.00  0.00    +0.024 A 
BRANCH  18  21
ATOM     21  S   UNL     1       0.411   2.031   8.919  0.00  0.00    -0.050 S 
BRANCH  21  22
ATOM     22  C   UNL     1      -1.267   1.947   9.450  0.00  0.00    +0.196 A 
ATOM     23  N   UNL     1      -2.240   1.289   8.863  0.00  0.00    -0.122 NA
ATOM     24  N   UNL     1      -3.333   1.447   9.520  0.00  0.00    -0.137 NA
ATOM     25  C   UNL     1      -3.125   2.209  10.557  0.00  0.00    +0.225 A 
ATOM     26  N   UNL     1      -1.801   2.550  10.553  0.00  0.00    -0.311 N 
ATOM     27  C   UNL     1      -1.101   3.390  11.528  0.00  0.00    +0.152 C 
ENDBRANCH  21  22
ENDBRANCH  18  21
ENDBRANCH   3  15
TORSDOF 5
