REMARK  Name = ZINC40560378
REMARK  6 active torsions:
REMARK  status: ('A' for Active; 'I' for Inactive)
REMARK    1  A    between atoms: CG1_1  and  CB_2
REMARK    2  A    between atoms: CB_2  and  CG2_3
REMARK    3  A    between atoms: CB_2  and  CA_4
REMARK    4  A    between atoms: CA_4  and  C_6
REMARK    5  A    between atoms: CA_4  and  N_9
REMARK    6  A    between atoms: N_12  and  C_13
REMARK                            x       y       z     vdW  Elec       q    Type
REMARK                         _______ _______ _______ _____ _____    ______ ____
ROOT
ATOM      1  N   VAL A   1      -1.506  -0.158  -2.350  0.00  0.00    -0.286 N 
ATOM      2  C   UNK A   0      -2.494  -0.975  -2.768  0.00  0.00    +0.305 C 
ATOM      3  O   UNK A   0      -2.241  -2.121  -3.086  0.00  0.00    -0.252 OA
ATOM      4  N   UNK A   0      -3.761  -0.522  -2.833  0.00  0.00    -0.266 N 
ATOM      5  H   VAL A   1      -1.708   0.756  -2.096  0.00  0.00    +0.151 HD
ATOM      6  H   UNK A   0      -3.975   0.368  -2.511  0.00  0.00    +0.156 HD
ENDROOT
BRANCH   4   7
ATOM      7  C   UNK A   0      -4.771  -1.336  -3.366  0.00  0.00    +0.084 A 
ATOM      8  C   UNK A   0      -5.429  -2.252  -2.552  0.00  0.00    +0.148 A 
ATOM      9  C   UNK A   0      -6.424  -3.053  -3.080  0.00  0.00    +0.078 A 
ATOM     10  C   UNK A   0      -6.766  -2.944  -4.418  0.00  0.00    +0.127 A 
ATOM     11  C   UNK A   0      -6.111  -2.033  -5.230  0.00  0.00    +0.055 A 
ATOM     12  C   UNK A   0      -5.119  -1.226  -4.705  0.00  0.00    +0.045 A 
ATOM     13 BR   UNK A   0      -4.232   0.024  -5.813  0.00  0.00    -0.048 Br
ATOM     14  F   UNK A   0      -7.738  -3.728  -4.932  0.00  0.00    -0.205 F 
ATOM     15  F   UNK A   0      -5.096  -2.358  -1.247  0.00  0.00    -0.203 F 
ENDBRANCH   4   7
BRANCH   1  16
ATOM     16  CA  VAL A   1      -0.129  -0.651  -2.279  0.00  0.00    +0.190 C 
BRANCH  16  18
ATOM     17  CG1 VAL A   1       0.677   1.446  -1.186  0.00  0.00    +0.009 C 
ATOM     18  CB  VAL A   1       0.841   0.526  -2.398  0.00  0.00    +0.014 C 
ATOM     19  CG2 VAL A   1       2.277   0.001  -2.449  0.00  0.00    +0.009 C 
ENDBRANCH  16  18
BRANCH  16  20
ATOM     20  C   VAL A   1       0.088  -1.350  -0.962  0.00  0.00    +0.376 C 
ATOM     21  O   VAL A   1      -0.538  -0.999   0.024  0.00  0.00    -0.244 OA
ATOM     22  OXT VAL A   1       0.889  -2.265  -0.881  0.00  0.00    -0.244 OA
ENDBRANCH  16  20
ENDBRANCH   1  16
TORSDOF 4
