REMARK  Name = ZINC39684246
REMARK  6 active torsions:
REMARK  status: ('A' for Active; 'I' for Inactive)
REMARK    1  A    between atoms: C_1  and  C_2
REMARK    2  A    between atoms: C_7  and  C_11
REMARK    3  A    between atoms: C_11  and  C_12
REMARK    4  A    between atoms: C_12  and  N_13
REMARK    5  A    between atoms: C_14  and  C_16
REMARK    6  A    between atoms: C_27  and  C_29
REMARK                            x       y       z     vdW  Elec       q    Type
REMARK                         _______ _______ _______ _____ _____    ______ ____
ROOT
ATOM      1  C   UNL     1      -8.671   1.726  -6.210  0.00  0.00    +0.100 C 
ATOM      2  C   UNL     1      -8.195   2.854  -7.153  0.00  0.00    +0.121 C 
ATOM      3  N   UNL     1      -7.812   2.158  -8.404  0.00  0.00    -0.295 N 
ATOM      4  C   UNL     1      -8.844   1.106  -8.572  0.00  0.00    +0.115 C 
ATOM      5  C   UNL     1      -9.100   0.583  -7.145  0.00  0.00    -0.004 C 
ATOM      6  C   UNL     1     -10.581   0.271  -6.954  0.00  0.00    -0.010 C 
ATOM      7  C   UNL     1     -10.969  -0.907  -7.851  0.00  0.00    -0.082 C 
ATOM      8  N   UNL     1     -10.153  -2.078  -7.506  0.00  0.00    +0.379 N 
ATOM      9  C   UNL     1      -8.739  -1.801  -7.781  0.00  0.00    -0.082 C 
ATOM     10  C   UNL     1      -8.255  -0.660  -6.880  0.00  0.00    -0.010 C 
ATOM     11  C   UNL     1      -6.763   2.421  -9.208  0.00  0.00    +0.265 C 
ATOM     12  O   UNL     1      -5.943   3.257  -8.883  0.00  0.00    -0.268 OA
ATOM     13  H   UNL     1     -10.269  -2.290  -6.526  0.00  0.00    -0.086 HD
ATOM     14  H   UNL     1     -10.453  -2.869  -8.056  0.00  0.00    -0.086 HD
ENDROOT
BRANCH  11  15
ATOM     15  C   UNL     1      -6.610   1.692 -10.490  0.00  0.00    +0.126 A 
ATOM     16  C   UNL     1      -5.453   1.892 -11.258  0.00  0.00    +0.033 A 
ATOM     17  C   UNL     1      -5.300   1.226 -12.440  0.00  0.00    +0.012 A 
ATOM     18  C   UNL     1      -6.323   0.350 -12.849  0.00  0.00    +0.000 A 
ATOM     19  C   UNL     1      -6.230  -0.367 -14.052  0.00  0.00    +0.010 A 
ATOM     20  C   UNL     1      -7.239  -1.206 -14.415  0.00  0.00    +0.001 A 
ATOM     21  C   UNL     1      -8.366  -1.363 -13.608  0.00  0.00    +0.002 A 
ATOM     22  C   UNL     1      -8.490  -0.685 -12.436  0.00  0.00    +0.028 A 
ATOM     23  C   UNL     1      -7.468   0.192 -12.025  0.00  0.00    +0.072 A 
ATOM     24  N   UNL     1      -7.561   0.865 -10.879  0.00  0.00    -0.242 NA
ENDBRANCH  11  15
BRANCH   1  26
ATOM     25  N   UNL     1      -7.807   0.809  -4.081  0.00  0.00    -0.315 N 
ATOM     26  C   UNL     1      -7.543   1.279  -5.316  0.00  0.00    +0.218 C 
ATOM     27  O   UNL     1      -6.397   1.341  -5.709  0.00  0.00    -0.275 OA
ATOM     28  H   UNL     1      -8.723   0.760  -3.767  0.00  0.00    +0.149 HD
BRANCH  25  29
ATOM     29  C   UNL     1      -6.710   0.374  -3.212  0.00  0.00    +0.109 C 
BRANCH  29  30
ATOM     30  C   UNL     1      -7.279  -0.110  -1.877  0.00  0.00    +0.056 C 
BRANCH  30  37
ATOM     31  C   UNL     1      -2.512  -0.930   2.114  0.00  0.00    +0.046 C 
ATOM     32  C   UNL     1      -3.506  -0.030   1.427  0.00  0.00    -0.027 A 
ATOM     33  C   UNL     1      -3.512   1.323   1.691  0.00  0.00    +0.005 A 
ATOM     34  C   UNL     1      -4.423   2.162   1.065  0.00  0.00    +0.001 A 
ATOM     35  C   UNL     1      -5.330   1.661   0.174  0.00  0.00    +0.010 A 
ATOM     36  C   UNL     1      -5.341   0.295  -0.109  0.00  0.00    +0.003 A 
ATOM     37  C   UNL     1      -6.151  -0.557  -0.984  0.00  0.00    -0.021 A 
ATOM     38  C   UNL     1      -5.697  -1.812  -0.839  0.00  0.00    +0.087 A 
ATOM     39  N   UNL     1      -4.663  -1.834   0.058  0.00  0.00    -0.360 N 
ATOM     40  C   UNL     1      -4.417  -0.560   0.519  0.00  0.00    +0.050 A 
ATOM     41  H   UNL     1      -4.175  -2.628   0.326  0.00  0.00    +0.165 HD
ENDBRANCH  30  37
ENDBRANCH  29  30
ENDBRANCH  25  29
ENDBRANCH   1  26
TORSDOF 5
