REMARK  Name = ZINC08411444
REMARK  7 active torsions:
REMARK  status: ('A' for Active; 'I' for Inactive)
REMARK    1  A    between atoms: C_4  and  C_7
REMARK    2  A    between atoms: C_7  and  N_8
REMARK    3  A    between atoms: C_15  and  C_27
REMARK    4  A    between atoms: C_17  and  C_23
REMARK    5  A    between atoms: C_17  and  C_25
REMARK    6  A    between atoms: C_18  and  N_22
REMARK    7  A    between atoms: C_19  and  C_20
REMARK                            x       y       z     vdW  Elec       q    Type
REMARK                         _______ _______ _______ _____ _____    ______ ____
ROOT
ATOM      1  N   UNL     1       4.198  -0.738   1.647  0.00  0.00    -0.294 NA
ATOM      2  C   UNL     1       4.551   0.434   2.467  0.00  0.00    +0.112 C 
ATOM      3  C   UNL     1       4.811  -0.053   3.872  0.00  0.00    -0.006 C 
ATOM      4  C   UNL     1       5.339  -1.247   4.067  0.00  0.00    -0.026 C 
ATOM      5  C   UNL     1       5.754  -2.151   2.943  0.00  0.00    +0.044 C 
ATOM      6  C   UNL     1       5.331  -1.665   1.576  0.00  0.00    +0.094 C 
ATOM      7  C   UNL     1       5.228  -3.556   3.244  0.00  0.00    +0.067 C 
ATOM      8  C   UNL     1       5.888  -4.068   4.524  0.00  0.00    +0.188 C 
ATOM      9  C   UNL     1       5.784  -3.074   5.641  0.00  0.00    +0.054 C 
ATOM     10  C   UNL     1       5.540  -1.752   5.449  0.00  0.00    +0.074 C 
ENDROOT
BRANCH   7  11
ATOM     11  C   UNL     1       3.733  -3.506   3.428  0.00  0.00    -0.040 A 
ATOM     12  C   UNL     1       2.897  -3.716   2.348  0.00  0.00    +0.004 A 
ATOM     13  C   UNL     1       1.525  -3.671   2.516  0.00  0.00    +0.001 A 
ATOM     14  C   UNL     1       0.990  -3.416   3.765  0.00  0.00    +0.015 A 
ATOM     15  C   UNL     1       1.827  -3.206   4.846  0.00  0.00    +0.018 A 
ATOM     16  C   UNL     1       3.200  -3.257   4.678  0.00  0.00    +0.019 A 
ATOM     17 BR   UNL     1       1.096  -2.856   6.554  0.00  0.00    -0.050 Br
ENDBRANCH   7  11
BRANCH   9  18
ATOM     18  N   UNL     1       5.942  -3.522   6.922  0.00  0.00    -0.358 N 
ATOM     19  H   UNL     1       6.117  -4.461   7.089  0.00  0.00    +0.142 HD
ATOM     20  H   UNL     1       5.880  -2.900   7.665  0.00  0.00    +0.142 HD
ENDBRANCH   9  18
BRANCH  10  21
ATOM     21  C   UNL     1       5.479  -0.856   6.564  0.00  0.00    +0.101 C 
ATOM     22  N   UNL     1       5.430  -0.145   7.449  0.00  0.00    -0.191 NA
ENDBRANCH  10  21
BRANCH   8  23
ATOM     23  C   UNL     1       5.232  -5.320   4.934  0.00  0.00    +0.091 C 
ATOM     24  N   UNL     1       4.725  -6.286   5.251  0.00  0.00    -0.194 NA
ENDBRANCH   8  23
BRANCH   8  25
ATOM     25  C   UNL     1       7.310  -4.340   4.256  0.00  0.00    +0.091 C 
ATOM     26  N   UNL     1       8.407  -4.549   4.048  0.00  0.00    -0.194 NA
ENDBRANCH   8  25
BRANCH   1  27
ATOM     27  C   UNL     1       3.766  -0.331   0.304  0.00  0.00    +0.120 C 
BRANCH  27  31
ATOM     28  C   UNL     1       0.067   1.789   0.577  0.00  0.00    +0.000 A 
ATOM     29  C   UNL     1       1.264   2.475   0.654  0.00  0.00    +0.000 A 
ATOM     30  C   UNL     1       2.461   1.789   0.566  0.00  0.00    +0.005 A 
ATOM     31  C   UNL     1       2.461   0.417   0.401  0.00  0.00    -0.033 A 
ATOM     32  C   UNL     1       1.264  -0.270   0.325  0.00  0.00    +0.005 A 
ATOM     33  C   UNL     1       0.067   0.416   0.412  0.00  0.00    +0.000 A 
ENDBRANCH  27  31
ENDBRANCH   1  27
TORSDOF 7
