REMARK  Name = ZINC49538650
REMARK  6 active torsions:
REMARK  status: ('A' for Active; 'I' for Inactive)
REMARK    1  A    between atoms: C_1  and  C_2
REMARK    2  A    between atoms: C_2  and  C_4
REMARK    3  A    between atoms: C_2  and  N_11
REMARK    4  A    between atoms: C_8  and  N_10
REMARK    5  A    between atoms: C_13  and  N_18
REMARK    6  A    between atoms: N_18  and  C_19
REMARK                            x       y       z     vdW  Elec       q    Type
REMARK                         _______ _______ _______ _____ _____    ______ ____
ROOT
ATOM      1  N   UNL     1       0.711  -0.489   1.189  0.00  0.00    -0.274 NA
ATOM      2  C   UNL     1       1.769  -1.216   1.056  0.00  0.00    +0.114 C 
ATOM      3  C   UNL     1       2.751  -1.898   1.985  0.00  0.00    +0.198 C 
ATOM      4  C   UNL     1       2.998  -2.856   0.841  0.00  0.00    +0.230 C 
ATOM      5  O   UNL     1       3.377  -3.997   0.721  0.00  0.00    -0.286 OA
ATOM      6  C   UNL     1       2.562  -1.762  -0.076  0.00  0.00    +0.246 C 
ATOM      7  O   UNL     1       2.764  -1.457  -1.232  0.00  0.00    -0.282 OA
ENDROOT
BRANCH   1   9
ATOM      8  C   UNL     1      -0.019   1.526   0.010  0.00  0.00    +0.038 C 
ATOM      9  C   UNL     1       0.002  -0.004   0.002  0.00  0.00    +0.133 C 
BRANCH   9  10
ATOM     10  C   UNL     1      -1.412  -0.526   0.013  0.00  0.00    -0.022 A 
ATOM     11  C   UNL     1      -2.123  -0.571   1.198  0.00  0.00    +0.006 A 
ATOM     12  C   UNL     1      -3.420  -1.049   1.213  0.00  0.00    +0.002 A 
ATOM     13  C   UNL     1      -4.010  -1.483   0.042  0.00  0.00    +0.023 A 
ATOM     14  C   UNL     1      -3.300  -1.439  -1.150  0.00  0.00    +0.025 A 
ATOM     15  C   UNL     1      -1.998  -0.953  -1.162  0.00  0.00    +0.028 A 
BRANCH  14  16
ATOM     16  N   UNL     1      -3.894  -1.877  -2.336  0.00  0.00    -0.358 N 
ATOM     17  H   UNL     1      -4.804  -2.213  -2.327  0.00  0.00    +0.142 HD
ATOM     18  H   UNL     1      -3.396  -1.846  -3.168  0.00  0.00    +0.142 HD
ENDBRANCH  14  16
ENDBRANCH   9  10
ENDBRANCH   1   9
BRANCH   3  19
ATOM     19  N   UNL     1       3.911  -1.072   2.328  0.00  0.00    -0.329 N 
ATOM     20  H   UNL     1       4.197  -0.365   1.729  0.00  0.00    +0.147 HD
BRANCH  19  21
ATOM     21  C   UNL     1       4.604  -1.303   3.512  0.00  0.00    +0.031 A 
ATOM     22  C   UNL     1       4.212  -2.319   4.384  0.00  0.00    +0.040 A 
ATOM     23  C   UNL     1       4.926  -2.516   5.548  0.00  0.00    +0.084 A 
ATOM     24  N   UNL     1       5.966  -1.758   5.840  0.00  0.00    -0.367 N 
ATOM     25  C   UNL     1       6.367  -0.786   5.042  0.00  0.00    +0.084 A 
ATOM     26  C   UNL     1       5.712  -0.528   3.856  0.00  0.00    +0.040 A 
ATOM     27  H   UNL     1       6.449  -1.919   6.665  0.00  0.00    +0.165 HD
ENDBRANCH  19  21
ENDBRANCH   3  19
TORSDOF 5
