REMARK  Name = ZINC16856699
REMARK  6 active torsions:
REMARK  status: ('A' for Active; 'I' for Inactive)
REMARK    1  A    between atoms: C_1  and  C_2
REMARK    2  A    between atoms: C_4  and  O_23
REMARK    3  A    between atoms: C_10  and  C_11
REMARK    4  A    between atoms: N_13  and  N_14
REMARK    5  A    between atoms: C_15  and  C_16
REMARK    6  A    between atoms: C_19  and  O_22
REMARK                            x       y       z     vdW  Elec       q    Type
REMARK                         _______ _______ _______ _____ _____    ______ ____
ROOT
ATOM      1  C   UNL     1      -5.053   2.090   0.062  0.00  0.00    +0.270 C 
ATOM      2  O   UNL     1      -5.421   0.930   0.059  0.00  0.00    -0.268 OA
ATOM      3  N   UNL     1      -5.962   3.085   0.077  0.00  0.00    -0.203 N 
ATOM      4  H   UNL     1      -5.669   4.010   0.079  0.00  0.00    +0.178 HD
ENDROOT
BRANCH   1  14
ATOM      5  C   UNL     1      -2.797   0.059   0.030  0.00  0.00    +0.046 C 
ATOM      6  C   UNL     1      -2.563   1.548   0.035  0.00  0.00    -0.017 A 
ATOM      7  C   UNL     1      -1.255   2.053   0.019  0.00  0.00    +0.073 A 
ATOM      8  C   UNL     1      -0.016   1.349   0.009  0.00  0.00    +0.224 A 
ATOM      9  N   UNL     1       1.114   2.033   0.002  0.00  0.00    -0.201 NA
ATOM     10  C   UNL     1       1.140   3.354   0.009  0.00  0.00    +0.226 A 
ATOM     11  N   UNL     1       0.029   4.064   0.023  0.00  0.00    -0.228 NA
ATOM     12  C   UNL     1      -1.144   3.466   0.031  0.00  0.00    +0.116 A 
ATOM     13  S   UNL     1      -2.833   4.008   0.051  0.00  0.00    -0.064 S 
ATOM     14  C   UNL     1      -3.620   2.406   0.050  0.00  0.00    +0.081 A 
BRANCH   8  15
ATOM     15  O   UNL     1       0.002  -0.004   0.002  0.00  0.00    -0.492 OA
ATOM     16  H   UNL     1       0.016  -0.402   0.883  0.00  0.00    +0.294 HD
ENDBRANCH   8  15
ENDBRANCH   1  14
BRANCH   3  17
ATOM     17  N   UNL     1      -7.330   2.784   0.088  0.00  0.00    -0.187 NA
ATOM     18  C   UNL     1      -8.206   3.743   0.102  0.00  0.00    +0.138 C 
BRANCH  18  19
ATOM     19  C   UNL     1      -9.645   3.426   0.114  0.00  0.00    -0.005 A 
ATOM     20  C   UNL     1     -10.070   2.095   0.105  0.00  0.00    +0.013 A 
ATOM     21  C   UNL     1     -11.417   1.803   0.122  0.00  0.00    +0.046 A 
ATOM     22  C   UNL     1     -12.352   2.830   0.137  0.00  0.00    +0.117 A 
ATOM     23  C   UNL     1     -11.934   4.155   0.140  0.00  0.00    +0.046 A 
ATOM     24  C   UNL     1     -10.590   4.456   0.129  0.00  0.00    +0.013 A 
BRANCH  22  25
ATOM     25  O   UNL     1     -13.678   2.539   0.148  0.00  0.00    -0.507 OA
ATOM     26  H   UNL     1     -14.071   2.459  -0.732  0.00  0.00    +0.292 HD
ENDBRANCH  22  25
ENDBRANCH  18  19
ENDBRANCH   3  17
TORSDOF 5
