REMARK  Name = ZINC67000577
REMARK  6 active torsions:
REMARK  status: ('A' for Active; 'I' for Inactive)
REMARK    1  A    between atoms: C_10  and  C_11
REMARK    2  A    between atoms: C_10  and  O_29
REMARK    3  A    between atoms: C_11  and  N_12
REMARK    4  A    between atoms: C_13  and  C_15
REMARK    5  A    between atoms: N_17  and  C_18
REMARK    6  A    between atoms: C_21  and  N_24
REMARK                            x       y       z     vdW  Elec       q    Type
REMARK                         _______ _______ _______ _____ _____    ______ ____
ROOT
ATOM      1  N   UNL     1       4.460   1.557  -0.784  0.00  0.00    -0.305 N 
ATOM      2  C   UNL     1       5.278   2.381  -1.469  0.00  0.00    +0.299 C 
ATOM      3  O   UNL     1       5.957   1.947  -2.376  0.00  0.00    -0.265 OA
ATOM      4  H   UNL     1       3.917   1.904  -0.059  0.00  0.00    +0.149 HD
ENDROOT
BRANCH   2   5
ATOM      5  C   UNL     1       5.349   3.829  -1.110  0.00  0.00    +0.303 C 
ATOM      6  O   UNL     1       4.670   4.264  -0.203  0.00  0.00    -0.265 OA
ATOM      7  N   UNL     1       6.167   4.654  -1.794  0.00  0.00    -0.278 N 
ATOM      8  H   UNL     1       6.653   4.324  -2.566  0.00  0.00    +0.155 HD
BRANCH   7   9
ATOM      9  C   UNL     1       6.314   5.984  -1.392  0.00  0.00    +0.034 A 
ATOM     10  C   UNL     1       6.527   6.977  -2.340  0.00  0.00    +0.025 A 
ATOM     11  C   UNL     1       6.673   8.290  -1.942  0.00  0.00    +0.031 A 
ATOM     12  C   UNL     1       6.607   8.619  -0.594  0.00  0.00    +0.086 A 
ATOM     13  C   UNL     1       6.395   7.626   0.353  0.00  0.00    +0.031 A 
ATOM     14  C   UNL     1       6.243   6.314  -0.044  0.00  0.00    +0.025 A 
BRANCH  12  15
ATOM     15  N   UNL     1       6.755   9.954  -0.191  0.00  0.00    -0.150 N 
ATOM     16  N   UNL     1       6.949  10.942  -0.991  0.00  0.00    -0.156 NA
ATOM     17  C   UNL     1       7.042  12.046  -0.283  0.00  0.00    +0.156 A 
ATOM     18  C   UNL     1       6.888  11.659   1.051  0.00  0.00    +0.156 A 
ATOM     19  N   UNL     1       6.710  10.357   1.030  0.00  0.00    -0.156 NA
ENDBRANCH  12  15
ENDBRANCH   7   9
ENDBRANCH   2   5
BRANCH   1  20
ATOM     20  C   UNL     1       4.391   0.136  -1.136  0.00  0.00    +0.144 C 
BRANCH  20  30
ATOM     21  C   UNL     1       3.264  -4.700  -1.310  0.00  0.00    +0.000 A 
ATOM     22  C   UNL     1       3.369  -3.725  -2.285  0.00  0.00    +0.000 A 
ATOM     23  C   UNL     1       3.393  -2.395  -1.922  0.00  0.00    +0.007 A 
ATOM     24  C   UNL     1       3.317  -2.026  -0.585  0.00  0.00    -0.011 A 
ATOM     25  C   UNL     1       3.219  -2.997   0.385  0.00  0.00    -0.041 A 
ATOM     26  C   UNL     1       3.189  -4.336   0.018  0.00  0.00    +0.004 A 
ATOM     27  C   UNL     1       3.148  -2.670   1.854  0.00  0.00    +0.035 C 
ATOM     28  C   UNL     1       2.761  -1.208   2.062  0.00  0.00    +0.008 C 
ATOM     29  C   UNL     1       3.690  -0.335   1.210  0.00  0.00    +0.041 C 
ATOM     30  C   UNL     1       3.343  -0.555  -0.261  0.00  0.00    +0.107 C 
BRANCH  30  31
ATOM     31  O   UNL     1       2.058   0.010  -0.531  0.00  0.00    -0.382 OA
ATOM     32  H   UNL     1       1.776  -0.077  -1.452  0.00  0.00    +0.211 HD
ENDBRANCH  30  31
ENDBRANCH  20  30
ENDBRANCH   1  20
TORSDOF 6
