REMARK  Name = ZINC16496775
REMARK  6 active torsions:
REMARK  status: ('A' for Active; 'I' for Inactive)
REMARK    1  A    between atoms: C_1  and  C_2
REMARK    2  A    between atoms: C_7  and  C_8
REMARK    3  A    between atoms: C_8  and  C_10
REMARK    4  A    between atoms: C_8  and  N_11
REMARK    5  A    between atoms: C_12  and  C_14
REMARK    6  A    between atoms: C_16  and  N_21
REMARK                            x       y       z     vdW  Elec       q    Type
REMARK                         _______ _______ _______ _____ _____    ______ ____
ROOT
ATOM      1  N   UNL     1       4.811  -0.113  -0.045  0.00  0.00    -0.305 N 
ATOM      2  C   UNL     1       3.634  -0.770  -0.037  0.00  0.00    +0.250 C 
ATOM      3  O   UNL     1       3.616  -1.986  -0.043  0.00  0.00    -0.270 OA
ATOM      4  H   UNL     1       4.826   0.987  -0.040  0.00  0.00    +0.150 HD
ENDROOT
BRANCH   2   5
ATOM      5  C   UNL     1       2.367  -0.015  -0.021  0.00  0.00    +0.103 A 
ATOM      6  C   UNL     1       2.373   1.385  -0.013  0.00  0.00    +0.052 A 
ATOM      7  C   UNL     1       1.158   2.047   0.002  0.00  0.00    +0.143 A 
ATOM      8  C   UNL     1      -0.016   1.315   0.009  0.00  0.00    +0.118 A 
ATOM      9  N   UNL     1       0.002  -0.004   0.002  0.00  0.00    -0.326 N 
ATOM     10  C   UNL     1       1.135  -0.685  -0.013  0.00  0.00    +0.261 A 
ATOM     11  O   UNL     1       1.106  -2.039  -0.020  0.00  0.00    -0.267 OA
ATOM     12  H   UNL     1      -0.960  -0.537   0.008  0.00  0.00    +0.168 HD
BRANCH   7  13
ATOM     13  N   UNL     1       1.114   3.527   0.010  0.00  0.00    +0.058 N 
ATOM     14  O   UNL     1       0.042   4.104   0.024  0.00  0.00    -0.126 OA
ATOM     15  O   UNL     1       2.151   4.167   0.004  0.00  0.00    -0.126 OA
ENDBRANCH   7  13
ENDBRANCH   2   5
BRANCH   1  16
ATOM     16  C   UNL     1       6.069  -0.864  -0.061  0.00  0.00    +0.101 C 
ATOM     17  C   UNL     1       6.456  -1.241   1.370  0.00  0.00    +0.033 C 
BRANCH  16  24
ATOM     18  C   UNL     1       8.359  -2.112  -1.304  0.00  0.00    +0.044 C 
ATOM     19  C   UNL     1       8.249  -0.610  -1.263  0.00  0.00    -0.046 A 
ATOM     20  C   UNL     1       9.245   0.171  -1.820  0.00  0.00    +0.004 A 
ATOM     21  C   UNL     1       9.144   1.549  -1.782  0.00  0.00    +0.000 A 
ATOM     22  C   UNL     1       8.048   2.147  -1.188  0.00  0.00    +0.000 A 
ATOM     23  C   UNL     1       7.051   1.366  -0.635  0.00  0.00    +0.006 A 
ATOM     24  C   UNL     1       7.154  -0.013  -0.668  0.00  0.00    -0.025 A 
ENDBRANCH  16  24
ENDBRANCH   1  16
TORSDOF 4
