REMARK  Name = ZINC01638160
REMARK  8 active torsions:
REMARK  status: ('A' for Active; 'I' for Inactive)
REMARK    1  A    between atoms: C_1  and  C_2
REMARK    2  A    between atoms: C_2  and  C_4
REMARK    3  A    between atoms: C_10  and  O_32
REMARK    4  A    between atoms: C_20  and  O_30
REMARK    5  A    between atoms: C_21  and  O_28
REMARK    6  A    between atoms: C_25  and  O_27
REMARK    7  A    between atoms: O_28  and  C_29
REMARK    8  A    between atoms: O_30  and  C_31
REMARK                            x       y       z     vdW  Elec       q    Type
REMARK                         _______ _______ _______ _____ _____    ______ ____
ROOT
ATOM      1  C   UNL     1      -1.176   3.222   0.025  0.00  0.00    +0.203 C 
ATOM      2  C   UNL     1      -1.846   3.754   1.314  0.00  0.00    +0.091 C 
ATOM      3  C   UNL     1      -2.585   4.976   0.801  0.00  0.00    +0.041 A 
ATOM      4  C   UNL     1      -2.631   4.873  -0.583  0.00  0.00    +0.132 A 
ATOM      5  C   UNL     1      -3.249   5.880  -1.329  0.00  0.00    +0.092 A 
ATOM      6  C   UNL     1      -3.819   6.968  -0.699  0.00  0.00    +0.135 A 
ATOM      7  C   UNL     1      -3.778   7.061   0.697  0.00  0.00    +0.106 A 
ATOM      8  C   UNL     1      -3.152   6.055   1.456  0.00  0.00    +0.149 A 
ATOM      9  O   UNL     1      -3.103   6.145   2.800  0.00  0.00    -0.452 OA
ATOM     10  C   UNL     1      -3.632   7.160   3.494  0.00  0.00    +0.185 A 
ATOM     11  C   UNL     1      -4.274   8.188   2.873  0.00  0.00    +0.077 A 
ATOM     12  C   UNL     1      -4.380   8.200   1.410  0.00  0.00    +0.204 A 
ATOM     13  O   UNL     1      -4.938   9.107   0.815  0.00  0.00    -0.286 OA
ATOM     14  C   UNL     1      -4.853   9.271   3.698  0.00  0.00    +0.035 A 
ATOM     15  C   UNL     1      -5.229  10.490   3.147  0.00  0.00    +0.061 A 
ATOM     16  C   UNL     1      -5.761  11.475   3.962  0.00  0.00    +0.162 A 
ATOM     17  C   UNL     1      -5.919  11.243   5.326  0.00  0.00    +0.165 A 
ATOM     18  C   UNL     1      -5.545  10.026   5.878  0.00  0.00    +0.095 A 
ATOM     19  C   UNL     1      -5.015   9.038   5.071  0.00  0.00    +0.136 A 
ATOM     20  O   UNL     1      -4.643   7.835   5.580  0.00  0.00    -0.456 OA
ATOM     21  C   UNL     1      -3.512   7.185   5.000  0.00  0.00    +0.374 C 
ATOM     22  O   UNL     1      -2.033   3.726  -1.014  0.00  0.00    -0.484 OA
ENDROOT
BRANCH   1  24
ATOM     23  C   UNL     1      -2.451   0.944   0.019  0.00  0.00    +0.042 C 
ATOM     24  C   UNL     1      -1.156   1.715   0.017  0.00  0.00    -0.040 C 
ATOM     25  C   UNL     1      -0.013   1.076   0.008  0.00  0.00    +0.011 C 
ENDBRANCH   1  24
BRANCH  21  26
ATOM     26  O   UNL     1      -2.323   7.887   5.367  0.00  0.00    -0.352 OA
ATOM     27  H   UNL     1      -2.179   7.944   6.322  0.00  0.00    +0.214 HD
ENDBRANCH  21  26
BRANCH  17  28
ATOM     28  O   UNL     1      -6.441  12.214   6.122  0.00  0.00    -0.491 OA
ATOM     29  C   UNL     1      -6.576  11.912   7.512  0.00  0.00    +0.277 C 
ENDBRANCH  17  28
BRANCH  16  30
ATOM     30  O   UNL     1      -6.130  12.671   3.429  0.00  0.00    -0.491 OA
ATOM     31  C   UNL     1      -5.941  12.841   2.023  0.00  0.00    +0.277 C 
ENDBRANCH  16  30
BRANCH   6  32
ATOM     32  O   UNL     1      -4.417   7.943  -1.429  0.00  0.00    -0.506 OA
ATOM     33  H   UNL     1      -3.821   8.658  -1.693  0.00  0.00    +0.292 HD
ENDBRANCH   6  32
TORSDOF 5
