REMARK  Name = ZINC54043486
REMARK  8 active torsions:
REMARK  status: ('A' for Active; 'I' for Inactive)
REMARK    1  A    between atoms: C_1  and  C_2
REMARK    2  A    between atoms: C_4  and  C_8
REMARK    3  A    between atoms: C_5  and  C_7
REMARK    4  A    between atoms: N_10  and  N_11
REMARK    5  A    between atoms: N_14  and  C_15
REMARK    6  A    between atoms: C_15  and  C_16
REMARK    7  A    between atoms: C_16  and  C_18
REMARK    8  A    between atoms: C_16  and  N_24
REMARK                            x       y       z     vdW  Elec       q    Type
REMARK                         _______ _______ _______ _____ _____    ______ ____
ROOT
ATOM      1  N   UNL     1      -7.663  -5.755  -2.562  0.00  0.00    -0.218 N 
ATOM      2  C   UNL     1      -7.094  -5.139  -1.506  0.00  0.00    +0.316 C 
ATOM      3  O   UNL     1      -6.295  -5.738  -0.811  0.00  0.00    -0.251 OA
ATOM      4  N   UNL     1      -7.410  -3.860  -1.222  0.00  0.00    -0.299 N 
ATOM      5  H   UNL     1      -7.436  -6.675  -2.767  0.00  0.00    +0.174 HD
ATOM      6  H   UNL     1      -8.046  -3.383  -1.776  0.00  0.00    +0.150 HD
ENDROOT
BRANCH   1   9
ATOM      7  C   UNL     1      -9.152  -5.681  -4.417  0.00  0.00    +0.263 C 
ATOM      8  O   UNL     1      -8.868  -6.835  -4.674  0.00  0.00    -0.269 OA
ATOM      9  N   UNL     1      -8.583  -5.066  -3.362  0.00  0.00    -0.229 N 
ATOM     10  H   UNL     1      -8.810  -4.145  -3.157  0.00  0.00    +0.173 HD
BRANCH   7  14
ATOM     11  C   UNL     1     -12.187  -2.055  -6.334  0.00  0.00    +0.086 C 
ATOM     12  C   UNL     1     -11.450  -3.347  -6.089  0.00  0.00    +0.103 A 
ATOM     13  C   UNL     1     -10.576  -3.568  -5.096  0.00  0.00    +0.057 A 
ATOM     14  C   UNL     1     -10.120  -4.956  -5.260  0.00  0.00    +0.079 A 
ATOM     15  C   UNL     1     -10.780  -5.432  -6.354  0.00  0.00    +0.114 A 
ATOM     16  O   UNL     1     -11.568  -4.462  -6.827  0.00  0.00    -0.464 OA
ATOM     17  C   UNL     1     -10.648  -6.819  -6.929  0.00  0.00    +0.087 C 
ENDBRANCH   7  14
ENDBRANCH   1   9
BRANCH   4  18
ATOM     18  C   UNL     1      -6.791  -3.191  -0.075  0.00  0.00    +0.095 C 
BRANCH  18  19
ATOM     19  C   UNL     1      -7.235  -1.728  -0.037  0.00  0.00    -0.020 C 
BRANCH  19  20
ATOM     20  C   UNL     1      -8.716  -1.659   0.229  0.00  0.00    -0.059 A 
ATOM     21  C   UNL     1      -9.194  -1.795   1.519  0.00  0.00    +0.002 A 
ATOM     22  C   UNL     1     -10.553  -1.732   1.763  0.00  0.00    +0.000 A 
ATOM     23  C   UNL     1     -11.435  -1.532   0.717  0.00  0.00    +0.000 A 
ATOM     24  C   UNL     1     -10.957  -1.395  -0.573  0.00  0.00    +0.000 A 
ATOM     25  C   UNL     1      -9.598  -1.454  -0.816  0.00  0.00    +0.002 A 
ENDBRANCH  19  20
BRANCH  19  26
ATOM     26  N   UNL     1      -6.512  -1.023   1.030  0.00  0.00    +0.385 N 
ATOM     27  C   UNL     1      -5.054  -1.018   0.745  0.00  0.00    -0.078 C 
ATOM     28  C   UNL     1      -4.534   0.177   1.582  0.00  0.00    -0.020 C 
ATOM     29  C   UNL     1      -5.670   1.216   1.446  0.00  0.00    -0.020 C 
ATOM     30  C   UNL     1      -6.920   0.398   1.071  0.00  0.00    -0.078 C 
ATOM     31  H   UNL     1      -6.692  -1.462   1.921  0.00  0.00    -0.081 HD
ENDBRANCH  19  26
ENDBRANCH  18  19
ENDBRANCH   4  18
TORSDOF 6
