REMARK  Name = ZINC38798963
REMARK  4 active torsions:
REMARK  status: ('A' for Active; 'I' for Inactive)
REMARK    1  A    between atoms: C_1  and  N_2
REMARK    2  A    between atoms: C_12  and  S_13
REMARK    3  A    between atoms: S_13  and  C_14
REMARK    4  A    between atoms: C_14  and  C_15
REMARK                            x       y       z     vdW  Elec       q    Type
REMARK                         _______ _______ _______ _____ _____    ______ ____
ROOT
ATOM      1  C   UNL     1      -0.115  -0.706   4.023  0.00  0.00    +0.173 C 
ENDROOT
BRANCH   1   2
ATOM      2  C   UNL     1      -0.064  -0.239   5.455  0.00  0.00    +0.227 C 
ATOM      3  O   UNL     1      -0.150   0.944   5.710  0.00  0.00    -0.275 OA
ATOM      4  N   UNL     1       0.078  -1.135   6.451  0.00  0.00    -0.285 N 
ATOM      5  C   UNL     1       1.073  -1.017   7.308  0.00  0.00    +0.036 C 
ATOM      6  C   UNL     1       2.098   0.015   7.106  0.00  0.00    +0.025 C 
ATOM      7  C   UNL     1       3.117   0.142   7.977  0.00  0.00    +0.032 C 
ATOM      8  C   UNL     1       3.210  -0.752   9.135  0.00  0.00    +0.095 C 
ATOM      9  N   UNL     1       4.061  -0.876  10.136  0.00  0.00    -0.190 NA
ATOM     10  C   UNL     1       3.664  -1.881  10.934  0.00  0.00    +0.369 C 
ATOM     11  O   UNL     1       4.319  -2.270  12.053  0.00  0.00    -0.243 OA
ATOM     12  N   UNL     1       2.561  -2.439  10.492  0.00  0.00    -0.190 NA
ATOM     13  C   UNL     1       2.187  -1.793   9.349  0.00  0.00    +0.097 C 
ATOM     14  C   UNL     1       1.155  -1.920   8.476  0.00  0.00    +0.053 C 
ATOM     15  H   UNL     1      -0.553  -1.867   6.538  0.00  0.00    +0.155 HD
ENDBRANCH   1   2
BRANCH   1  16
ATOM     16  S   UNL     1      -0.309   0.726   2.926  0.00  0.00    -0.078 S 
BRANCH  16  28
ATOM     17  C   UNL     1      -0.604   2.305   0.457  0.00  0.00    +0.154 C 
ATOM     18  N   UNL     1      -0.492   0.861   0.241  0.00  0.00    -0.290 N 
ATOM     19  C   UNL     1      -0.524   0.365  -1.018  0.00  0.00    +0.262 A 
ATOM     20  O   UNL     1      -0.644   1.097  -1.983  0.00  0.00    -0.267 OA
ATOM     21  C   UNL     1      -0.408  -1.091  -1.177  0.00  0.00    +0.065 A 
ATOM     22  C   UNL     1      -0.429  -1.700  -2.431  0.00  0.00    +0.015 A 
ATOM     23  C   UNL     1      -0.317  -3.060  -2.522  0.00  0.00    +0.001 A 
ATOM     24  C   UNL     1      -0.182  -3.839  -1.380  0.00  0.00    +0.002 A 
ATOM     25  C   UNL     1      -0.158  -3.269  -0.139  0.00  0.00    +0.028 A 
ATOM     26  C   UNL     1      -0.270  -1.881  -0.012  0.00  0.00    +0.079 A 
ATOM     27  N   UNL     1      -0.251  -1.277   1.193  0.00  0.00    -0.223 NA
ATOM     28  C   UNL     1      -0.351   0.024   1.311  0.00  0.00    +0.172 A 
ENDBRANCH  16  28
ENDBRANCH   1  16
TORSDOF 3
