REMARK  Name = ZINC02308499
REMARK  5 active torsions:
REMARK  status: ('A' for Active; 'I' for Inactive)
REMARK    1  A    between atoms: C_4  and  O_28
REMARK    2  A    between atoms: C_5  and  C_7
REMARK    3  A    between atoms: N_9  and  N_10
REMARK    4  A    between atoms: N_10  and  C_11
REMARK    5  A    between atoms: N_18  and  C_21
REMARK                            x       y       z     vdW  Elec       q    Type
REMARK                         _______ _______ _______ _____ _____    ______ ____
ROOT
ATOM      1  C   UNL     1       6.709   3.318   1.440  0.00  0.00    +0.106 C 
ATOM      2  C   UNL     1       7.524   4.036   0.586  0.00  0.00    +0.114 C 
ATOM      3  C   UNL     1       8.409   3.363  -0.382  0.00  0.00    +0.256 C 
ATOM      4  O   UNL     1       8.446   2.149  -0.455  0.00  0.00    -0.270 OA
ATOM      5  N   UNL     1       9.174   4.129  -1.187  0.00  0.00    -0.263 N 
ATOM      6  C   UNL     1       9.147   5.467  -1.113  0.00  0.00    +0.150 C 
ATOM      7  S   UNL     1      10.157   6.357  -2.171  0.00  0.00    -0.018 S 
ATOM      8  N   UNL     1       8.372   6.145  -0.255  0.00  0.00    -0.217 N 
ATOM      9  C   UNL     1       7.552   5.510   0.607  0.00  0.00    +0.263 C 
ATOM     10  O   UNL     1       6.853   6.136   1.381  0.00  0.00    -0.269 OA
ATOM     11  H   UNL     1       9.759   3.701  -1.832  0.00  0.00    +0.157 HD
ENDROOT
BRANCH   8  12
ATOM     12  C   UNL     1       8.415   7.545  -0.253  0.00  0.00    +0.045 A 
ATOM     13  C   UNL     1       7.656   8.266  -1.166  0.00  0.00    +0.024 A 
ATOM     14  C   UNL     1       7.700   9.646  -1.162  0.00  0.00    +0.003 A 
ATOM     15  C   UNL     1       8.498  10.312  -0.251  0.00  0.00    +0.020 A 
ATOM     16  C   UNL     1       9.256   9.597   0.661  0.00  0.00    +0.043 A 
ATOM     17  C   UNL     1       9.212   8.215   0.664  0.00  0.00    +0.044 A 
ATOM     18 CL   UNL     1      10.257  10.437   1.804  0.00  0.00    -0.083 Cl
ENDBRANCH   8  12
BRANCH   1  19
ATOM     19  N   UNL     1       6.009   3.955   2.400  0.00  0.00    -0.271 N 
ATOM     20  H   UNL     1       6.144   4.904   2.549  0.00  0.00    +0.169 HD
BRANCH  19  23
ATOM     21  C   UNL     1       4.386   3.885   4.140  0.00  0.00    +0.264 C 
ATOM     22  O   UNL     1       4.556   5.074   4.327  0.00  0.00    -0.269 OA
ATOM     23  N   UNL     1       5.086   3.248   3.181  0.00  0.00    -0.233 N 
ATOM     24  H   UNL     1       4.951   2.299   3.032  0.00  0.00    +0.173 HD
BRANCH  21  29
ATOM     25  C   UNL     1       2.309   1.083   5.524  0.00  0.00    +0.001 A 
ATOM     26  C   UNL     1       1.585   1.738   6.507  0.00  0.00    +0.004 A 
ATOM     27  C   UNL     1       1.775   3.088   6.730  0.00  0.00    +0.046 A 
ATOM     28  C   UNL     1       2.685   3.799   5.962  0.00  0.00    +0.129 A 
ATOM     29  C   UNL     1       3.415   3.140   4.963  0.00  0.00    +0.079 A 
ATOM     30  C   UNL     1       3.217   1.773   4.752  0.00  0.00    +0.017 A 
BRANCH  28  31
ATOM     31  O   UNL     1       2.869   5.125   6.177  0.00  0.00    -0.506 OA
ATOM     32  H   UNL     1       2.286   5.693   5.654  0.00  0.00    +0.292 HD
ENDBRANCH  28  31
ENDBRANCH  21  29
ENDBRANCH  19  23
ENDBRANCH   1  19
TORSDOF 5
