REMARK  Name = ZINC06877453
REMARK  8 active torsions:
REMARK  status: ('A' for Active; 'I' for Inactive)
REMARK    1  A    between atoms: C_1  and  C_2
REMARK    2  A    between atoms: C_2  and  N_3
REMARK    3  A    between atoms: C_9  and  N_25
REMARK    4  A    between atoms: C_10  and  C_11
REMARK    5  A    between atoms: C_11  and  C_13
REMARK    6  A    between atoms: C_11  and  N_14
REMARK    7  A    between atoms: N_17  and  C_18
REMARK    8  A    between atoms: C_23  and  C_24
REMARK                            x       y       z     vdW  Elec       q    Type
REMARK                         _______ _______ _______ _____ _____    ______ ____
ROOT
ATOM      1  N   UNL     1      -1.452  -1.872   2.271  0.00  0.00    +0.383 N 
ATOM      2  C   UNL     1      -1.473  -3.282   1.860  0.00  0.00    -0.074 C 
ATOM      3  C   UNL     1      -2.915  -3.755   1.654  0.00  0.00    +0.018 C 
ATOM      4  C   UNL     1      -3.599  -2.779   0.700  0.00  0.00    -0.034 A 
ATOM      5  C   UNL     1      -3.042  -1.552   0.493  0.00  0.00    -0.021 A 
ATOM      6  S   UNL     1      -4.141  -0.777  -0.659  0.00  0.00    -0.077 S 
ATOM      7  C   UNL     1      -5.309  -2.121  -0.820  0.00  0.00    +0.090 A 
ATOM      8  C   UNL     1      -4.776  -3.057   0.011  0.00  0.00    +0.007 A 
ATOM      9  C   UNL     1      -1.794  -1.020   1.117  0.00  0.00    -0.035 C 
ATOM     10  H   UNL     1      -2.126  -1.727   3.008  0.00  0.00    -0.081 HD
ENDROOT
BRANCH   7  11
ATOM     11  N   UNL     1      -6.470  -2.192  -1.599  0.00  0.00    -0.317 N 
ATOM     12  C   UNL     1      -7.696  -2.608  -1.164  0.00  0.00    +0.092 A 
ATOM     13  C   UNL     1      -8.557  -2.536  -2.200  0.00  0.00    +0.019 A 
ATOM     14  C   UNL     1      -7.838  -2.059  -3.315  0.00  0.00    +0.019 A 
ATOM     15  C   UNL     1      -6.566  -1.851  -2.917  0.00  0.00    +0.092 A 
ENDBRANCH   7  11
BRANCH   1  17
ATOM     16  C   UNL     1      -0.121  -0.093   3.299  0.00  0.00    -0.017 C 
ATOM     17  C   UNL     1      -0.111  -1.523   2.757  0.00  0.00    -0.082 C 
ENDBRANCH   1  17
BRANCH   8  18
ATOM     18  C   UNL     1      -5.458  -4.389   0.186  0.00  0.00    +0.104 C 
ATOM     19  C   UNL     1      -5.983  -4.510   1.618  0.00  0.00    +0.033 C 
BRANCH  18  20
ATOM     20  N   UNL     1      -4.499  -5.466  -0.075  0.00  0.00    -0.292 N 
ATOM     21  C   UNL     1      -4.927  -6.740  -0.177  0.00  0.00    +0.304 C 
ATOM     22  O   UNL     1      -6.109  -6.995  -0.053  0.00  0.00    -0.252 OA
ATOM     23  N   UNL     1      -4.045  -7.730  -0.417  0.00  0.00    -0.269 N 
ATOM     24  H   UNL     1      -3.556  -5.262  -0.174  0.00  0.00    +0.151 HD
ATOM     25  H   UNL     1      -3.115  -7.519  -0.594  0.00  0.00    +0.156 HD
BRANCH  23  26
ATOM     26  C   UNL     1      -4.471  -9.063  -0.410  0.00  0.00    +0.038 A 
ATOM     27  C   UNL     1      -5.660  -9.411   0.218  0.00  0.00    +0.023 A 
ATOM     28  C   UNL     1      -6.077 -10.727   0.223  0.00  0.00    +0.002 A 
ATOM     29  C   UNL     1      -5.313 -11.699  -0.398  0.00  0.00    +0.000 A 
ATOM     30  C   UNL     1      -4.130 -11.356  -1.024  0.00  0.00    +0.005 A 
ATOM     31  C   UNL     1      -3.709 -10.040  -1.038  0.00  0.00    -0.029 A 
ATOM     32  C   UNL     1      -2.422  -9.666  -1.726  0.00  0.00    +0.045 C 
ENDBRANCH  23  26
ENDBRANCH  18  20
ENDBRANCH   8  18
TORSDOF 5
