REMARK  Name = ZINC16673718
REMARK  7 active torsions:
REMARK  status: ('A' for Active; 'I' for Inactive)
REMARK    1  A    between atoms: C_1  and  C_2
REMARK    2  A    between atoms: C_5  and  N_25
REMARK    3  A    between atoms: C_6  and  O_8
REMARK    4  A    between atoms: O_8  and  C_9
REMARK    5  A    between atoms: C_9  and  C_10
REMARK    6  A    between atoms: N_12  and  C_13
REMARK    7  A    between atoms: C_14  and  C_22
REMARK                            x       y       z     vdW  Elec       q    Type
REMARK                         _______ _______ _______ _____ _____    ______ ____
ROOT
ATOM      1  C   UNL     1       0.064  -2.932   4.751  0.00  0.00    +0.255 C 
ATOM      2  O   UNL     1       0.079  -4.133   4.584  0.00  0.00    -0.272 OA
ATOM      3  N   UNL     1       0.062  -2.425   6.000  0.00  0.00    -0.277 N 
ATOM      4  H   UNL     1       0.050  -1.465   6.134  0.00  0.00    +0.155 HD
ENDROOT
BRANCH   3   5
ATOM      5  C   UNL     1       0.079  -3.277   7.094  0.00  0.00    +0.084 A 
ATOM      6  C   UNL     1       0.074  -2.939   8.438  0.00  0.00    +0.068 A 
ATOM      7  C   UNL     1       0.095  -4.029   9.397  0.00  0.00    -0.023 A 
ATOM      8  C   UNL     1       0.116  -5.258   8.837  0.00  0.00    -0.004 A 
ATOM      9  S   UNL     1       0.100  -4.957   7.094  0.00  0.00    -0.077 S 
ATOM     10  C   UNL     1       0.141  -6.573   9.553  0.00  0.00    +0.043 C 
ATOM     11  C   UNL     1       0.521  -6.316  11.019  0.00  0.00    +0.005 C 
ATOM     12  C   UNL     1      -0.335  -5.167  11.559  0.00  0.00    +0.005 C 
ATOM     13  C   UNL     1       0.092  -3.849  10.908  0.00  0.00    +0.037 C 
BRANCH   6  14
ATOM     14  C   UNL     1       0.051  -1.539   8.873  0.00  0.00    +0.244 C 
ATOM     15  O   UNL     1      -1.013  -0.976   9.055  0.00  0.00    -0.270 OA
ATOM     16  N   UNL     1       1.207  -0.875   9.071  0.00  0.00    -0.325 N 
ATOM     17  H   UNL     1       2.055  -1.324   8.926  0.00  0.00    +0.145 HD
ATOM     18  H   UNL     1       1.192   0.051   9.359  0.00  0.00    +0.145 HD
ENDBRANCH   6  14
ENDBRANCH   3   5
BRANCH   1  19
ATOM     19  C   UNL     1       0.046  -2.006   3.562  0.00  0.00    +0.325 C 
BRANCH  19  20
ATOM     20  O   UNL     1       0.051  -2.776   2.358  0.00  0.00    -0.480 OA
BRANCH  20  26
ATOM     21  C   UNL     1      -0.018   1.503   0.010  0.00  0.00    +0.044 C 
ATOM     22  C   UNL     1       0.002  -0.004   0.002  0.00  0.00    -0.047 A 
ATOM     23  C   UNL     1       0.006  -0.688  -1.200  0.00  0.00    +0.006 A 
ATOM     24  C   UNL     1       0.025  -2.071  -1.211  0.00  0.00    +0.037 A 
ATOM     25  C   UNL     1       0.040  -2.772  -0.020  0.00  0.00    +0.168 A 
ATOM     26  C   UNL     1       0.036  -2.088   1.186  0.00  0.00    +0.152 A 
ATOM     27  C   UNL     1       0.023  -0.700   1.195  0.00  0.00    +0.051 A 
BRANCH  25  28
ATOM     28  N   UNL     1       0.060  -4.252  -0.033  0.00  0.00    +0.060 N 
ATOM     29  O   UNL     1       0.062  -4.847  -1.085  0.00  0.00    -0.126 OA
ATOM     30  O   UNL     1       0.073  -4.865   1.009  0.00  0.00    -0.126 OA
ENDBRANCH  25  28
ENDBRANCH  20  26
ENDBRANCH  19  20
ENDBRANCH   1  19
TORSDOF 6
