REMARK  Name = ZINC01430918
REMARK  6 active torsions:
REMARK  status: ('A' for Active; 'I' for Inactive)
REMARK    1  A    between atoms: C_5  and  C_7
REMARK    2  A    between atoms: C_7  and  S_8
REMARK    3  A    between atoms: S_8  and  C_9
REMARK    4  A    between atoms: C_16  and  N_29
REMARK    5  A    between atoms: C_17  and  C_27
REMARK    6  A    between atoms: C_18  and  C_20
REMARK                            x       y       z     vdW  Elec       q    Type
REMARK                         _______ _______ _______ _____ _____    ______ ____
ROOT
ATOM      1  C   UNL     1       2.150  -2.608   1.071  0.00  0.00    +0.193 A 
ATOM      2  N   UNL     1       3.342  -2.028   1.095  0.00  0.00    -0.207 NA
ATOM      3  C   UNL     1       3.481  -0.748   0.756  0.00  0.00    +0.128 A 
ATOM      4  C   UNL     1       2.353  -0.026   0.375  0.00  0.00    +0.067 A 
ATOM      5  C   UNL     1       1.124  -0.665   0.363  0.00  0.00    +0.232 A 
ATOM      6  N   UNL     1       1.059  -1.947   0.714  0.00  0.00    -0.186 NA
ATOM      7  O   UNL     1       0.002  -0.004   0.002  0.00  0.00    -0.423 OA
ATOM      8  C   UNL     1      -0.016   1.340   0.009  0.00  0.00    +0.200 C 
ATOM      9  C   UNL     1       1.121   2.075   0.003  0.00  0.00    +0.098 C 
ATOM     10  C   UNL     1       2.474   1.420  -0.015  0.00  0.00    +0.103 C 
ATOM     11  N   UNL     1       4.728  -0.145   0.783  0.00  0.00    -0.343 N 
ATOM     12  H   UNL     1       5.509  -0.655   1.049  0.00  0.00    +0.144 HD
ATOM     13  H   UNL     1       4.821   0.788   0.534  0.00  0.00    +0.144 HD
ENDROOT
BRANCH  10  14
ATOM     14  C   UNL     1       3.056   1.517  -1.401  0.00  0.00    -0.033 A 
ATOM     15  C   UNL     1       2.400   0.931  -2.468  0.00  0.00    +0.004 A 
ATOM     16  C   UNL     1       2.930   1.024  -3.741  0.00  0.00    +0.001 A 
ATOM     17  C   UNL     1       4.122   1.694  -3.947  0.00  0.00    +0.015 A 
ATOM     18  C   UNL     1       4.781   2.276  -2.879  0.00  0.00    +0.018 A 
ATOM     19  C   UNL     1       4.247   2.187  -1.606  0.00  0.00    +0.020 A 
ATOM     20 BR   UNL     1       6.412   3.191  -3.159  0.00  0.00    -0.050 Br
ENDBRANCH  10  14
BRANCH   8  21
ATOM     21  N   UNL     1      -1.226   1.988   0.019  0.00  0.00    -0.328 N 
ATOM     22  H   UNL     1      -2.050   1.476   0.020  0.00  0.00    +0.145 HD
ATOM     23  H   UNL     1      -1.257   2.958   0.024  0.00  0.00    +0.145 HD
ENDBRANCH   8  21
BRANCH   9  24
ATOM     24  C   UNL     1       1.032   3.505   0.011  0.00  0.00    +0.101 C 
ATOM     25  N   UNL     1       0.962   4.638   0.018  0.00  0.00    -0.191 NA
ENDBRANCH   9  24
BRANCH   1  26
ATOM     26  S   UNL     1       2.014  -4.304   1.527  0.00  0.00    -0.081 S 
BRANCH  26  27
ATOM     27  C   UNL     1       3.747  -4.670   1.901  0.00  0.00    +0.114 C 
BRANCH  27  32
ATOM     28  C   UNL     1       4.233  -8.411   1.772  0.00  0.00    +0.000 A 
ATOM     29  C   UNL     1       4.114  -8.752   3.107  0.00  0.00    +0.001 A 
ATOM     30  C   UNL     1       3.876  -7.772   4.052  0.00  0.00    +0.020 A 
ATOM     31  C   UNL     1       3.762  -6.449   3.663  0.00  0.00    +0.045 A 
ATOM     32  C   UNL     1       3.876  -6.109   2.326  0.00  0.00    -0.019 A 
ATOM     33  C   UNL     1       4.114  -7.090   1.382  0.00  0.00    +0.006 A 
ATOM     34 CL   UNL     1       3.471  -5.217   4.850  0.00  0.00    -0.083 Cl
ENDBRANCH  27  32
ENDBRANCH  26  27
ENDBRANCH   1  26
TORSDOF 6
