REMARK  Name = ZINC04998370
REMARK  9 active torsions:
REMARK  status: ('A' for Active; 'I' for Inactive)
REMARK    1  A    between atoms: C_1  and  C_2
REMARK    2  A    between atoms: C_7  and  C_8
REMARK    3  A    between atoms: C_10  and  C_13
REMARK    4  A    between atoms: C_13  and  C_15
REMARK    5  A    between atoms: C_13  and  N_16
REMARK    6  A    between atoms: C_17  and  C_19
REMARK    7  A    between atoms: C_19  and  C_20
REMARK    8  A    between atoms: C_19  and  C_21
REMARK    9  A    between atoms: C_19  and  C_22
REMARK                            x       y       z     vdW  Elec       q    Type
REMARK                         _______ _______ _______ _____ _____    ______ ____
ROOT
ATOM      1  C   UNL     1      -3.914  -0.030   1.694  0.00  0.00    +0.202 A 
ATOM      2  N   UNL     1      -2.607   0.085   2.022  0.00  0.00    -0.190 NA
ATOM      3  C   UNL     1      -2.143   1.058   1.278  0.00  0.00    +0.248 A 
ATOM      4  O   UNL     1      -3.159   1.504   0.533  0.00  0.00    -0.336 OA
ATOM      5  N   UNL     1      -4.164   0.870   0.779  0.00  0.00    -0.056 NA
ENDROOT
BRANCH   1  12
ATOM      6  C   UNL     1      -6.657  -0.023   0.776  0.00  0.00    +0.044 C 
ATOM      7  C   UNL     1      -6.207  -1.002   1.829  0.00  0.00    -0.040 A 
ATOM      8  C   UNL     1      -7.104  -1.904   2.364  0.00  0.00    +0.004 A 
ATOM      9  C   UNL     1      -6.692  -2.803   3.331  0.00  0.00    +0.000 A 
ATOM     10  C   UNL     1      -5.380  -2.803   3.768  0.00  0.00    +0.001 A 
ATOM     11  C   UNL     1      -4.473  -1.909   3.237  0.00  0.00    +0.012 A 
ATOM     12  C   UNL     1      -4.884  -0.998   2.266  0.00  0.00    +0.025 A 
ENDBRANCH   1  12
BRANCH   3  13
ATOM     13  C   UNL     1      -0.729   1.579   1.267  0.00  0.00    +0.159 C 
ATOM     14  C   UNL     1      -0.013   1.086   0.008  0.00  0.00    +0.038 C 
BRANCH  13  15
ATOM     15  N   UNL     1      -0.749   3.044   1.275  0.00  0.00    -0.304 N 
ATOM     16  C   UNL     1       0.305   3.730   1.762  0.00  0.00    +0.219 C 
ATOM     17  O   UNL     1       1.269   3.134   2.193  0.00  0.00    -0.275 OA
ATOM     18  H   UNL     1      -1.520   3.521   0.930  0.00  0.00    +0.149 HD
BRANCH  16  19
ATOM     19  C   UNL     1       0.284   5.237   1.770  0.00  0.00    +0.039 C 
ATOM     20  C   UNL     1       1.590   5.761   2.370  0.00  0.00    +0.020 C 
ATOM     21  C   UNL     1       0.138   5.752   0.337  0.00  0.00    +0.020 C 
ATOM     22  C   UNL     1      -0.896   5.726   2.611  0.00  0.00    +0.020 C 
ENDBRANCH  16  19
ENDBRANCH  13  15
ENDBRANCH   3  13
TORSDOF 4
