REMARK  Name = ZINC04840803
REMARK  9 active torsions:
REMARK  status: ('A' for Active; 'I' for Inactive)
REMARK    1  A    between atoms: C_1  and  C_2
REMARK    2  A    between atoms: C_5  and  N_8
REMARK    3  A    between atoms: C_9  and  C_25
REMARK    4  A    between atoms: C_12  and  S_13
REMARK    5  A    between atoms: S_13  and  C_14
REMARK    6  A    between atoms: C_14  and  C_16
REMARK    7  A    between atoms: C_14  and  C_19
REMARK    8  A    between atoms: C_16  and  C_17
REMARK    9  A    between atoms: C_16  and  C_18
REMARK                            x       y       z     vdW  Elec       q    Type
REMARK                         _______ _______ _______ _____ _____    ______ ____
ROOT
ATOM      1  N   UNL     1       3.424  -5.485   0.893  0.00  0.00    -0.270 N 
ATOM      2  C   UNL     1       2.823  -6.678   0.557  0.00  0.00    +0.169 A 
ATOM      3  N   UNL     1       1.630  -6.390   0.092  0.00  0.00    -0.128 NA
ATOM      4  N   UNL     1       1.442  -5.119   0.118  0.00  0.00    -0.122 NA
ATOM      5  C   UNL     1       2.508  -4.514   0.593  0.00  0.00    +0.197 A 
ENDROOT
BRANCH   1  10
ATOM      6  C   UNL     1       8.614  -4.752   3.070  0.00  0.00    +0.044 C 
ATOM      7  C   UNL     1       7.236  -4.947   2.492  0.00  0.00    -0.050 A 
ATOM      8  C   UNL     1       6.120  -4.685   3.265  0.00  0.00    +0.005 A 
ATOM      9  C   UNL     1       4.856  -4.862   2.739  0.00  0.00    +0.026 A 
ATOM     10  C   UNL     1       4.706  -5.304   1.431  0.00  0.00    +0.051 A 
ATOM     11  C   UNL     1       5.828  -5.571   0.659  0.00  0.00    +0.026 A 
ATOM     12  C   UNL     1       7.090  -5.388   1.190  0.00  0.00    +0.005 A 
ENDBRANCH   1  10
BRANCH   2  13
ATOM     13  C   UNL     1       3.410  -8.028   0.695  0.00  0.00    +0.020 A 
ATOM     14  C   UNL     1       2.863  -9.105  -0.004  0.00  0.00    +0.011 A 
ATOM     15  C   UNL     1       3.419 -10.361   0.125  0.00  0.00    +0.001 A 
ATOM     16  C   UNL     1       4.510 -10.556   0.953  0.00  0.00    +0.000 A 
ATOM     17  C   UNL     1       5.054  -9.494   1.653  0.00  0.00    +0.001 A 
ATOM     18  C   UNL     1       4.511  -8.232   1.528  0.00  0.00    +0.011 A 
ENDBRANCH   2  13
BRANCH   5  19
ATOM     19  S   UNL     1       2.716  -2.778   0.810  0.00  0.00    -0.073 S 
BRANCH  19  20
ATOM     20  C   UNL     1       1.182  -2.182   0.056  0.00  0.00    +0.143 C 
BRANCH  20  21
ATOM     21  C   UNL     1       1.035  -0.705   0.318  0.00  0.00    +0.234 C 
ATOM     22  O   UNL     1       2.017  -0.025   0.527  0.00  0.00    -0.274 OA
ATOM     23  N   UNL     1      -0.189  -0.140   0.320  0.00  0.00    -0.239 N 
ATOM     24  C   UNL     1      -0.321   1.181   0.554  0.00  0.00    +0.303 C 
ATOM     25  O   UNL     1       0.664   1.862   0.764  0.00  0.00    -0.253 OA
ATOM     26  N   UNL     1      -1.544   1.747   0.550  0.00  0.00    -0.313 N 
ATOM     27  H   UNL     1      -0.975  -0.684   0.153  0.00  0.00    +0.159 HD
ATOM     28  H   UNL     1      -2.329   1.204   0.379  0.00  0.00    +0.146 HD
ATOM     29  H   UNL     1      -1.639   2.697   0.719  0.00  0.00    +0.146 HD
ENDBRANCH  20  21
BRANCH  20  30
ATOM     30  C   UNL     1       1.226  -2.430  -1.453  0.00  0.00    +0.005 C 
ATOM     31  C   UNL     1      -0.120  -2.048  -2.072  0.00  0.00    +0.009 C 
ATOM     32  C   UNL     1       2.334  -1.580  -2.078  0.00  0.00    +0.009 C 
ENDBRANCH  20  30
ENDBRANCH  19  20
ENDBRANCH   5  19
TORSDOF 6
