REMARK  Name = ZINC00330917
REMARK  2 active torsions:
REMARK  status: ('A' for Active; 'I' for Inactive)
REMARK    1  A    between atoms: C_1  and  N_2
REMARK    2  A    between atoms: N_9  and  C_10
REMARK                            x       y       z     vdW  Elec       q    Type
REMARK                         _______ _______ _______ _____ _____    ______ ____
ROOT
ATOM      1  C   UNL     1       1.118   3.541   0.010  0.00  0.00    +0.174 C 
ATOM      2  N   UNL     1       1.173   2.077   0.002  0.00  0.00    -0.250 N 
ATOM      3  C   UNL     1       2.369   1.459  -0.013  0.00  0.00    +0.267 A 
ATOM      4  O   UNL     1       3.392   2.115  -0.019  0.00  0.00    -0.266 OA
ATOM      5  C   UNL     1       2.439  -0.015  -0.021  0.00  0.00    +0.097 A 
ATOM      6  C   UNL     1       1.294  -0.725  -0.014  0.00  0.00    +0.112 A 
ATOM      7  C   UNL     1       0.002  -0.004   0.002  0.00  0.00    +0.284 A 
ATOM      8  O   UNL     1      -1.042  -0.626   0.008  0.00  0.00    -0.265 OA
ATOM      9  N   UNL     1      -0.016   1.342   0.009  0.00  0.00    -0.249 N 
ATOM     10  C   UNL     1      -1.300   2.047   0.019  0.00  0.00    +0.174 C 
ATOM     11 CL   UNL     1       1.333  -2.461  -0.025  0.00  0.00    -0.078 Cl
ENDROOT
TORSDOF 0
