REMARK  Name = ZINC13429565
REMARK  4 active torsions:
REMARK  status: ('A' for Active; 'I' for Inactive)
REMARK    1  A    between atoms: C_6  and  C_7
REMARK    2  A    between atoms: C_8  and  C_9
REMARK    3  A    between atoms: N_11  and  C_12
REMARK    4  A    between atoms: C_17  and  C_18
REMARK                            x       y       z     vdW  Elec       q    Type
REMARK                         _______ _______ _______ _____ _____    ______ ____
ROOT
ATOM      1  C   UNL     1      -6.109  -0.843   0.046  0.00  0.00    +0.241 C 
ATOM      2  O   UNL     1      -6.093  -2.060   0.022  0.00  0.00    -0.270 OA
ATOM      3  N   UNL     1      -7.285  -0.185   0.055  0.00  0.00    -0.281 N 
ATOM      4  H   UNL     1      -7.300   0.781   0.139  0.00  0.00    +0.155 HD
ENDROOT
BRANCH   3   5
ATOM      5  C   UNL     1      -8.480  -0.892  -0.055  0.00  0.00    +0.052 A 
ATOM      6  C   UNL     1      -8.603  -2.145   0.526  0.00  0.00    +0.073 A 
ATOM      7  C   UNL     1      -9.794  -2.849   0.422  0.00  0.00    +0.164 A 
ATOM      8  C   UNL     1     -10.872  -2.304  -0.277  0.00  0.00    +0.163 A 
ATOM      9  C   UNL     1     -10.759  -1.060  -0.865  0.00  0.00    +0.066 A 
ATOM     10  C   UNL     1      -9.562  -0.342  -0.761  0.00  0.00    +0.088 A 
ATOM     11  O   UNL     1     -12.046  -2.986  -0.385  0.00  0.00    -0.485 OA
ATOM     12  C   UNL     1     -12.005  -4.388  -0.101  0.00  0.00    +0.270 C 
ATOM     13  C   UNL     1     -11.212  -4.591   1.197  0.00  0.00    +0.270 C 
ATOM     14  O   UNL     1      -9.891  -4.075   1.002  0.00  0.00    -0.485 OA
BRANCH  10  15
ATOM     15  C   UNL     1      -9.438   0.983  -1.389  0.00  0.00    +0.388 C 
ATOM     16  O   UNL     1      -8.369   1.561  -1.382  0.00  0.00    -0.241 OA
ATOM     17  O   UNL     1     -10.510   1.556  -1.971  0.00  0.00    -0.241 OA
ENDBRANCH  10  15
ENDBRANCH   3   5
BRANCH   1  19
ATOM     18  C   UNL     1      -3.675  -0.755   0.055  0.00  0.00    +0.013 C 
ATOM     19  C   UNL     1      -4.853  -0.096   0.064  0.00  0.00    +0.068 C 
BRANCH  18  25
ATOM     20  C   UNL     1      -2.427   1.395   0.100  0.00  0.00    +0.012 A 
ATOM     21  C   UNL     1      -1.242   2.096   0.112  0.00  0.00    +0.050 A 
ATOM     22  C   UNL     1      -0.027   1.419   0.105  0.00  0.00    +0.162 A 
ATOM     23  C   UNL     1      -0.004   0.026   0.080  0.00  0.00    +0.163 A 
ATOM     24  C   UNL     1      -1.189  -0.684   0.064  0.00  0.00    +0.057 A 
ATOM     25  C   UNL     1      -2.412  -0.004   0.073  0.00  0.00    -0.021 A 
ATOM     26  O   UNL     1       1.178  -0.650   0.073  0.00  0.00    -0.485 OA
ATOM     27  C   UNL     1       2.344   0.098  -0.287  0.00  0.00    +0.270 C 
ATOM     28  C   UNL     1       2.320   1.426   0.481  0.00  0.00    +0.270 C 
ATOM     29  O   UNL     1       1.130   2.133   0.116  0.00  0.00    -0.485 OA
ENDBRANCH  18  25
ENDBRANCH   1  19
TORSDOF 4
