REMARK  Name = ZINC00804456
REMARK  11 active torsions:
REMARK  status: ('A' for Active; 'I' for Inactive)
REMARK    1  A    between atoms: C_1  and  C_2
REMARK    2  A    between atoms: C_4  and  C_30
REMARK    3  A    between atoms: C_5  and  N_9
REMARK    4  A    between atoms: C_6  and  C_8
REMARK    5  A    between atoms: C_10  and  C_12
REMARK    6  A    between atoms: C_12  and  C_14
REMARK    7  A    between atoms: C_12  and  S_15
REMARK    8  A    between atoms: S_15  and  C_16
REMARK    9  A    between atoms: N_20  and  C_21
REMARK   10  A    between atoms: N_24  and  C_29
REMARK   11  A    between atoms: N_27  and  C_28
REMARK                            x       y       z     vdW  Elec       q    Type
REMARK                         _______ _______ _______ _____ _____    ______ ____
ROOT
ATOM      1  C   UNL     1       6.121  -0.895  -0.366  0.00  0.00    +0.137 C 
ATOM      2  C   UNL     1       6.707  -0.997   1.044  0.00  0.00    +0.029 C 
ENDROOT
BRANCH   1   4
ATOM      3  N   UNL     1       3.691  -0.753   0.075  0.00  0.00    -0.284 N 
ATOM      4  C   UNL     1       4.822  -0.133  -0.315  0.00  0.00    +0.230 C 
ATOM      5  O   UNL     1       4.794   1.040  -0.625  0.00  0.00    -0.274 OA
ATOM      6  H   UNL     1       3.725  -1.670   0.390  0.00  0.00    +0.155 HD
BRANCH   3  11
ATOM      7  C   UNL     1      -1.267   1.996  -0.136  0.00  0.00    +0.044 C 
ATOM      8  C   UNL     1       0.048   1.264  -0.076  0.00  0.00    -0.050 A 
ATOM      9  C   UNL     1       1.101   1.792   0.649  0.00  0.00    +0.008 A 
ATOM     10  C   UNL     1       2.309   1.126   0.701  0.00  0.00    -0.029 A 
ATOM     11  C   UNL     1       2.467  -0.076   0.024  0.00  0.00    +0.039 A 
ATOM     12  C   UNL     1       1.409  -0.605  -0.703  0.00  0.00    -0.029 A 
ATOM     13  C   UNL     1       0.203   0.067  -0.751  0.00  0.00    +0.008 A 
ATOM     14  C   UNL     1       1.576  -1.909  -1.439  0.00  0.00    +0.045 C 
ATOM     15  C   UNL     1       3.455   1.703   1.492  0.00  0.00    +0.045 C 
ENDBRANCH   3  11
ENDBRANCH   1   4
BRANCH   1  16
ATOM     16  S   UNL     1       7.287  -0.027  -1.444  0.00  0.00    -0.075 S 
BRANCH  16  17
ATOM     17  C   UNL     1       8.620  -1.180  -1.442  0.00  0.00    +0.172 A 
ATOM     18  N   UNL     1       8.636  -2.326  -0.791  0.00  0.00    -0.204 NA
ATOM     19  C   UNL     1       9.792  -2.955  -1.004  0.00  0.00    +0.169 A 
ATOM     20  C   UNL     1      10.558  -2.154  -1.844  0.00  0.00    +0.152 A 
ATOM     21  N   UNL     1       9.791  -1.029  -2.118  0.00  0.00    -0.316 N 
ATOM     22  C   UNL     1      10.171   0.103  -2.967  0.00  0.00    +0.151 C 
ATOM     23  C   UNL     1      11.838  -2.590  -2.230  0.00  0.00    +0.282 A 
ATOM     24  O   UNL     1      12.526  -1.904  -2.966  0.00  0.00    -0.265 OA
ATOM     25  N   UNL     1      12.296  -3.775  -1.776  0.00  0.00    -0.262 N 
ATOM     26  C   UNL     1      11.548  -4.542  -0.964  0.00  0.00    +0.333 A 
ATOM     27  O   UNL     1      11.994  -5.604  -0.575  0.00  0.00    -0.246 OA
ATOM     28  N   UNL     1      10.318  -4.162  -0.571  0.00  0.00    -0.280 N 
ATOM     29  C   UNL     1       9.534  -5.026   0.315  0.00  0.00    +0.155 C 
ATOM     30  C   UNL     1      13.630  -4.232  -2.175  0.00  0.00    +0.157 C 
ENDBRANCH  16  17
ENDBRANCH   1  16
TORSDOF 4
