REMARK  Name = ZINC65319343
REMARK  11 active torsions:
REMARK  status: ('A' for Active; 'I' for Inactive)
REMARK    1  A    between atoms: C_1  and  C_2
REMARK    2  A    between atoms: C_2  and  C_3
REMARK    3  A    between atoms: C_2  and  C_4
REMARK    4  A    between atoms: C_2  and  N_5
REMARK    5  A    between atoms: N_5  and  C_6
REMARK    6  A    between atoms: C_7  and  C_20
REMARK    7  A    between atoms: C_14  and  O_18
REMARK    8  A    between atoms: O_18  and  C_19
REMARK    9  A    between atoms: C_23  and  O_27
REMARK   10  A    between atoms: C_24  and  O_26
REMARK   11  A    between atoms: O_27  and  C_28
REMARK                            x       y       z     vdW  Elec       q    Type
REMARK                         _______ _______ _______ _____ _____    ______ ____
ROOT
ATOM      1  C   UNL     1       2.049   0.359  -1.359  0.00  0.00    +0.132 A 
ATOM      2  C   UNL     1       2.902   0.176  -2.403  0.00  0.00    +0.112 A 
ATOM      3  N   UNL     1       4.029   0.895  -2.151  0.00  0.00    -0.219 NA
ATOM      4  C   UNL     1       3.892   1.499  -1.008  0.00  0.00    +0.180 A 
ATOM      5  N   UNL     1       2.673   1.215  -0.455  0.00  0.00    -0.274 N 
ATOM      6  C   UNL     1       2.355   1.792   0.784  0.00  0.00    +0.064 A 
ATOM      7  C   UNL     1       1.163   1.618   1.506  0.00  0.00    +0.031 A 
ATOM      8  C   UNL     1       0.973   2.243   2.715  0.00  0.00    +0.048 A 
ATOM      9  C   UNL     1       1.951   3.065   3.261  0.00  0.00    +0.121 A 
ATOM     10  C   UNL     1       3.138   3.253   2.567  0.00  0.00    +0.062 A 
ATOM     11  C   UNL     1       3.322   2.624   1.357  0.00  0.00    +0.043 A 
ATOM     12  S   UNL     1       4.652   2.583   0.180  0.00  0.00    -0.049 S 
ENDROOT
BRANCH   2  13
ATOM     13  C   UNL     1       2.649  -0.658  -3.600  0.00  0.00    +0.007 A 
ATOM     14  C   UNL     1       1.912  -1.836  -3.488  0.00  0.00    +0.014 A 
ATOM     15  C   UNL     1       1.677  -2.613  -4.605  0.00  0.00    +0.050 A 
ATOM     16  C   UNL     1       2.173  -2.224  -5.840  0.00  0.00    +0.161 A 
ATOM     17  C   UNL     1       2.910  -1.049  -5.958  0.00  0.00    +0.159 A 
ATOM     18  C   UNL     1       3.143  -0.263  -4.844  0.00  0.00    +0.059 A 
BRANCH  17  19
ATOM     19  O   UNL     1       3.397  -0.671  -7.171  0.00  0.00    -0.503 OA
ATOM     20  H   UNL     1       2.794  -0.111  -7.679  0.00  0.00    +0.292 HD
ENDBRANCH  17  19
BRANCH  16  21
ATOM     21  O   UNL     1       1.940  -2.993  -6.937  0.00  0.00    -0.491 OA
ATOM     22  C   UNL     1       1.177  -4.186  -6.744  0.00  0.00    +0.277 C 
ENDBRANCH  16  21
ENDBRANCH   2  13
BRANCH   1  23
ATOM     23  N   UNL     1       0.778  -0.202  -1.222  0.00  0.00    -0.324 N 
ATOM     24  H   UNL     1       0.446  -0.819  -1.893  0.00  0.00    +0.148 HD
BRANCH  23  26
ATOM     25  C   UNL     1      -0.202   1.660   0.024  0.00  0.00    +0.031 C 
ATOM     26  C   UNL     1      -0.053   0.140  -0.065  0.00  0.00    +0.025 C 
ATOM     27  C   UNL     1       0.608  -0.385   1.211  0.00  0.00    +0.031 C 
ATOM     28  C   UNL     1      -1.434  -0.499  -0.224  0.00  0.00    +0.031 C 
ENDBRANCH  23  26
ENDBRANCH   1  23
BRANCH   9  29
ATOM     29  O   UNL     1       1.748   3.676   4.458  0.00  0.00    -0.495 OA
ATOM     30  C   UNL     1       0.500   3.431   5.109  0.00  0.00    +0.277 C 
ENDBRANCH   9  29
TORSDOF 6
