REMARK  Name = ZINC63589154
REMARK  11 active torsions:
REMARK  status: ('A' for Active; 'I' for Inactive)
REMARK    1  A    between atoms: C_1  and  C_2
REMARK    2  A    between atoms: C_5  and  C_34
REMARK    3  A    between atoms: C_6  and  N_8
REMARK    4  A    between atoms: N_10  and  C_11
REMARK    5  A    between atoms: C_11  and  C_12
REMARK    6  A    between atoms: C_12  and  C_13
REMARK    7  A    between atoms: N_22  and  C_23
REMARK    8  A    between atoms: C_23  and  C_25
REMARK    9  A    between atoms: C_29  and  N_31
REMARK   10  A    between atoms: N_31  and  C_32
REMARK   11  A    between atoms: N_31  and  C_33
REMARK                            x       y       z     vdW  Elec       q    Type
REMARK                         _______ _______ _______ _____ _____    ______ ____
ROOT
ATOM      1  N   UNL     1       0.638  -2.725   2.376  0.00  0.00    -0.328 N 
ATOM      2  C   UNL     1       0.433  -2.094   3.569  0.00  0.00    +0.194 C 
ATOM      3  N   UNL     1       0.518  -2.796   4.736  0.00  0.00    -0.357 N 
ATOM      4  N   UNL     1       0.152  -0.799   3.594  0.00  0.00    -0.143 NA
ATOM      5  H   UNL     1       0.373  -2.347   5.583  0.00  0.00    +0.162 HD
ATOM      6  H   UNL     1       0.015  -3.404   2.074  0.00  0.00    +0.169 HD
ENDROOT
BRANCH   1  12
ATOM      7  C   UNL     1       4.502   0.194   1.529  0.00  0.00    +0.044 C 
ATOM      8  C   UNL     1       3.636  -0.981   1.156  0.00  0.00    -0.048 A 
ATOM      9  C   UNL     1       3.937  -1.732   0.034  0.00  0.00    +0.004 A 
ATOM     10  C   UNL     1       3.145  -2.811  -0.312  0.00  0.00    +0.005 A 
ATOM     11  C   UNL     1       2.050  -3.143   0.462  0.00  0.00    -0.027 A 
ATOM     12  C   UNL     1       1.746  -2.392   1.590  0.00  0.00    +0.045 A 
ATOM     13  C   UNL     1       2.547  -1.311   1.938  0.00  0.00    +0.029 A 
ATOM     14  C   UNL     1       1.187  -4.319   0.084  0.00  0.00    +0.046 C 
ENDBRANCH   1  12
BRANCH   4  15
ATOM     15  C   UNL     1       0.019  -0.121   2.447  0.00  0.00    +0.270 C 
ATOM     16  O   UNL     1       0.047  -0.712   1.383  0.00  0.00    -0.268 OA
BRANCH  15  17
ATOM     17  C   UNL     1      -0.161   1.349   2.473  0.00  0.00    +0.041 A 
ATOM     18  C   UNL     1      -0.102   2.040   3.684  0.00  0.00    +0.013 A 
ATOM     19  C   UNL     1      -0.270   3.410   3.706  0.00  0.00    +0.003 A 
ATOM     20  C   UNL     1      -0.497   4.102   2.531  0.00  0.00    +0.023 A 
ATOM     21  C   UNL     1      -0.556   3.423   1.320  0.00  0.00    +0.030 A 
ATOM     22  C   UNL     1      -0.384   2.047   1.287  0.00  0.00    +0.036 A 
BRANCH  21  23
ATOM     23  N   UNL     1      -0.786   4.126   0.135  0.00  0.00    -0.336 N 
ATOM     24  C   UNL     1       0.225   5.057  -0.373  0.00  0.00    +0.129 C 
ATOM     25  C   UNL     1      -2.039   3.934  -0.600  0.00  0.00    +0.129 C 
ENDBRANCH  21  23
ENDBRANCH  15  17
ENDBRANCH   4  15
BRANCH   3  26
ATOM     26  C   UNL     1       0.829  -4.227   4.708  0.00  0.00    +0.120 C 
BRANCH  26  27
ATOM     27  C   UNL     1       0.865  -4.769   6.138  0.00  0.00    +0.054 C 
BRANCH  27  28
ATOM     28  C   UNL     1       1.185  -6.241   6.110  0.00  0.00    -0.040 C 
ATOM     29  C   UNL     1       2.403  -6.811   6.254  0.00  0.00    -0.001 A 
ATOM     30  C   UNL     1       3.743  -6.253   6.471  0.00  0.00    +0.010 A 
ATOM     31  C   UNL     1       4.795  -7.096   6.578  0.00  0.00    +0.001 A 
ATOM     32  C   UNL     1       4.639  -8.486   6.486  0.00  0.00    +0.002 A 
ATOM     33  C   UNL     1       3.440  -9.073   6.287  0.00  0.00    +0.026 A 
ATOM     34  C   UNL     1       2.264  -8.282   6.161  0.00  0.00    +0.043 A 
ATOM     35  N   UNL     1       1.009  -8.609   5.967  0.00  0.00    -0.380 N 
ATOM     36  C   UNL     1       0.208  -7.380   5.921  0.00  0.00    +0.144 C 
ATOM     37  H   UNL     1       0.667  -9.511   5.874  0.00  0.00    +0.160 HD
ENDBRANCH  27  28
ENDBRANCH  26  27
ENDBRANCH   3  26
TORSDOF 7
