REMARK  Name = ZINC13640471
REMARK  8 active torsions:
REMARK  status: ('A' for Active; 'I' for Inactive)
REMARK    1  A    between atoms: C_1  and  C_2
REMARK    2  A    between atoms: C_2  and  N_3
REMARK    3  A    between atoms: N_3  and  C_4
REMARK    4  A    between atoms: C_4  and  C_5
REMARK    5  A    between atoms: C_6  and  C_8
REMARK    6  A    between atoms: C_21  and  C_24
REMARK    7  A    between atoms: C_27  and  O_31
REMARK    8  A    between atoms: C_29  and  O_30
REMARK                            x       y       z     vdW  Elec       q    Type
REMARK                         _______ _______ _______ _____ _____    ______ ____
ROOT
ATOM      1  C   UNL     1       3.808  -6.441   0.059  0.00  0.00    +0.037 A 
ATOM      2  C   UNL     1       4.142  -5.661   1.171  0.00  0.00    +0.015 A 
ATOM      3  C   UNL     1       4.029  -4.292   1.098  0.00  0.00    +0.024 A 
ATOM      4  C   UNL     1       3.586  -3.687  -0.075  0.00  0.00    +0.031 A 
ATOM      5  C   UNL     1       3.256  -4.452  -1.188  0.00  0.00    -0.019 A 
ATOM      6  C   UNL     1       3.367  -5.829  -1.114  0.00  0.00    +0.019 A 
ATOM      7  C   UNL     1       2.788  -3.840  -2.470  0.00  0.00    +0.049 C 
ATOM      8  C   UNL     1       1.302  -4.022  -2.661  0.00  0.00    -0.023 C 
ATOM      9  C   UNL     1       0.784  -2.964  -3.237  0.00  0.00    -0.030 C 
ATOM     10  C   UNL     1       1.860  -1.932  -3.514  0.00  0.00    +0.033 C 
ATOM     11  C   UNL     1       2.989  -2.312  -2.515  0.00  0.00    +0.029 C 
ATOM     12  C   UNL     1       2.627  -1.700  -1.158  0.00  0.00    +0.108 C 
ATOM     13  N   UNL     1       3.477  -2.299  -0.124  0.00  0.00    -0.336 N 
ATOM     14  H   UNL     1       3.953  -1.741   0.511  0.00  0.00    +0.147 HD
ENDROOT
BRANCH  12  15
ATOM     15  C   UNL     1       2.855  -0.211  -1.199  0.00  0.00    +0.015 A 
ATOM     16  C   UNL     1       1.776   0.651  -1.234  0.00  0.00    +0.012 A 
ATOM     17  C   UNL     1       1.981   2.017  -1.272  0.00  0.00    +0.046 A 
ATOM     18  C   UNL     1       3.272   2.526  -1.274  0.00  0.00    +0.120 A 
ATOM     19  C   UNL     1       4.356   1.663  -1.240  0.00  0.00    +0.091 A 
ATOM     20  C   UNL     1       4.147   0.293  -1.202  0.00  0.00    +0.125 A 
BRANCH  20  21
ATOM     21  O   UNL     1       5.208  -0.556  -1.168  0.00  0.00    -0.506 OA
ATOM     22  H   UNL     1       5.558  -0.712  -0.280  0.00  0.00    +0.292 HD
ENDBRANCH  20  21
BRANCH  18  23
ATOM     23  O   UNL     1       3.473   3.870  -1.311  0.00  0.00    -0.507 OA
ATOM     24  H   UNL     1       3.539   4.233  -2.205  0.00  0.00    +0.292 HD
ENDBRANCH  18  23
ENDBRANCH  12  15
BRANCH   1  26
ATOM     25  N   UNL     1       4.959  -8.475   0.780  0.00  0.00    -0.298 N 
ATOM     26  C   UNL     1       3.924  -7.910   0.127  0.00  0.00    +0.247 C 
ATOM     27  O   UNL     1       3.086  -8.611  -0.406  0.00  0.00    -0.270 OA
BRANCH  25  29
ATOM     28  C   UNL     1       5.908 -10.494  -0.222  0.00  0.00    +0.024 C 
ATOM     29  C   UNL     1       5.038  -9.932   0.905  0.00  0.00    +0.104 C 
ENDBRANCH  25  29
BRANCH  25  30
ATOM     30  C   UNL     1       6.005  -7.632   1.364  0.00  0.00    +0.104 C 
ATOM     31  C   UNL     1       5.814  -7.560   2.881  0.00  0.00    +0.024 C 
ENDBRANCH  25  30
ENDBRANCH   1  26
TORSDOF 6
