REMARK  Name = ZINC66995520
REMARK  6 active torsions:
REMARK  status: ('A' for Active; 'I' for Inactive)
REMARK    1  A    between atoms: C_6  and  C_7
REMARK    2  A    between atoms: C_8  and  C_9
REMARK    3  A    between atoms: N_11  and  N_12
REMARK    4  A    between atoms: C_13  and  C_15
REMARK    5  A    between atoms: C_19  and  S_21
REMARK    6  A    between atoms: S_21  and  N_24
REMARK                            x       y       z     vdW  Elec       q    Type
REMARK                         _______ _______ _______ _____ _____    ______ ____
ROOT
ATOM      1  N   UNL     1       1.281  -4.836  -0.342  0.00  0.00    -0.230 N 
ATOM      2  C   UNL     1       1.305  -6.167  -0.552  0.00  0.00    +0.260 C 
ATOM      3  O   UNL     1       0.266  -6.773  -0.727  0.00  0.00    -0.269 OA
ATOM      4  H   UNL     1       2.110  -4.352  -0.201  0.00  0.00    +0.173 HD
ENDROOT
BRANCH   2   5
ATOM      5  C   UNL     1       2.594  -6.889  -0.569  0.00  0.00    +0.040 A 
ATOM      6  C   UNL     1       3.788  -6.196  -0.361  0.00  0.00    +0.014 A 
ATOM      7  C   UNL     1       4.988  -6.876  -0.378  0.00  0.00    +0.023 A 
ATOM      8  C   UNL     1       5.010  -8.243  -0.601  0.00  0.00    +0.067 A 
ATOM      9  C   UNL     1       3.828  -8.935  -0.807  0.00  0.00    +0.124 A 
ATOM     10  C   UNL     1       2.622  -8.268  -0.786  0.00  0.00    +0.043 A 
ATOM     11 CL   UNL     1       6.524  -9.092  -0.621  0.00  0.00    -0.082 Cl
BRANCH   9  12
ATOM     12  S   UNL     1       3.866 -10.674  -1.090  0.00  0.00    +0.057 S 
ATOM     13  O   UNL     1       4.689 -11.233  -0.075  0.00  0.00    -0.153 OA
ATOM     14  O   UNL     1       2.520 -11.083  -1.290  0.00  0.00    -0.153 OA
BRANCH  12  15
ATOM     15  N   UNL     1       4.654 -10.919  -2.526  0.00  0.00    -0.203 NA
ATOM     16  H   UNL     1       4.989 -10.162  -3.031  0.00  0.00    +0.144 HD
ATOM     17  H   UNL     1       4.780 -11.820  -2.863  0.00  0.00    +0.144 HD
ENDBRANCH  12  15
ENDBRANCH   9  12
ENDBRANCH   2   5
BRANCH   1  20
ATOM     18  C   UNL     1       0.035  -2.820  -0.115  0.00  0.00    +0.253 C 
ATOM     19  O   UNL     1       1.075  -2.213   0.060  0.00  0.00    -0.269 OA
ATOM     20  N   UNL     1       0.059  -4.151  -0.326  0.00  0.00    -0.231 N 
ATOM     21  H   UNL     1      -0.770  -4.635  -0.466  0.00  0.00    +0.173 HD
BRANCH  18  23
ATOM     22  C   UNL     1      -1.279  -0.800   0.244  0.00  0.00    +0.013 C 
ATOM     23  C   UNL     1      -1.242  -2.104  -0.099  0.00  0.00    +0.069 C 
BRANCH  22  29
ATOM     24  C   UNL     1       0.358   1.069   0.347  0.00  0.00    +0.011 A 
ATOM     25  C   UNL     1       1.469   1.663   0.906  0.00  0.00    +0.039 A 
ATOM     26  C   UNL     1       2.138   1.044   1.952  0.00  0.00    +0.123 A 
ATOM     27  C   UNL     1       1.694  -0.175   2.442  0.00  0.00    +0.039 A 
ATOM     28  C   UNL     1       0.585  -0.780   1.891  0.00  0.00    +0.011 A 
ATOM     29  C   UNL     1      -0.094  -0.161   0.836  0.00  0.00    -0.025 A 
ATOM     30  F   UNL     1       3.226   1.631   2.495  0.00  0.00    -0.205 F 
ENDBRANCH  22  29
ENDBRANCH  18  23
ENDBRANCH   1  20
TORSDOF 6
