REMARK  Name = ZINC39711977
REMARK  8 active torsions:
REMARK  status: ('A' for Active; 'I' for Inactive)
REMARK    1  A    between atoms: C_1  and  C_2
REMARK    2  A    between atoms: C_2  and  N_3
REMARK    3  A    between atoms: C_4  and  C_14
REMARK    4  A    between atoms: C_8  and  S_9
REMARK    5  A    between atoms: S_9  and  C_10
REMARK    6  A    between atoms: C_10  and  C_11
REMARK    7  A    between atoms: C_17  and  C_25
REMARK    8  A    between atoms: C_18  and  C_24
REMARK                            x       y       z     vdW  Elec       q    Type
REMARK                         _______ _______ _______ _____ _____    ______ ____
ROOT
ATOM      1  N   UNL     1       0.711  -0.489   1.189  0.00  0.00    -0.285 N 
ATOM      2  C   UNL     1       2.154  -0.758   1.304  0.00  0.00    +0.208 C 
ATOM      3  N   UNL     1       2.318  -1.219   2.693  0.00  0.00    -0.242 N 
ATOM      4  N   UNL     1       1.041  -1.192   3.267  0.00  0.00    -0.162 NA
ATOM      5  C   UNL     1       0.154  -0.780   2.426  0.00  0.00    +0.176 C 
ATOM      6  H   UNL     1       3.145  -1.487   3.124  0.00  0.00    +0.170 HD
ENDROOT
BRANCH   2   7
ATOM      7  C   UNL     1       2.570  -1.834   0.334  0.00  0.00    -0.008 C 
ATOM      8  C   UNL     1       3.512  -1.566  -0.621  0.00  0.00    +0.013 C 
ATOM      9  C   UNL     1       3.780  -2.623  -1.509  0.00  0.00    -0.014 C 
ATOM     10  C   UNL     1       4.882  -2.995  -2.182  0.00  0.00    -0.024 C 
ATOM     11  C   UNL     1       4.696  -4.298  -2.698  0.00  0.00    +0.037 C 
ATOM     12  N   UNL     1       3.486  -4.736  -2.498  0.00  0.00    -0.276 NA
ATOM     13  C   UNL     1       2.734  -3.671  -1.851  0.00  0.00    +0.159 C 
ATOM     14  C   UNL     1       2.046  -4.057  -0.577  0.00  0.00    +0.004 C 
ATOM     15  C   UNL     1       1.973  -3.163   0.419  0.00  0.00    +0.005 C 
ATOM     16  C   UNL     1       5.772  -5.086  -3.398  0.00  0.00    +0.065 C 
ATOM     17  C   UNL     1       6.121  -2.156  -2.358  0.00  0.00    +0.046 C 
ENDBRANCH   2   7
BRANCH   1  19
ATOM     18  C   UNL     1      -0.019   1.526   0.010  0.00  0.00    +0.024 C 
ATOM     19  C   UNL     1       0.002  -0.004   0.002  0.00  0.00    +0.106 C 
ENDBRANCH   1  19
BRANCH   5  20
ATOM     20  S   UNL     1      -1.559  -0.610   2.802  0.00  0.00    -0.080 S 
BRANCH  20  21
ATOM     21  C   UNL     1      -1.681  -1.127   4.536  0.00  0.00    +0.172 C 
BRANCH  21  22
ATOM     22  C   UNL     1      -3.114  -1.028   4.990  0.00  0.00    +0.221 C 
ATOM     23  O   UNL     1      -3.970  -0.647   4.220  0.00  0.00    -0.275 OA
ATOM     24  N   UNL     1      -3.446  -1.364   6.253  0.00  0.00    -0.329 N 
ATOM     25  H   UNL     1      -2.762  -1.669   6.869  0.00  0.00    +0.145 HD
ATOM     26  H   UNL     1      -4.369  -1.300   6.545  0.00  0.00    +0.145 HD
ENDBRANCH  21  22
ENDBRANCH  20  21
ENDBRANCH   5  20
TORSDOF 5
