REMARK  Name = ZINC61479492
REMARK  6 active torsions:
REMARK  status: ('A' for Active; 'I' for Inactive)
REMARK    1  A    between atoms: C_4  and  O_7
REMARK    2  A    between atoms: O_7  and  C_8
REMARK    3  A    between atoms: C_8  and  C_9
REMARK    4  A    between atoms: C_9  and  C_10
REMARK    5  A    between atoms: N_12  and  N_13
REMARK    6  A    between atoms: C_14  and  C_16
REMARK                            x       y       z     vdW  Elec       q    Type
REMARK                         _______ _______ _______ _____ _____    ______ ____
ROOT
ATOM      1  N   UNL     1       5.984  -6.247  -0.091  0.00  0.00    -0.230 N 
ATOM      2  C   UNL     1       7.125  -6.965  -0.107  0.00  0.00    +0.260 C 
ATOM      3  O   UNL     1       8.200  -6.397  -0.115  0.00  0.00    -0.269 OA
ATOM      4  H   UNL     1       5.127  -6.700  -0.085  0.00  0.00    +0.173 HD
ENDROOT
BRANCH   2   5
ATOM      5  C   UNL     1       7.069  -8.440  -0.114  0.00  0.00    +0.040 A 
ATOM      6  C   UNL     1       5.835  -9.093  -0.111  0.00  0.00    +0.017 A 
ATOM      7  C   UNL     1       5.781 -10.471  -0.118  0.00  0.00    +0.048 A 
ATOM      8  C   UNL     1       6.953 -11.212  -0.129  0.00  0.00    +0.142 A 
ATOM      9  C   UNL     1       8.191 -10.565  -0.132  0.00  0.00    +0.076 A 
ATOM     10  C   UNL     1       8.252  -9.185  -0.130  0.00  0.00    +0.040 A 
ATOM     11  N   UNL     1       9.366 -11.332  -0.142  0.00  0.00    -0.280 N 
ATOM     12  C   UNL     1       9.289 -12.641  -0.464  0.00  0.00    +0.255 C 
ATOM     13  O   UNL     1      10.286 -13.331  -0.450  0.00  0.00    -0.272 OA
ATOM     14  C   UNL     1       7.958 -13.242  -0.841  0.00  0.00    +0.325 C 
ATOM     15  O   UNL     1       6.911 -12.570  -0.136  0.00  0.00    -0.481 OA
ATOM     16  H   UNL     1      10.219 -10.928   0.079  0.00  0.00    +0.155 HD
ENDBRANCH   2   5
BRANCH   1  19
ATOM     17  C   UNL     1       4.897  -4.130  -0.069  0.00  0.00    +0.232 C 
ATOM     18  O   UNL     1       3.824  -4.696  -0.061  0.00  0.00    -0.274 OA
ATOM     19  N   UNL     1       6.037  -4.847  -0.085  0.00  0.00    -0.234 N 
ATOM     20  H   UNL     1       6.895  -4.394  -0.091  0.00  0.00    +0.173 HD
BRANCH  17  21
ATOM     21  C   UNL     1       4.954  -2.624  -0.061  0.00  0.00    +0.138 C 
BRANCH  21  22
ATOM     22  C   UNL     1       3.531  -2.060  -0.044  0.00  0.00    +0.238 C 
BRANCH  22  23
ATOM     23  O   UNL     1       3.586  -0.632  -0.037  0.00  0.00    -0.491 OA
BRANCH  23  27
ATOM     24  C   UNL     1      -0.017   1.378   0.010  0.00  0.00    +0.000 A 
ATOM     25  C   UNL     1       1.170   2.088   0.002  0.00  0.00    +0.004 A 
ATOM     26  C   UNL     1       2.377   1.417  -0.013  0.00  0.00    +0.045 A 
ATOM     27  C   UNL     1       2.399   0.030  -0.021  0.00  0.00    +0.121 A 
ATOM     28  C   UNL     1       1.207  -0.680  -0.013  0.00  0.00    +0.045 A 
ATOM     29  C   UNL     1       0.002  -0.004   0.002  0.00  0.00    +0.004 A 
ENDBRANCH  23  27
ENDBRANCH  22  23
ENDBRANCH  21  22
ENDBRANCH  17  21
ENDBRANCH   1  19
TORSDOF 6
