REMARK  Name = ZINC09304343
REMARK  7 active torsions:
REMARK  status: ('A' for Active; 'I' for Inactive)
REMARK    1  A    between atoms: C_1  and  C_2
REMARK    2  A    between atoms: C_2  and  C_32
REMARK    3  A    between atoms: C_4  and  N_9
REMARK    4  A    between atoms: C_6  and  C_7
REMARK    5  A    between atoms: C_6  and  C_8
REMARK    6  A    between atoms: C_10  and  C_12
REMARK    7  A    between atoms: N_23  and  C_25
REMARK                            x       y       z     vdW  Elec       q    Type
REMARK                         _______ _______ _______ _____ _____    ______ ____
ROOT
ATOM      1  C   UNL     1      -1.237   2.580  -1.441  0.00  0.00    +0.122 C 
ATOM      2  C   UNL     1      -1.242   1.993   0.018  0.00  0.00    +0.155 C 
ATOM      3  C   UNL     1      -0.013   1.076   0.008  0.00  0.00    +0.004 C 
ATOM      4  C   UNL     1       1.028   1.897   0.002  0.00  0.00    +0.008 C 
ATOM      5  C   UNL     1       0.447   3.297   0.076  0.00  0.00    +0.116 C 
ATOM      6  C   UNL     1      -0.187   3.656  -1.327  0.00  0.00    +0.127 C 
ATOM      7  C   UNL     1       1.034   3.794  -2.140  0.00  0.00    +0.227 C 
ATOM      8  O   UNL     1       1.159   3.505  -3.311  0.00  0.00    -0.275 OA
ATOM      9  N   UNL     1       2.005   4.314  -1.318  0.00  0.00    -0.268 N 
ATOM     10  C   UNL     1       1.500   4.362   0.090  0.00  0.00    +0.153 C 
ATOM     11  O   UNL     1      -0.737   3.143   0.822  0.00  0.00    -0.359 OA
ENDROOT
BRANCH   9  12
ATOM     12  C   UNL     1       3.274   4.734  -1.734  0.00  0.00    +0.036 A 
ATOM     13  C   UNL     1       4.173   5.251  -0.811  0.00  0.00    +0.023 A 
ATOM     14  C   UNL     1       5.426   5.660  -1.224  0.00  0.00    +0.002 A 
ATOM     15  C   UNL     1       5.781   5.566  -2.557  0.00  0.00    +0.000 A 
ATOM     16  C   UNL     1       4.886   5.057  -3.480  0.00  0.00    +0.002 A 
ATOM     17  C   UNL     1       3.633   4.641  -3.072  0.00  0.00    +0.023 A 
ENDBRANCH   9  12
BRANCH   1  19
ATOM     18  N   UNL     1      -3.650   2.364  -1.940  0.00  0.00    -0.312 N 
ATOM     19  C   UNL     1      -2.579   3.168  -1.792  0.00  0.00    +0.220 C 
ATOM     20  O   UNL     1      -2.695   4.366  -1.943  0.00  0.00    -0.275 OA
ATOM     21  H   UNL     1      -3.557   1.406  -1.819  0.00  0.00    +0.149 HD
BRANCH  18  25
ATOM     22  C   UNL     1      -7.059   3.378  -4.536  0.00  0.00    -0.010 C 
ATOM     23  C   UNL     1      -7.181   2.438  -3.330  0.00  0.00    -0.072 C 
ATOM     24  C   UNL     1      -5.806   1.875  -2.981  0.00  0.00    +0.009 C 
ATOM     25  C   UNL     1      -4.958   2.937  -2.282  0.00  0.00    +0.070 C 
ATOM     26  C   UNL     1      -5.672   3.362  -1.000  0.00  0.00    +0.009 C 
ATOM     27  C   UNL     1      -7.047   3.942  -1.324  0.00  0.00    -0.072 C 
ATOM     28  C   UNL     1      -6.885   5.355  -1.899  0.00  0.00    -0.010 C 
ATOM     29  C   UNL     1      -7.821   4.077   0.007  0.00  0.00    -0.010 C 
ATOM     30  C   UNL     1      -8.073   1.254  -3.763  0.00  0.00    -0.010 C 
ATOM     31  N   UNL     1      -7.896   3.092  -2.201  0.00  0.00    +0.386 N 
ATOM     32  H   UNL     1      -8.314   2.355  -1.621  0.00  0.00    -0.084 HD
ATOM     33  H   UNL     1      -8.638   3.682  -2.593  0.00  0.00    -0.084 HD
ENDBRANCH  18  25
ENDBRANCH   1  19
TORSDOF 3
