REMARK  Name = ZINC38008920
REMARK  6 active torsions:
REMARK  status: ('A' for Active; 'I' for Inactive)
REMARK    1  A    between atoms: C_1  and  C_2
REMARK    2  A    between atoms: C_5  and  C_20
REMARK    3  A    between atoms: C_6  and  N_8
REMARK    4  A    between atoms: N_8  and  S_9
REMARK    5  A    between atoms: S_9  and  C_12
REMARK    6  A    between atoms: N_18  and  N_19
REMARK                            x       y       z     vdW  Elec       q    Type
REMARK                         _______ _______ _______ _____ _____    ______ ____
ROOT
ATOM      1  S   UNL     1       0.048  -1.979   3.830  0.00  0.00    +0.092 S 
ATOM      2  O   UNL     1       1.284  -1.283   3.906  0.00  0.00    -0.148 OA
ATOM      3  O   UNL     1      -1.206  -1.316   3.918  0.00  0.00    -0.148 OA
ENDROOT
BRANCH   1   4
ATOM      4  C   UNL     1       0.070  -3.186   5.114  0.00  0.00    +0.115 A 
ATOM      5  C   UNL     1      -1.115  -3.692   5.633  0.00  0.00    +0.046 A 
ATOM      6  C   UNL     1      -1.063  -4.637   6.638  0.00  0.00    +0.086 A 
ATOM      7  N   UNL     1       0.094  -5.062   7.109  0.00  0.00    -0.349 N 
ATOM      8  C   UNL     1       1.245  -4.604   6.641  0.00  0.00    +0.112 A 
ATOM      9  C   UNL     1       1.267  -3.654   5.624  0.00  0.00    +0.071 A 
ATOM     10  N   UNL     1       2.441  -5.079   7.166  0.00  0.00    -0.269 N 
ATOM     11  H   UNL     1       3.286  -4.746   6.826  0.00  0.00    +0.167 HD
ATOM     12  H   UNL     1       0.102  -5.727   7.815  0.00  0.00    +0.167 HD
BRANCH  10  13
ATOM     13  N   UNL     1       2.426  -6.015   8.161  0.00  0.00    -0.255 NA
ATOM     14  H   UNL     1       1.904  -6.832   7.880  0.00  0.00    +0.140 HD
ATOM     15  H   UNL     1       3.364  -6.262   8.439  0.00  0.00    +0.140 HD
ENDBRANCH  10  13
ENDBRANCH   1   4
BRANCH   1  16
ATOM     16  N   UNL     1       0.051  -2.796   2.390  0.00  0.00    -0.098 NA
BRANCH  16  22
ATOM     17  C   UNL     1      -0.018   1.503   0.010  0.00  0.00    +0.044 C 
ATOM     18  C   UNL     1       0.002  -0.004   0.002  0.00  0.00    -0.049 A 
ATOM     19  C   UNL     1       0.006  -0.688  -1.200  0.00  0.00    +0.004 A 
ATOM     20  C   UNL     1       0.024  -2.071  -1.212  0.00  0.00    +0.005 A 
ATOM     21  C   UNL     1       0.039  -2.773  -0.023  0.00  0.00    -0.026 A 
ATOM     22  C   UNL     1       0.036  -2.089   1.186  0.00  0.00    +0.077 A 
ATOM     23  C   UNL     1       0.023  -0.700   1.194  0.00  0.00    +0.030 A 
ATOM     24  C   UNL     1       0.059  -4.280  -0.037  0.00  0.00    +0.046 C 
ENDBRANCH  16  22
ENDBRANCH   1  16
TORSDOF 4
