REMARK  Name = ZINC40986897
REMARK  12 active torsions:
REMARK  status: ('A' for Active; 'I' for Inactive)
REMARK    1  A    between atoms: C_1  and  C_2
REMARK    2  A    between atoms: C_2  and  C_3
REMARK    3  A    between atoms: C_3  and  C_4
REMARK    4  A    between atoms: C_4  and  S_5
REMARK    5  A    between atoms: S_5  and  C_6
REMARK    6  A    between atoms: C_11  and  C_20
REMARK    7  A    between atoms: C_13  and  C_17
REMARK    8  A    between atoms: C_14  and  C_16
REMARK    9  A    between atoms: C_23  and  O_26
REMARK   10  A    between atoms: O_26  and  C_27
REMARK   11  A    between atoms: C_27  and  C_28
REMARK   12  A    between atoms: C_31  and  C_34
REMARK                            x       y       z     vdW  Elec       q    Type
REMARK                         _______ _______ _______ _____ _____    ______ ____
ROOT
ATOM      1  C   UNL     1      -2.722  -4.452   0.434  0.00  0.00    +0.210 A 
ATOM      2  N   UNL     1      -1.595  -5.175   0.353  0.00  0.00    -0.187 NA
ATOM      3  C   UNL     1      -1.896  -6.432   0.168  0.00  0.00    +0.219 A 
ATOM      4  N   UNL     1      -3.247  -6.541   0.131  0.00  0.00    -0.220 N 
ATOM      5  N   UNL     1      -3.757  -5.255   0.306  0.00  0.00    -0.141 NA
ATOM      6  C   UNL     1      -3.951  -7.807  -0.052  0.00  0.00    +0.177 C 
ATOM      7  C   UNL     1      -2.972  -8.867  -0.480  0.00  0.00    +0.060 C 
ATOM      8  C   UNL     1      -1.642  -8.701  -0.425  0.00  0.00    +0.018 C 
ATOM      9  N   UNL     1      -1.068  -7.536   0.021  0.00  0.00    -0.287 N 
ATOM     10  C   UNL     1      -0.748  -9.831  -0.867  0.00  0.00    +0.061 C 
ATOM     11  H   UNL     1      -0.121  -7.487   0.225  0.00  0.00    +0.155 HD
ENDROOT
BRANCH   6  12
ATOM     12  C   UNL     1      -4.597  -8.215   1.248  0.00  0.00    -0.018 A 
ATOM     13  C   UNL     1      -3.817  -8.419   2.371  0.00  0.00    +0.009 A 
ATOM     14  C   UNL     1      -4.407  -8.793   3.563  0.00  0.00    +0.046 A 
ATOM     15  C   UNL     1      -5.782  -8.964   3.632  0.00  0.00    +0.121 A 
ATOM     16  C   UNL     1      -6.562  -8.759   2.503  0.00  0.00    +0.046 A 
ATOM     17  C   UNL     1      -5.968  -8.380   1.315  0.00  0.00    +0.009 A 
BRANCH  15  18
ATOM     18  O   UNL     1      -6.364  -9.333   4.803  0.00  0.00    -0.487 OA
BRANCH  18  19
ATOM     19  C   UNL     1      -7.785  -9.491   4.801  0.00  0.00    +0.264 C 
BRANCH  19  20
ATOM     20  C   UNL     1      -8.248  -9.899   6.175  0.00  0.00    -0.010 A 
ATOM     21  C   UNL     1      -8.326 -11.238   6.509  0.00  0.00    +0.007 A 
ATOM     22  C   UNL     1      -8.751 -11.613   7.770  0.00  0.00    +0.004 A 
ATOM     23  C   UNL     1      -9.096 -10.648   8.698  0.00  0.00    -0.050 A 
ATOM     24  C   UNL     1      -9.017  -9.309   8.364  0.00  0.00    +0.004 A 
ATOM     25  C   UNL     1      -8.588  -8.934   7.105  0.00  0.00    +0.007 A 
ATOM     26  C   UNL     1      -9.560 -11.056  10.072  0.00  0.00    +0.044 C 
ENDBRANCH  19  20
ENDBRANCH  18  19
ENDBRANCH  15  18
ENDBRANCH   6  12
BRANCH   7  27
ATOM     27  C   UNL     1      -3.478 -10.097  -0.963  0.00  0.00    +0.241 C 
ATOM     28  O   UNL     1      -3.858 -10.188  -2.117  0.00  0.00    -0.271 OA
ATOM     29  N   UNL     1      -3.540 -11.168  -0.147  0.00  0.00    -0.325 N 
ATOM     30  H   UNL     1      -3.237 -11.096   0.771  0.00  0.00    +0.145 HD
ATOM     31  H   UNL     1      -3.887 -12.011  -0.479  0.00  0.00    +0.145 HD
ENDBRANCH   7  27
BRANCH   1  32
ATOM     32  S   UNL     1      -2.804  -2.709   0.679  0.00  0.00    -0.084 S 
BRANCH  32  33
ATOM     33  C   UNL     1      -1.066  -2.197   0.775  0.00  0.00    +0.077 C 
BRANCH  33  34
ATOM     34  C   UNL     1      -0.991  -0.684   0.990  0.00  0.00    +0.011 C 
BRANCH  34  36
ATOM     35  C   UNL     1       0.549   1.260   1.286  0.00  0.00    +0.004 C 
ATOM     36  C   UNL     1       0.474  -0.253   1.071  0.00  0.00    -0.003 C 
ENDBRANCH  34  36
ENDBRANCH  33  34
ENDBRANCH  32  33
ENDBRANCH   1  32
TORSDOF 9
