REMARK  Name = ZINC39445410
REMARK  8 active torsions:
REMARK  status: ('A' for Active; 'I' for Inactive)
REMARK    1  A    between atoms: C_4  and  C_7
REMARK    2  A    between atoms: C_7  and  C_8
REMARK    3  A    between atoms: C_8  and  C_9
REMARK    4  A    between atoms: N_15  and  C_17
REMARK    5  A    between atoms: C_17  and  C_18
REMARK    6  A    between atoms: C_20  and  C_23
REMARK    7  A    between atoms: C_24  and  C_25
REMARK    8  A    between atoms: C_25  and  O_26
REMARK                            x       y       z     vdW  Elec       q    Type
REMARK                         _______ _______ _______ _____ _____    ______ ____
ROOT
ATOM      1  C   UNL     1       5.507  -1.710   1.381  0.00  0.00    +0.102 C 
ATOM      2  C   UNL     1       5.944  -2.041   2.783  0.00  0.00    -0.019 C 
ATOM      3  C   UNL     1       7.099  -1.427   2.993  0.00  0.00    +0.022 C 
ATOM      4  C   UNL     1       7.848  -1.529   4.306  0.00  0.00    +0.067 C 
ATOM      5  C   UNL     1       6.878  -2.060   5.368  0.00  0.00    +0.091 C 
ATOM      6  N   UNL     1       6.194  -3.257   4.857  0.00  0.00    -0.293 NA
ATOM      7  C   UNL     1       5.237  -2.905   3.794  0.00  0.00    +0.118 C 
ATOM      8  N   UNL     1       7.491  -0.714   1.878  0.00  0.00    -0.284 N 
ATOM      9  N   UNL     1       6.581  -0.838   0.862  0.00  0.00    -0.236 NA
ATOM     10  H   UNL     1       8.308  -0.194   1.820  0.00  0.00    +0.166 HD
ATOM     11  H   UNL     1       7.006  -1.238   0.040  0.00  0.00    +0.145 HD
ENDROOT
BRANCH   1  12
ATOM     12  C   UNL     1       4.171  -0.963   1.399  0.00  0.00    +0.029 C 
BRANCH  12  13
ATOM     13  C   UNL     1       3.711  -0.707  -0.038  0.00  0.00    +0.037 C 
BRANCH  13  17
ATOM     14  C   UNL     1      -0.017   1.378   0.010  0.00  0.00    +0.000 A 
ATOM     15  C   UNL     1       1.171   2.086   0.002  0.00  0.00    +0.000 A 
ATOM     16  C   UNL     1       2.377   1.411  -0.013  0.00  0.00    +0.003 A 
ATOM     17  C   UNL     1       2.396   0.029  -0.020  0.00  0.00    -0.047 A 
ATOM     18  C   UNL     1       1.208  -0.679  -0.012  0.00  0.00    +0.003 A 
ATOM     19  C   UNL     1       0.002  -0.004   0.002  0.00  0.00    +0.000 A 
ENDBRANCH  13  17
ENDBRANCH  12  13
ENDBRANCH   1  12
BRANCH   6  20
ATOM     20  C   UNL     1       5.529  -3.987   5.944  0.00  0.00    +0.127 C 
BRANCH  20  21
ATOM     21  C   UNL     1       6.566  -4.541   6.886  0.00  0.00    +0.005 A 
ATOM     22  C   UNL     1       7.103  -3.971   7.987  0.00  0.00    +0.029 A 
ATOM     23  C   UNL     1       8.059  -4.675   8.716  0.00  0.00    +0.032 A 
ATOM     24  C   UNL     1       8.416  -5.924   8.285  0.00  0.00    +0.062 A 
ATOM     25  S   UNL     1       7.394  -6.122   6.835  0.00  0.00    -0.099 S 
BRANCH  23  26
ATOM     26  C   UNL     1       8.652  -4.106   9.889  0.00  0.00    -0.063 C 
ATOM     27  C   UNL     1       9.139  -3.640  10.850  0.00  0.00    -0.069 C 
BRANCH  27  28
ATOM     28  C   UNL     1       9.749  -3.055  12.055  0.00  0.00    +0.244 C 
BRANCH  28  29
ATOM     29  O   UNL     1      10.689  -3.978  12.609  0.00  0.00    -0.383 OA
ATOM     30  H   UNL     1      11.131  -3.658  13.407  0.00  0.00    +0.211 HD
ENDBRANCH  28  29
ENDBRANCH  27  28
ENDBRANCH  23  26
ENDBRANCH  20  21
ENDBRANCH   6  20
TORSDOF 8
