REMARK  Name = ZINC25386661
REMARK  8 active torsions:
REMARK  status: ('A' for Active; 'I' for Inactive)
REMARK    1  A    between atoms: C_4  and  S_8
REMARK    2  A    between atoms: S_8  and  C_9
REMARK    3  A    between atoms: C_9  and  C_10
REMARK    4  A    between atoms: N_12  and  N_13
REMARK    5  A    between atoms: C_14  and  C_16
REMARK    6  A    between atoms: C_16  and  C_17
REMARK    7  A    between atoms: C_17  and  C_19
REMARK    8  A    between atoms: C_17  and  N_26
REMARK                            x       y       z     vdW  Elec       q    Type
REMARK                         _______ _______ _______ _____ _____    ______ ____
ROOT
ATOM      1  N   UNL     1      -0.293  -2.396  -3.569  0.00  0.00    -0.234 N 
ATOM      2  C   UNL     1      -0.900  -2.191  -2.384  0.00  0.00    +0.231 C 
ATOM      3  O   UNL     1      -2.042  -1.782  -2.350  0.00  0.00    -0.274 OA
ATOM      4  H   UNL     1       0.742  -2.767  -3.600  0.00  0.00    +0.173 HD
ENDROOT
BRANCH   1   7
ATOM      5  C   UNL     1      -0.373  -2.344  -5.948  0.00  0.00    +0.239 C 
ATOM      6  O   UNL     1       0.768  -2.753  -5.982  0.00  0.00    -0.273 OA
ATOM      7  N   UNL     1      -0.981  -2.139  -4.763  0.00  0.00    -0.234 N 
ATOM      8  H   UNL     1      -2.016  -1.768  -4.732  0.00  0.00    +0.173 HD
BRANCH   5   9
ATOM      9  C   UNL     1      -1.113  -2.067  -7.231  0.00  0.00    +0.171 C 
BRANCH   9  10
ATOM     10  S   UNL     1      -0.035  -2.439  -8.643  0.00  0.00    -0.113 S 
BRANCH  10  14
ATOM     11  C   UNL     1      -2.596  -1.488 -12.257  0.00  0.00    +0.003 A 
ATOM     12  C   UNL     1      -3.108  -1.317 -10.984  0.00  0.00    +0.001 A 
ATOM     13  C   UNL     1      -2.331  -1.611  -9.880  0.00  0.00    +0.017 A 
ATOM     14  C   UNL     1      -1.031  -2.069 -10.048  0.00  0.00    +0.044 A 
ATOM     15  C   UNL     1      -0.518  -2.240 -11.331  0.00  0.00    +0.137 A 
ATOM     16  C   UNL     1      -1.304  -1.948 -12.431  0.00  0.00    +0.039 A 
ATOM     17  F   UNL     1       0.744  -2.690 -11.500  0.00  0.00    -0.204 F 
ENDBRANCH  10  14
ENDBRANCH   9  10
ENDBRANCH   5   9
ENDBRANCH   1   7
BRANCH   2  18
ATOM     18  C   UNL     1      -0.161  -2.468  -1.100  0.00  0.00    +0.124 C 
BRANCH  18  19
ATOM     19  C   UNL     1      -1.070  -2.154   0.090  0.00  0.00    +0.113 C 
BRANCH  19  20
ATOM     20  C   UNL     1      -0.376  -2.547   1.369  0.00  0.00    -0.026 A 
ATOM     21  C   UNL     1       0.650  -1.765   1.867  0.00  0.00    +0.005 A 
ATOM     22  C   UNL     1       1.283  -2.122   3.042  0.00  0.00    +0.001 A 
ATOM     23  C   UNL     1       0.898  -3.266   3.716  0.00  0.00    +0.015 A 
ATOM     24  C   UNL     1      -0.125  -4.051   3.215  0.00  0.00    +0.018 A 
ATOM     25  C   UNL     1      -0.762  -3.691   2.041  0.00  0.00    +0.020 A 
ATOM     26 BR   UNL     1      -0.652  -5.617   4.135  0.00  0.00    -0.050 Br
ENDBRANCH  19  20
BRANCH  19  27
ATOM     27  N   UNL     1      -1.364  -0.719   0.115  0.00  0.00    -0.292 N 
ATOM     28  C   UNL     1      -2.478  -0.270   0.726  0.00  0.00    +0.298 C 
ATOM     29  O   UNL     1      -3.283  -1.060   1.179  0.00  0.00    -0.253 OA
ATOM     30  N   UNL     1      -2.700   1.055   0.835  0.00  0.00    -0.313 N 
ATOM     31  H   UNL     1      -0.676  -0.008  -0.366  0.00  0.00    +0.151 HD
ATOM     32  H   UNL     1      -3.609   1.421   1.334  0.00  0.00    +0.146 HD
ATOM     33  H   UNL     1      -1.971   1.770   0.425  0.00  0.00    +0.146 HD
ENDBRANCH  19  27
ENDBRANCH  18  19
ENDBRANCH   2  18
TORSDOF 8
