REMARK  Name = ZINC39113972
REMARK  1 active torsions:
REMARK  status: ('A' for Active; 'I' for Inactive)
REMARK    1  A    between atoms: C_8  and  C_13
REMARK                            x       y       z     vdW  Elec       q    Type
REMARK                         _______ _______ _______ _____ _____    ______ ____
ROOT
ATOM      1  C   UNL     1      -0.019   1.524   0.010  0.00  0.00    +0.007 C 
ATOM      2  C   UNL     1       1.428   2.032  -0.001  0.00  0.00    +0.006 C 
ATOM      3  C   UNL     1       2.016   1.795  -1.391  0.00  0.00    +0.055 C 
ATOM      4  C   UNL     1       1.851   0.349  -1.783  0.00  0.00    +0.055 C 
ATOM      5  N   UNL     1       2.633  -0.147  -2.708  0.00  0.00    -0.181 NA
ATOM      6  C   UNL     1       2.504  -1.407  -3.133  0.00  0.00    +0.275 C 
ATOM      7  O   UNL     1       3.281  -1.823  -3.967  0.00  0.00    -0.270 OA
ATOM      8  C   UNL     1       1.439  -2.328  -2.620  0.00  0.00    +0.294 C 
ATOM      9  N   UNL     1       0.654  -1.716  -1.561  0.00  0.00    -0.259 NA
ATOM     10  C   UNL     1       0.832  -0.504  -1.154  0.00  0.00    +0.057 C 
ATOM     11  C   UNL     1       0.002  -0.004   0.002  0.00  0.00    +0.057 C 
ENDROOT
BRANCH   8  12
ATOM     12  C   UNL     1       0.542  -2.687  -3.731  0.00  0.00    +0.099 C 
ATOM     13  N   UNL     1      -0.150  -2.965  -4.588  0.00  0.00    -0.194 NA
ENDBRANCH   8  12
TORSDOF 1
