REMARK  Name = ZINC65609780
REMARK  8 active torsions:
REMARK  status: ('A' for Active; 'I' for Inactive)
REMARK    1  A    between atoms: C_1  and  C_2
REMARK    2  A    between atoms: C_6  and  C_8
REMARK    3  A    between atoms: C_6  and  C_9
REMARK    4  A    between atoms: C_10  and  C_12
REMARK    5  A    between atoms: C_17  and  N_18
REMARK    6  A    between atoms: N_21  and  C_22
REMARK    7  A    between atoms: C_22  and  C_23
REMARK    8  A    between atoms: C_22  and  C_24
REMARK                            x       y       z     vdW  Elec       q    Type
REMARK                         _______ _______ _______ _____ _____    ______ ____
ROOT
ATOM      1  C   UNL     1      -0.191  -2.304  -3.387  0.00  0.00    +0.058 A 
ATOM      2  C   UNL     1      -0.397  -0.941  -3.616  0.00  0.00    +0.015 A 
ATOM      3  C   UNL     1      -0.967  -0.522  -4.798  0.00  0.00    +0.001 A 
ATOM      4  C   UNL     1      -1.338  -1.446  -5.762  0.00  0.00    +0.002 A 
ATOM      5  C   UNL     1      -1.141  -2.795  -5.550  0.00  0.00    +0.024 A 
ATOM      6  C   UNL     1      -0.563  -3.236  -4.367  0.00  0.00    +0.047 A 
ENDROOT
BRANCH   1  16
ATOM      7  C   UNL     1      -3.358  -0.881   0.260  0.00  0.00    +0.039 C 
ATOM      8  C   UNL     1      -2.282  -1.945   0.031  0.00  0.00    +0.133 C 
ATOM      9  C   UNL     1      -1.194  -1.381  -0.890  0.00  0.00    +0.139 C 
ATOM     10  N   UNL     1      -0.085  -2.348  -0.944  0.00  0.00    -0.292 N 
ATOM     11  C   UNL     1       0.456  -2.851   0.329  0.00  0.00    +0.142 C 
ATOM     12  C   UNL     1      -0.713  -3.342   1.190  0.00  0.00    +0.080 C 
ATOM     13  O   UNL     1      -1.697  -2.309   1.283  0.00  0.00    -0.368 OA
ATOM     14  C   UNL     1      -1.335  -4.584   0.548  0.00  0.00    +0.043 C 
ATOM     15  C   UNL     1      -0.204  -3.691   2.591  0.00  0.00    +0.043 C 
ATOM     16  C   UNL     1       0.420  -2.760  -2.124  0.00  0.00    +0.249 C 
ATOM     17  O   UNL     1       1.379  -3.507  -2.147  0.00  0.00    -0.270 OA
ENDBRANCH   1  16
BRANCH   6  18
ATOM     18  N   UNL     1      -0.358  -4.596  -4.153  0.00  0.00    -0.269 N 
ATOM     19  C   UNL     1      -0.084  -5.409  -5.193  0.00  0.00    +0.304 C 
ATOM     20  O   UNL     1      -0.084  -4.967  -6.325  0.00  0.00    -0.253 OA
ATOM     21  N   UNL     1       0.189  -6.711  -4.977  0.00  0.00    -0.297 N 
ATOM     22  H   UNL     1      -0.413  -4.960  -3.255  0.00  0.00    +0.156 HD
ATOM     23  H   UNL     1       0.189  -7.063  -4.073  0.00  0.00    +0.151 HD
BRANCH  21  24
ATOM     24  C   UNL     1       0.487  -7.594  -6.107  0.00  0.00    +0.068 C 
ATOM     25  C   UNL     1       1.973  -7.491  -6.457  0.00  0.00    +0.027 C 
ATOM     26  C   UNL     1       0.151  -9.038  -5.729  0.00  0.00    +0.027 C 
ENDBRANCH  21  24
ENDBRANCH   6  18
TORSDOF 3
