REMARK  Name = ZINC27987519
REMARK  6 active torsions:
REMARK  status: ('A' for Active; 'I' for Inactive)
REMARK    1  A    between atoms: C_1  and  C_2
REMARK    2  A    between atoms: C_4  and  C_14
REMARK    3  A    between atoms: N_16  and  C_17
REMARK    4  A    between atoms: C_20  and  N_23
REMARK    5  A    between atoms: N_26  and  C_27
REMARK    6  A    between atoms: C_27  and  C_28
REMARK                            x       y       z     vdW  Elec       q    Type
REMARK                         _______ _______ _______ _____ _____    ______ ____
ROOT
ATOM      1  C   UNL     1       4.269   2.781   3.604  0.00  0.00    +0.034 A 
ATOM      2  C   UNL     1       3.163   3.305   4.259  0.00  0.00    +0.025 A 
ATOM      3  C   UNL     1       3.098   3.273   5.638  0.00  0.00    +0.025 A 
ATOM      4  C   UNL     1       4.144   2.726   6.369  0.00  0.00    +0.035 A 
ATOM      5  C   UNL     1       5.253   2.207   5.714  0.00  0.00    +0.025 A 
ATOM      6  C   UNL     1       5.315   2.234   4.335  0.00  0.00    +0.025 A 
ENDROOT
BRANCH   4   7
ATOM      7  N   UNL     1       4.080   2.697   7.769  0.00  0.00    -0.269 N 
ATOM      8  C   UNL     1       2.885   2.633   8.388  0.00  0.00    +0.304 C 
ATOM      9  O   UNL     1       1.867   2.510   7.734  0.00  0.00    -0.252 OA
ATOM     10  N   UNL     1       2.817   2.703   9.732  0.00  0.00    -0.292 N 
ATOM     11  H   UNL     1       5.006   2.728   8.362  0.00  0.00    +0.156 HD
ATOM     12  H   UNL     1       3.738   2.814  10.324  0.00  0.00    +0.151 HD
BRANCH  10  13
ATOM     13  C   UNL     1       1.518   2.633  10.405  0.00  0.00    +0.180 C 
BRANCH  13  14
ATOM     14  C   UNL     1       1.718   2.734  11.895  0.00  0.00    +0.122 A 
ATOM     15  C   UNL     1       1.731   3.873  12.611  0.00  0.00    +0.046 A 
ATOM     16  C   UNL     1       1.947   3.506  13.960  0.00  0.00    +0.041 A 
ATOM     17  C   UNL     1       2.052   2.165  13.987  0.00  0.00    +0.195 A 
ATOM     18  O   UNL     1       1.907   1.703  12.734  0.00  0.00    -0.466 OA
ENDBRANCH  13  14
ENDBRANCH  10  13
ENDBRANCH   4   7
BRANCH   1  21
ATOM     19  C   UNL     1       4.940   1.807   1.537  0.00  0.00    +0.262 C 
ATOM     20  O   UNL     1       5.360   0.843   2.142  0.00  0.00    -0.271 OA
ATOM     21  N   UNL     1       4.333   2.809   2.204  0.00  0.00    -0.282 N 
ATOM     22  H   UNL     1       3.887   3.648   1.650  0.00  0.00    +0.155 HD
BRANCH  19  25
ATOM     23  C   UNL     1       5.638   4.327   0.218  0.00  0.00    +0.056 C 
ATOM     24  C   UNL     1       6.118   2.975  -0.316  0.00  0.00    +0.220 C 
ATOM     25  C   UNL     1       5.098   1.886   0.041  0.00  0.00    +0.299 C 
ATOM     26  O   UNL     1       5.584   0.636  -0.460  0.00  0.00    -0.472 OA
ATOM     27  C   UNL     1       6.891   0.346  -0.216  0.00  0.00    +0.163 A 
ATOM     28  C   UNL     1       7.333  -0.963  -0.340  0.00  0.00    +0.049 A 
ATOM     29  C   UNL     1       8.659  -1.272  -0.099  0.00  0.00    +0.004 A 
ATOM     30  C   UNL     1       9.548  -0.277   0.261  0.00  0.00    +0.004 A 
ATOM     31  C   UNL     1       9.113   1.028   0.394  0.00  0.00    +0.049 A 
ATOM     32  C   UNL     1       7.784   1.345   0.155  0.00  0.00    +0.163 A 
ATOM     33  O   UNL     1       7.369   2.634   0.291  0.00  0.00    -0.481 OA
ENDBRANCH  19  25
ENDBRANCH   1  21
TORSDOF 5
