REMARK  Name = ZINC39676288
REMARK  4 active torsions:
REMARK  status: ('A' for Active; 'I' for Inactive)
REMARK    1  A    between atoms: C_11  and  C_13
REMARK    2  A    between atoms: C_13  and  N_14
REMARK    3  A    between atoms: C_15  and  C_17
REMARK    4  A    between atoms: C_28  and  C_30
REMARK                            x       y       z     vdW  Elec       q    Type
REMARK                         _______ _______ _______ _____ _____    ______ ____
ROOT
ATOM      1  C   UNL     1       8.709  -0.604   0.363  0.00  0.00    +0.100 C 
ATOM      2  C   UNL     1       8.533   0.036  -1.032  0.00  0.00    +0.121 C 
ATOM      3  N   UNL     1       9.914   0.199  -1.546  0.00  0.00    -0.296 N 
ATOM      4  C   UNL     1      10.617  -1.032  -1.111  0.00  0.00    +0.115 C 
ATOM      5  C   UNL     1      10.078  -1.304   0.307  0.00  0.00    -0.004 C 
ATOM      6  C   UNL     1      11.018  -0.711   1.352  0.00  0.00    -0.010 C 
ATOM      7  C   UNL     1      12.352  -1.461   1.315  0.00  0.00    -0.082 C 
ATOM      8  N   UNL     1      12.123  -2.885   1.587  0.00  0.00    +0.379 N 
ATOM      9  C   UNL     1      11.293  -3.470   0.527  0.00  0.00    -0.082 C 
ATOM     10  C   UNL     1       9.914  -2.804   0.530  0.00  0.00    -0.010 C 
ATOM     11  C   UNL     1      10.416   1.232  -2.250  0.00  0.00    +0.249 C 
ATOM     12  O   UNL     1      11.550   1.177  -2.684  0.00  0.00    -0.270 OA
ATOM     13  H   UNL     1      13.009  -3.366   1.622  0.00  0.00    -0.086 HD
ATOM     14  H   UNL     1      11.653  -2.985   2.474  0.00  0.00    -0.086 HD
ENDROOT
BRANCH  11  15
ATOM     15  C   UNL     1       9.589   2.431  -2.495  0.00  0.00    +0.073 A 
ATOM     16  C   UNL     1       8.212   2.305  -2.694  0.00  0.00    +0.036 A 
ATOM     17  C   UNL     1       7.445   3.429  -2.921  0.00  0.00    +0.042 A 
ATOM     18  C   UNL     1       8.037   4.682  -2.952  0.00  0.00    +0.023 A 
ATOM     19  C   UNL     1       9.398   4.815  -2.756  0.00  0.00    +0.040 A 
ATOM     20  C   UNL     1      10.179   3.698  -2.522  0.00  0.00    +0.136 A 
ATOM     21  F   UNL     1      11.509   3.830  -2.325  0.00  0.00    -0.205 F 
ATOM     22 CL   UNL     1       5.734   3.273  -3.169  0.00  0.00    -0.084 Cl
ENDBRANCH  11  15
BRANCH   1  24
ATOM     23  N   UNL     1       7.208  -1.850   1.884  0.00  0.00    -0.308 N 
ATOM     24  C   UNL     1       7.616  -1.608   0.622  0.00  0.00    +0.219 C 
ATOM     25  O   UNL     1       7.104  -2.199  -0.305  0.00  0.00    -0.275 OA
ATOM     26  H   UNL     1       7.618  -1.378   2.625  0.00  0.00    +0.149 HD
BRANCH  23  27
ATOM     27  C   UNL     1       6.145  -2.827   2.135  0.00  0.00    +0.178 C 
BRANCH  27  38
ATOM     28  C   UNL     1       5.963  -2.270   8.499  0.00  0.00    +0.001 A 
ATOM     29  C   UNL     1       6.925  -1.421   7.967  0.00  0.00    +0.002 A 
ATOM     30  C   UNL     1       7.146  -1.369   6.609  0.00  0.00    +0.028 A 
ATOM     31  C   UNL     1       6.395  -2.178   5.754  0.00  0.00    +0.078 A 
ATOM     32  C   UNL     1       5.417  -3.040   6.299  0.00  0.00    +0.065 A 
ATOM     33  C   UNL     1       5.209  -3.077   7.676  0.00  0.00    +0.015 A 
ATOM     34  C   UNL     1       4.643  -3.878   5.372  0.00  0.00    +0.259 A 
ATOM     35  O   UNL     1       3.785  -4.642   5.776  0.00  0.00    -0.267 OA
ATOM     36  N   UNL     1       4.920  -3.767   4.052  0.00  0.00    -0.309 N 
ATOM     37  H   UNL     1       4.429  -4.305   3.411  0.00  0.00    +0.170 HD
ATOM     38  C   UNL     1       5.879  -2.909   3.616  0.00  0.00    +0.128 A 
ATOM     39  N   UNL     1       6.579  -2.158   4.410  0.00  0.00    -0.232 NA
ENDBRANCH  27  38
ENDBRANCH  23  27
ENDBRANCH   1  24
TORSDOF 4
