REMARK  Name = ZINC36648021
REMARK  11 active torsions:
REMARK  status: ('A' for Active; 'I' for Inactive)
REMARK    1  A    between atoms: C_1  and  C_2
REMARK    2  A    between atoms: C_2  and  O_3
REMARK    3  A    between atoms: O_3  and  C_4
REMARK    4  A    between atoms: C_4  and  C_6
REMARK    5  A    between atoms: C_10  and  N_11
REMARK    6  A    between atoms: C_12  and  C_14
REMARK    7  A    between atoms: N_20  and  S_21
REMARK    8  A    between atoms: S_21  and  C_24
REMARK    9  A    between atoms: N_30  and  C_33
REMARK   10  A    between atoms: C_33  and  C_34
REMARK   11  A    between atoms: C_33  and  C_35
REMARK                            x       y       z     vdW  Elec       q    Type
REMARK                         _______ _______ _______ _____ _____    ______ ____
ROOT
ATOM      1  C   UNL     1      -3.393  -1.771   0.043  0.00  0.00    +0.091 A 
ATOM      2  C   UNL     1      -3.972  -2.396  -1.131  0.00  0.00    -0.025 A 
ATOM      3  C   UNL     1      -5.259  -2.781  -0.978  0.00  0.00    -0.021 A 
ATOM      4  S   UNL     1      -5.670  -2.323   0.678  0.00  0.00    -0.079 S 
ATOM      5  C   UNL     1      -4.207  -1.651   1.161  0.00  0.00    +0.086 A 
ATOM      6  C   UNL     1      -6.111  -3.444  -2.014  0.00  0.00    -0.035 C 
ATOM      7  N   UNL     1      -5.465  -3.267  -3.328  0.00  0.00    +0.384 N 
ATOM      8  C   UNL     1      -4.056  -3.672  -3.243  0.00  0.00    -0.073 C 
ATOM      9  C   UNL     1      -3.254  -2.634  -2.451  0.00  0.00    +0.018 C 
ATOM     10  H   UNL     1      -5.519  -2.297  -3.601  0.00  0.00    -0.081 HD
ENDROOT
BRANCH   5  11
ATOM     11  N   UNL     1      -3.888  -1.102   2.393  0.00  0.00    -0.278 N 
ATOM     12  C   UNL     1      -4.810  -1.067   3.375  0.00  0.00    +0.236 C 
ATOM     13  O   UNL     1      -5.919  -1.518   3.182  0.00  0.00    -0.274 OA
ATOM     14  H   UNL     1      -3.001  -0.741   2.547  0.00  0.00    +0.155 HD
BRANCH  12  15
ATOM     15  C   UNL     1      -4.462  -0.470   4.714  0.00  0.00    +0.166 C 
ATOM     16  C   UNL     1      -4.572  -1.544   5.801  0.00  0.00    +0.030 C 
ATOM     17  C   UNL     1      -4.354  -0.901   7.172  0.00  0.00    +0.003 C 
ATOM     18  C   UNL     1      -5.437   0.150   7.422  0.00  0.00    +0.017 C 
ATOM     19  C   UNL     1      -5.338   1.244   6.354  0.00  0.00    +0.110 C 
ATOM     20  N   UNL     1      -5.399   0.619   5.026  0.00  0.00    -0.164 NA
BRANCH  20  21
ATOM     21  S   UNL     1      -6.504   1.128   3.903  0.00  0.00    +0.068 S 
ATOM     22  O   UNL     1      -6.811   2.479   4.219  0.00  0.00    -0.152 OA
ATOM     23  O   UNL     1      -6.001   0.739   2.632  0.00  0.00    -0.152 OA
BRANCH  21  24
ATOM     24  C   UNL     1      -7.979   0.201   4.166  0.00  0.00    +0.143 A 
ATOM     25  C   UNL     1      -9.039   0.490   4.960  0.00  0.00    +0.036 A 
ATOM     26  C   UNL     1     -10.100  -0.394   5.011  0.00  0.00    +0.010 A 
ATOM     27  C   UNL     1     -10.049  -1.525   4.265  0.00  0.00    +0.047 A 
ATOM     28  S   UNL     1      -8.469  -1.359   3.450  0.00  0.00    -0.077 S 
ENDBRANCH  21  24
ENDBRANCH  20  21
ENDBRANCH  12  15
ENDBRANCH   5  11
BRANCH   7  29
ATOM     29  C   UNL     1      -6.153  -4.096  -4.327  0.00  0.00    -0.074 C 
ATOM     30  C   UNL     1      -7.646  -3.763  -4.324  0.00  0.00    -0.014 C 
ATOM     31  C   UNL     1      -5.569  -3.813  -5.713  0.00  0.00    -0.014 C 
ENDBRANCH   7  29
BRANCH   1  32
ATOM     32  C   UNL     1      -2.009  -1.293   0.050  0.00  0.00    +0.342 C 
ATOM     33  O   UNL     1      -1.110  -2.038   0.391  0.00  0.00    -0.245 OA
BRANCH  32  34
ATOM     34  O   UNL     1      -1.732  -0.026  -0.321  0.00  0.00    -0.461 OA
BRANCH  34  36
ATOM     35  C   UNL     1      -0.242   1.830  -0.739  0.00  0.00    +0.048 C 
ATOM     36  C   UNL     1      -0.360   0.373  -0.289  0.00  0.00    +0.229 C 
ENDBRANCH  34  36
ENDBRANCH  32  34
ENDBRANCH   1  32
TORSDOF 8
