REMARK  Name = ZINC45491159
REMARK  8 active torsions:
REMARK  status: ('A' for Active; 'I' for Inactive)
REMARK    1  A    between atoms: C_1  and  C_2
REMARK    2  A    between atoms: C_2  and  C_3
REMARK    3  A    between atoms: C_2  and  C_4
REMARK    4  A    between atoms: C_2  and  O_5
REMARK    5  A    between atoms: O_5  and  C_6
REMARK    6  A    between atoms: N_8  and  N_9
REMARK    7  A    between atoms: N_12  and  C_13
REMARK    8  A    between atoms: C_13  and  C_14
REMARK                            x       y       z     vdW  Elec       q    Type
REMARK                         _______ _______ _______ _____ _____    ______ ____
ROOT
ATOM      1  N   UNL     1       2.023  -1.296  -3.385  0.00  0.00    -0.216 N 
ATOM      2  C   UNL     1       2.712  -1.696  -4.472  0.00  0.00    +0.316 C 
ATOM      3  O   UNL     1       2.176  -2.401  -5.306  0.00  0.00    -0.251 OA
ATOM      4  N   UNL     1       3.994  -1.316  -4.635  0.00  0.00    -0.294 N 
ATOM      5  H   UNL     1       1.100  -1.570  -3.267  0.00  0.00    +0.174 HD
ATOM      6  H   UNL     1       4.422  -0.754  -3.970  0.00  0.00    +0.151 HD
ENDROOT
BRANCH   1   9
ATOM      7  C   UNL     1       1.952  -0.085  -1.337  0.00  0.00    +0.417 C 
ATOM      8  O   UNL     1       2.488   0.619  -0.503  0.00  0.00    -0.225 OA
ATOM      9  N   UNL     1       2.641  -0.485  -2.424  0.00  0.00    -0.198 N 
ATOM     10  H   UNL     1       3.564  -0.211  -2.541  0.00  0.00    +0.176 HD
BRANCH   7  11
ATOM     11  O   UNL     1       0.671  -0.465  -1.174  0.00  0.00    -0.444 OA
BRANCH  11  13
ATOM     12  C   UNL     1      -0.019   1.526   0.010  0.00  0.00    +0.055 C 
ATOM     13  C   UNL     1       0.002  -0.004   0.002  0.00  0.00    +0.107 C 
ATOM     14  C   UNL     1       0.742  -0.511   1.242  0.00  0.00    +0.055 C 
ATOM     15  C   UNL     1      -1.433  -0.534   0.013  0.00  0.00    +0.055 C 
ENDBRANCH  11  13
ENDBRANCH   7  11
ENDBRANCH   1   9
BRANCH   4  16
ATOM     16  C   UNL     1       4.743  -1.751  -5.817  0.00  0.00    +0.141 C 
BRANCH  16  17
ATOM     17  C   UNL     1       6.141  -1.193  -5.759  0.00  0.00    -0.026 A 
ATOM     18  C   UNL     1       6.436   0.045  -6.315  0.00  0.00    +0.023 A 
ATOM     19  C   UNL     1       7.727   0.528  -6.245  0.00  0.00    +0.084 A 
ATOM     20  N   UNL     1       8.680  -0.172  -5.658  0.00  0.00    -0.350 N 
ATOM     21  C   UNL     1       8.440  -1.356  -5.117  0.00  0.00    +0.099 A 
ATOM     22  C   UNL     1       7.160  -1.901  -5.146  0.00  0.00    +0.047 A 
ATOM     23  N   UNL     1       9.474  -2.058  -4.509  0.00  0.00    -0.317 N 
ATOM     24  C   UNL     1       9.355  -3.380  -3.876  0.00  0.00    +0.106 C 
ATOM     25  C   UNL     1      10.747  -3.747  -3.318  0.00  0.00    +0.020 C 
ATOM     26  C   UNL     1      11.437  -2.365  -3.171  0.00  0.00    +0.020 C 
ATOM     27  C   UNL     1      10.872  -1.604  -4.399  0.00  0.00    +0.106 C 
ATOM     28  H   UNL     1       9.579   0.191  -5.623  0.00  0.00    +0.166 HD
ENDBRANCH  16  17
ENDBRANCH   4  16
TORSDOF 5
