REMARK  Name = ZINC06089494
REMARK  11 active torsions:
REMARK  status: ('A' for Active; 'I' for Inactive)
REMARK    1  A    between atoms: C_1  and  C_2
REMARK    2  A    between atoms: C_2  and  O_3
REMARK    3  A    between atoms: O_3  and  C_4
REMARK    4  A    between atoms: C_4  and  C_6
REMARK    5  A    between atoms: C_7  and  C_32
REMARK    6  A    between atoms: C_8  and  C_29
REMARK    7  A    between atoms: C_10  and  N_11
REMARK    8  A    between atoms: C_12  and  C_14
REMARK    9  A    between atoms: C_15  and  N_28
REMARK   10  A    between atoms: C_20  and  C_27
REMARK   11  A    between atoms: C_29  and  C_31
REMARK                            x       y       z     vdW  Elec       q    Type
REMARK                         _______ _______ _______ _____ _____    ______ ____
ROOT
ATOM      1  N   UNL     1      -1.221  -2.353   2.492  0.00  0.00    -0.275 N 
ATOM      2  C   UNL     1      -1.239  -3.216   3.527  0.00  0.00    +0.257 C 
ATOM      3  O   UNL     1      -1.289  -4.415   3.320  0.00  0.00    -0.269 OA
ATOM      4  H   UNL     1      -1.182  -1.398   2.657  0.00  0.00    +0.156 HD
ENDROOT
BRANCH   2   5
ATOM      5  C   UNL     1      -1.201  -2.728   4.856  0.00  0.00    +0.097 A 
ATOM      6  C   UNL     1      -1.217  -3.449   6.028  0.00  0.00    +0.053 A 
ATOM      7  C   UNL     1      -1.165  -2.721   7.290  0.00  0.00    +0.030 A 
ATOM      8  C   UNL     1      -1.165  -3.242   8.596  0.00  0.00    +0.022 A 
ATOM      9  C   UNL     1      -1.115  -2.357   9.678  0.00  0.00    +0.001 A 
ATOM     10  C   UNL     1      -1.113  -2.833  11.004  0.00  0.00    +0.013 A 
ATOM     11  C   UNL     1      -1.064  -1.950  12.037  0.00  0.00    -0.050 A 
ATOM     12  C   UNL     1      -1.015  -0.576  11.805  0.00  0.00    +0.005 A 
ATOM     13  C   UNL     1      -1.015  -0.079  10.539  0.00  0.00    +0.028 A 
ATOM     14  C   UNL     1      -1.065  -0.958   9.443  0.00  0.00    +0.072 A 
ATOM     15  N   UNL     1      -1.066  -0.495   8.190  0.00  0.00    -0.239 NA
ATOM     16  C   UNL     1      -1.112  -1.306   7.163  0.00  0.00    +0.111 A 
ATOM     17  S   UNL     1      -1.128  -1.036   5.407  0.00  0.00    -0.062 S 
ATOM     18  C   UNL     1      -1.063  -2.465  13.453  0.00  0.00    +0.044 C 
BRANCH   6  19
ATOM     19  N   UNL     1      -1.278  -4.834   6.009  0.00  0.00    -0.356 N 
ATOM     20  H   UNL     1      -1.310  -5.307   5.163  0.00  0.00    +0.142 HD
ATOM     21  H   UNL     1      -1.290  -5.330   6.843  0.00  0.00    +0.142 HD
ENDBRANCH   6  19
ENDBRANCH   2   5
BRANCH   1  26
ATOM     22  C   UNL     1      -1.248  -2.099   0.003  0.00  0.00    +0.091 A 
ATOM     23  C   UNL     1      -1.287  -2.806  -1.186  0.00  0.00    -0.017 A 
ATOM     24  C   UNL     1      -1.339  -4.186  -1.103  0.00  0.00    +0.060 A 
ATOM     25  S   UNL     1      -1.333  -4.472   0.657  0.00  0.00    -0.069 S 
ATOM     26  C   UNL     1      -1.258  -2.828   1.199  0.00  0.00    +0.087 A 
ATOM     27  C   UNL     1      -1.273  -2.101  -2.518  0.00  0.00    +0.046 C 
BRANCH  24  28
ATOM     28  C   UNL     1      -1.386  -5.131  -2.149  0.00  0.00    +0.167 C 
ATOM     29  O   UNL     1      -1.383  -4.757  -3.305  0.00  0.00    -0.292 OA
ATOM     30  C   UNL     1      -1.439  -6.603  -1.833  0.00  0.00    +0.092 C 
ENDBRANCH  24  28
BRANCH  22  31
ATOM     31  C   UNL     1      -1.191  -0.632   0.010  0.00  0.00    +0.342 C 
ATOM     32  O   UNL     1      -2.220   0.016   0.023  0.00  0.00    -0.245 OA
BRANCH  31  33
ATOM     33  O   UNL     1       0.002  -0.004   0.002  0.00  0.00    -0.461 OA
BRANCH  33  35
ATOM     34  C   UNL     1       1.418   1.977  -0.001  0.00  0.00    +0.048 C 
ATOM     35  C   UNL     1      -0.018   1.448   0.010  0.00  0.00    +0.229 C 
ENDBRANCH  33  35
ENDBRANCH  31  33
ENDBRANCH  22  31
ENDBRANCH   1  26
TORSDOF 7
