REMARK  Name = ZINC03134975
REMARK  7 active torsions:
REMARK  status: ('A' for Active; 'I' for Inactive)
REMARK    1  A    between atoms: C_1  and  N_2
REMARK    2  A    between atoms: N_2  and  N_14
REMARK    3  A    between atoms: C_6  and  C_9
REMARK    4  A    between atoms: N_14  and  C_15
REMARK    5  A    between atoms: C_15  and  N_19
REMARK    6  A    between atoms: C_16  and  C_17
REMARK    7  A    between atoms: N_22  and  C_23
REMARK                            x       y       z     vdW  Elec       q    Type
REMARK                         _______ _______ _______ _____ _____    ______ ____
ROOT
ATOM      1  C   UNL     1       0.967  -0.754  -2.068  0.00  0.00    +0.118 C 
ATOM      2  C   UNL     1       2.164  -0.221  -1.700  0.00  0.00    +0.129 C 
ENDROOT
BRANCH   1   3
ATOM      3  N   UNL     1       0.828  -1.347  -3.306  0.00  0.00    -0.256 N 
ATOM      4  C   UNL     1      -0.324  -1.968  -3.631  0.00  0.00    +0.309 C 
ATOM      5  O   UNL     1      -1.274  -1.919  -2.874  0.00  0.00    -0.252 OA
ATOM      6  N   UNL     1      -0.421  -2.642  -4.793  0.00  0.00    -0.269 N 
ATOM      7  H   UNL     1       1.559  -1.317  -3.943  0.00  0.00    +0.158 HD
ATOM      8  H   UNL     1       0.359  -2.747  -5.360  0.00  0.00    +0.156 HD
BRANCH   6   9
ATOM      9  C   UNL     1      -1.648  -3.191  -5.183  0.00  0.00    +0.035 A 
ATOM     10  C   UNL     1      -1.684  -4.396  -5.872  0.00  0.00    +0.025 A 
ATOM     11  C   UNL     1      -2.896  -4.935  -6.256  0.00  0.00    +0.022 A 
ATOM     12  C   UNL     1      -4.075  -4.276  -5.954  0.00  0.00    +0.041 A 
ATOM     13  C   UNL     1      -4.042  -3.075  -5.267  0.00  0.00    +0.022 A 
ATOM     14  C   UNL     1      -2.833  -2.534  -4.877  0.00  0.00    +0.025 A 
ATOM     15 CL   UNL     1      -5.597  -4.957  -6.437  0.00  0.00    -0.084 Cl
ENDBRANCH   6   9
ENDBRANCH   1   3
BRANCH   1  16
ATOM     16  N   UNL     1      -0.102  -0.702  -1.208  0.00  0.00    -0.250 N 
ATOM     17  H   UNL     1      -0.932  -1.150  -1.437  0.00  0.00    +0.171 HD
BRANCH  16  19
ATOM     18  C   UNL     1      -0.028   1.464   0.002  0.00  0.00    +0.155 C 
ATOM     19  N   UNL     1       0.004  -0.000  -0.000  0.00  0.00    -0.238 N 
ATOM     20  C   UNL     1       0.140  -0.694   1.197  0.00  0.00    +0.156 A 
ATOM     21  C   UNL     1      -0.994  -1.161   1.857  0.00  0.00    +0.083 A 
ATOM     22  C   UNL     1      -0.844  -1.850   3.047  0.00  0.00    +0.037 A 
ATOM     23  C   UNL     1       0.440  -2.050   3.540  0.00  0.00    +0.074 A 
ATOM     24  C   UNL     1       1.519  -1.560   2.833  0.00  0.00    +0.125 A 
ATOM     25  N   UNL     1       1.346  -0.910   1.697  0.00  0.00    -0.237 NA
ATOM     26 CL   UNL     1      -2.575  -0.881   1.195  0.00  0.00    -0.080 Cl
BRANCH  23  27
ATOM     27  C   UNL     1       0.651  -2.794   4.833  0.00  0.00    +0.419 C 
ATOM     28  F   UNL     1       0.795  -4.160   4.566  0.00  0.00    -0.166 F 
ATOM     29  F   UNL     1       1.806  -2.317   5.462  0.00  0.00    -0.166 F 
ATOM     30  F   UNL     1      -0.452  -2.597   5.671  0.00  0.00    -0.166 F 
ENDBRANCH  23  27
ENDBRANCH  16  19
ENDBRANCH   1  16
BRANCH   2  31
ATOM     31  C   UNL     1       3.279  -0.276  -2.596  0.00  0.00    +0.095 C 
ATOM     32  N   UNL     1       4.164  -0.319  -3.308  0.00  0.00    -0.191 NA
ENDBRANCH   2  31
TORSDOF 6
