REMARK  Name = ZINC14007949
REMARK  5 active torsions:
REMARK  status: ('A' for Active; 'I' for Inactive)
REMARK    1  A    between atoms: C_4  and  N_10
REMARK    2  A    between atoms: C_5  and  C_7
REMARK    3  A    between atoms: C_11  and  C_13
REMARK    4  A    between atoms: C_14  and  C_15
REMARK    5  A    between atoms: C_19  and  N_21
REMARK                            x       y       z     vdW  Elec       q    Type
REMARK                         _______ _______ _______ _____ _____    ______ ____
ROOT
ATOM      1  N   UNL     1      -2.453   8.098   0.054  0.00  0.00    -0.281 N 
ATOM      2  C   UNL     1      -1.279   7.436   0.036  0.00  0.00    +0.241 C 
ATOM      3  O   UNL     1      -0.231   8.055   0.044  0.00  0.00    -0.270 OA
ATOM      4  H   UNL     1      -3.287   7.609  -0.017  0.00  0.00    +0.155 HD
ENDROOT
BRANCH   1   8
ATOM      5  C   UNL     1      -2.497  12.251   0.415  0.00  0.00    +0.001 A 
ATOM      6  C   UNL     1      -1.492  11.623  -0.304  0.00  0.00    +0.002 A 
ATOM      7  C   UNL     1      -1.472  10.248  -0.420  0.00  0.00    +0.024 A 
ATOM      8  C   UNL     1      -2.468   9.484   0.175  0.00  0.00    +0.046 A 
ATOM      9  C   UNL     1      -3.486  10.118   0.904  0.00  0.00    +0.058 A 
ATOM     10  C   UNL     1      -3.490  11.510   1.018  0.00  0.00    +0.015 A 
BRANCH   9  11
ATOM     11  C   UNL     1      -4.546   9.318   1.547  0.00  0.00    +0.243 C 
ATOM     12  O   UNL     1      -4.486   8.104   1.530  0.00  0.00    -0.270 OA
ATOM     13  N   UNL     1      -5.581   9.933   2.152  0.00  0.00    -0.325 N 
ATOM     14  H   UNL     1      -5.629  10.902   2.165  0.00  0.00    +0.145 HD
ATOM     15  H   UNL     1      -6.278   9.408   2.575  0.00  0.00    +0.145 HD
ENDBRANCH   9  11
ENDBRANCH   1   8
BRANCH   2  16
ATOM     16  C   UNL     1      -1.265   5.973   0.007  0.00  0.00    +0.068 C 
ATOM     17  C   UNL     1      -0.091   5.310  -0.011  0.00  0.00    +0.013 C 
BRANCH  17  18
ATOM     18  C   UNL     1      -0.076   3.839  -0.040  0.00  0.00    -0.023 A 
ATOM     19  C   UNL     1      -1.278   3.124  -0.049  0.00  0.00    +0.008 A 
ATOM     20  C   UNL     1      -1.256   1.746  -0.081  0.00  0.00    +0.003 A 
ATOM     21  C   UNL     1      -0.049   1.069  -0.094  0.00  0.00    +0.033 A 
ATOM     22  C   UNL     1       1.145   1.769  -0.086  0.00  0.00    +0.127 A 
ATOM     23  C   UNL     1       1.139   3.148  -0.059  0.00  0.00    +0.040 A 
BRANCH  22  24
ATOM     24  N   UNL     1       2.431   1.036  -0.105  0.00  0.00    +0.056 N 
ATOM     25  O   UNL     1       2.437  -0.181  -0.129  0.00  0.00    -0.126 OA
ATOM     26  O   UNL     1       3.482   1.651  -0.098  0.00  0.00    -0.126 OA
ENDBRANCH  22  24
ENDBRANCH  17  18
ENDBRANCH   2  16
TORSDOF 5
