REMARK  Name = ZINC09328106
REMARK  4 active torsions:
REMARK  status: ('A' for Active; 'I' for Inactive)
REMARK    1  A    between atoms: C_1  and  C_2
REMARK    2  A    between atoms: N_5  and  C_7
REMARK    3  A    between atoms: C_18  and  C_20
REMARK    4  A    between atoms: C_23  and  N_26
REMARK                            x       y       z     vdW  Elec       q    Type
REMARK                         _______ _______ _______ _____ _____    ______ ____
ROOT
ATOM      1  C   UNL     1       0.492   1.756  -0.289  0.00  0.00    +0.068 C 
ATOM      2  C   UNL     1       0.554   0.256  -0.152  0.00  0.00    +0.066 A 
ATOM      3  C   UNL     1       0.230  -0.676  -1.161  0.00  0.00    +0.032 A 
ATOM      4  C   UNL     1       0.414  -1.914  -0.652  0.00  0.00    +0.128 A 
ATOM      5  N   UNL     1       0.839  -1.759   0.640  0.00  0.00    -0.247 N 
ATOM      6  N   UNL     1       0.922  -0.394   0.914  0.00  0.00    -0.174 NA
ATOM      7  N   UNL     1       0.252  -3.164  -1.200  0.00  0.00    -0.270 N 
ATOM      8  C   UNL     1      -0.168  -3.617  -2.343  0.00  0.00    +0.228 C 
ATOM      9  O   UNL     1      -0.263  -4.824  -2.409  0.00  0.00    -0.275 OA
ATOM     10  C   UNL     1      -0.550  -2.896  -3.575  0.00  0.00    +0.166 C 
ATOM     11  S   UNL     1      -1.431  -1.363  -3.247  0.00  0.00    -0.138 S 
ATOM     12  C   UNL     1      -0.229  -0.247  -2.519  0.00  0.00    +0.112 C 
ATOM     13  H   UNL     1       0.513  -3.873  -0.592  0.00  0.00    +0.156 HD
ENDROOT
BRANCH   5  14
ATOM     14  C   UNL     1       1.159  -2.842   1.574  0.00  0.00    +0.109 C 
ATOM     15  C   UNL     1       0.247  -2.745   2.798  0.00  0.00    +0.027 C 
ATOM     16  C   UNL     1       0.581  -3.877   3.773  0.00  0.00    +0.002 C 
ATOM     17  C   UNL     1       2.042  -3.756   4.214  0.00  0.00    +0.000 C 
ATOM     18  C   UNL     1       2.953  -3.852   2.989  0.00  0.00    +0.002 C 
ATOM     19  C   UNL     1       2.619  -2.721   2.014  0.00  0.00    +0.027 C 
ENDBRANCH   5  14
BRANCH  12  20
ATOM     20  C   UNL     1      -0.846   1.124  -2.411  0.00  0.00    -0.030 A 
ATOM     21  C   UNL     1      -2.048   1.291  -1.750  0.00  0.00    +0.007 A 
ATOM     22  C   UNL     1      -2.614   2.548  -1.650  0.00  0.00    +0.033 A 
ATOM     23  C   UNL     1      -1.977   3.639  -2.212  0.00  0.00    +0.126 A 
ATOM     24  C   UNL     1      -0.774   3.473  -2.872  0.00  0.00    +0.033 A 
ATOM     25  C   UNL     1      -0.206   2.216  -2.967  0.00  0.00    +0.007 A 
BRANCH  23  26
ATOM     26  N   UNL     1      -2.583   4.985  -2.106  0.00  0.00    +0.056 N 
ATOM     27  O   UNL     1      -3.635   5.131  -1.529  0.00  0.00    -0.126 OA
ATOM     28  O   UNL     1      -2.025   5.939  -2.597  0.00  0.00    -0.126 OA
ENDBRANCH  23  26
ENDBRANCH  12  20
TORSDOF 3
