REMARK  Name = ZINC14671754
REMARK  4 active torsions:
REMARK  status: ('A' for Active; 'I' for Inactive)
REMARK    1  A    between atoms: C_1  and  S_2
REMARK    2  A    between atoms: S_2  and  C_3
REMARK    3  A    between atoms: C_3  and  C_4
REMARK    4  A    between atoms: C_5  and  N_7
REMARK                            x       y       z     vdW  Elec       q    Type
REMARK                         _______ _______ _______ _____ _____    ______ ____
ROOT
ATOM      1  C   UNL     1      -2.240  -1.731  -0.598  0.00  0.00    +0.063 C 
ATOM      2  C   UNL     1      -3.370  -2.142   0.121  0.00  0.00    +0.077 C 
ATOM      3  S   UNL     1      -4.334  -1.016   0.867  0.00  0.00    -0.035 SA
ENDROOT
BRANCH   2   4
ATOM      4  N   UNL     1      -3.680  -3.481   0.208  0.00  0.00    -0.320 N 
ATOM      5  C   UNL     1      -2.636  -4.511   0.084  0.00  0.00    +0.133 C 
ATOM      6  C   UNL     1      -2.764  -5.474   1.269  0.00  0.00    +0.178 C 
ATOM      7  O   UNL     1      -4.112  -5.944   1.351  0.00  0.00    -0.377 OA
ATOM      8  C   UNL     1      -5.075  -4.917   1.598  0.00  0.00    +0.178 C 
ATOM      9  C   UNL     1      -5.065  -3.924   0.436  0.00  0.00    +0.133 C 
ENDBRANCH   2   4
BRANCH   1  10
ATOM     10  C   UNL     1      -1.858  -0.409  -0.582  0.00  0.00    +0.069 C 
ATOM     11  N   UNL     1      -0.683  -0.026  -1.181  0.00  0.00    -0.393 N 
ATOM     12  H   UNL     1      -0.159  -0.674  -1.678  0.00  0.00    +0.156 HD
ATOM     13  H   UNL     1      -0.377   0.891  -1.107  0.00  0.00    +0.156 HD
BRANCH  10  15
ATOM     14  C   UNL     1      -1.978   2.352  -0.027  0.00  0.00    +0.091 C 
ATOM     15  S   UNL     1      -2.876   0.793   0.207  0.00  0.00    -0.112 S 
ENDBRANCH  10  15
ENDBRANCH   1  10
TORSDOF 3
