REMARK  Name = ZINC22293324
REMARK  9 active torsions:
REMARK  status: ('A' for Active; 'I' for Inactive)
REMARK    1  A    between atoms: C_1  and  C_2
REMARK    2  A    between atoms: C_5  and  C_32
REMARK    3  A    between atoms: N_8  and  C_10
REMARK    4  A    between atoms: C_10  and  C_11
REMARK    5  A    between atoms: N_16  and  C_17
REMARK    6  A    between atoms: C_17  and  C_19
REMARK    7  A    between atoms: C_22  and  C_24
REMARK    8  A    between atoms: C_24  and  O_25
REMARK    9  A    between atoms: O_25  and  C_26
REMARK                            x       y       z     vdW  Elec       q    Type
REMARK                         _______ _______ _______ _____ _____    ______ ____
ROOT
ATOM      1  C   UNL     1       2.971  -2.034   2.241  0.00  0.00    +0.008 A 
ATOM      2  C   UNL     1       3.536  -1.180   3.102  0.00  0.00    +0.067 A 
ATOM      3  S   UNL     1       5.192  -1.044   2.456  0.00  0.00    -0.061 S 
ATOM      4  C   UNL     1       5.040  -2.083   1.143  0.00  0.00    +0.163 A 
ATOM      5  N   UNL     1       3.749  -2.507   1.230  0.00  0.00    -0.341 N 
ATOM      6  N   UNL     1       5.960  -2.414   0.240  0.00  0.00    -0.150 NA
ATOM      7  H   UNL     1       3.389  -3.133   0.582  0.00  0.00    +0.167 HD
ENDROOT
BRANCH   6   8
ATOM      8  C   UNL     1       7.191  -1.896   0.318  0.00  0.00    +0.305 C 
ATOM      9  O   UNL     1       7.470  -1.119   1.217  0.00  0.00    -0.265 OA
BRANCH   8  10
ATOM     10  C   UNL     1       8.208  -2.262  -0.681  0.00  0.00    +0.192 A 
ATOM     11  C   UNL     1       9.495  -1.814  -0.714  0.00  0.00    +0.055 A 
ATOM     12  C   UNL     1      10.104  -2.417  -1.828  0.00  0.00    +0.049 A 
ATOM     13  C   UNL     1       9.172  -3.197  -2.416  0.00  0.00    +0.143 A 
ATOM     14  O   UNL     1       8.031  -3.105  -1.719  0.00  0.00    -0.452 OA
BRANCH  13  15
ATOM     15  C   UNL     1       9.381  -4.036  -3.650  0.00  0.00    +0.303 C 
BRANCH  15  16
ATOM     16  O   UNL     1       9.829  -5.339  -3.269  0.00  0.00    -0.484 OA
BRANCH  16  17
ATOM     17  C   UNL     1      10.066  -6.227  -4.271  0.00  0.00    +0.121 A 
ATOM     18  C   UNL     1       9.878  -5.850  -5.593  0.00  0.00    +0.045 A 
ATOM     19  C   UNL     1      10.121  -6.754  -6.609  0.00  0.00    +0.004 A 
ATOM     20  C   UNL     1      10.551  -8.033  -6.309  0.00  0.00    +0.000 A 
ATOM     21  C   UNL     1      10.739  -8.412  -4.992  0.00  0.00    +0.004 A 
ATOM     22  C   UNL     1      10.503  -7.509  -3.973  0.00  0.00    +0.045 A 
ENDBRANCH  16  17
ENDBRANCH  15  16
ENDBRANCH  13  15
ENDBRANCH   8  10
ENDBRANCH   6   8
BRANCH   1  23
ATOM     23  C   UNL     1       1.534  -2.461   2.390  0.00  0.00    -0.024 C 
BRANCH  23  29
ATOM     24  C   UNL     1      -0.019   1.526   0.010  0.00  0.00    +0.005 C 
ATOM     25  C   UNL     1       0.002  -0.004   0.002  0.00  0.00    -0.031 C 
ATOM     26  C   UNL     1      -1.434  -0.535   0.015  0.00  0.00    +0.003 C 
ATOM     27  C   UNL     1      -1.402  -2.064   0.086  0.00  0.00    -0.031 C 
ATOM     28  C   UNL     1      -0.613  -2.496   1.324  0.00  0.00    -0.075 C 
ATOM     29  N   UNL     1       0.758  -1.980   1.239  0.00  0.00    +0.384 N 
ATOM     30  C   UNL     1       0.740  -0.512   1.242  0.00  0.00    -0.075 C 
ATOM     31  C   UNL     1      -0.728  -2.620  -1.170  0.00  0.00    +0.005 C 
ATOM     32  H   UNL     1       1.188  -2.307   0.386  0.00  0.00    -0.081 HD
ENDBRANCH  23  29
ENDBRANCH   1  23
TORSDOF 7
