REMARK  Name = ZINC54357301
REMARK  5 active torsions:
REMARK  status: ('A' for Active; 'I' for Inactive)
REMARK    1  A    between atoms: C_1  and  O_2
REMARK    2  A    between atoms: O_2  and  C_3
REMARK    3  A    between atoms: C_3  and  C_5
REMARK    4  A    between atoms: C_8  and  C_20
REMARK    5  A    between atoms: C_13  and  C_15
REMARK                            x       y       z     vdW  Elec       q    Type
REMARK                         _______ _______ _______ _____ _____    ______ ____
ROOT
ATOM      1  C   UNL     1      -1.164  -2.151   0.221  0.00  0.00    +0.269 C 
ATOM      2  O   UNL     1      -0.047  -2.902   0.368  0.00  0.00    -0.280 OA
ATOM      3  C   UNL     1      -2.383  -2.742   0.220  0.00  0.00    +0.055 C 
ATOM      4  C   UNL     1      -2.531  -4.209   0.225  0.00  0.00    +0.075 C 
ATOM      5  N   UNL     1      -3.636  -4.718   0.754  0.00  0.00    -0.192 NA
ATOM      6  C   UNL     1      -4.596  -3.937   1.251  0.00  0.00    +0.155 C 
ATOM      7  S   UNL     1      -5.854  -4.673   2.149  0.00  0.00    -0.017 S 
ATOM      8  N   UNL     1      -4.629  -2.607   1.086  0.00  0.00    -0.313 N 
ATOM      9  C   UNL     1      -3.662  -1.928   0.221  0.00  0.00    +0.145 C 
ATOM     10  H   UNL     1      -5.303  -2.085   1.549  0.00  0.00    +0.149 HD
ENDROOT
BRANCH   4  11
ATOM     11  C   UNL     1      -1.484  -5.082  -0.341  0.00  0.00    +0.036 A 
ATOM     12  C   UNL     1      -0.767  -5.948   0.490  0.00  0.00    +0.051 A 
ATOM     13  C   UNL     1       0.210  -6.761  -0.046  0.00  0.00    +0.124 A 
ATOM     14  C   UNL     1       0.482  -6.722  -1.406  0.00  0.00    +0.041 A 
ATOM     15  C   UNL     1      -0.223  -5.869  -2.234  0.00  0.00    +0.042 A 
ATOM     16  C   UNL     1      -1.209  -5.052  -1.713  0.00  0.00    +0.133 A 
ATOM     17  F   UNL     1      -1.901  -4.223  -2.524  0.00  0.00    -0.205 F 
ATOM     18  F   UNL     1       0.904  -7.599   0.755  0.00  0.00    -0.205 F 
ENDBRANCH   4  11
BRANCH   9  19
ATOM     19  C   UNL     1      -4.211  -1.839  -1.179  0.00  0.00    +0.015 A 
ATOM     20  C   UNL     1      -4.107  -0.826  -2.074  0.00  0.00    +0.013 A 
ATOM     21  C   UNL     1      -4.698  -0.965  -3.316  0.00  0.00    +0.008 A 
ATOM     22  C   UNL     1      -5.362  -2.111  -3.603  0.00  0.00    +0.045 A 
ATOM     23  S   UNL     1      -5.160  -3.043  -2.094  0.00  0.00    -0.099 S 
ENDBRANCH   9  19
BRANCH   1  24
ATOM     24  C   UNL     1      -1.053  -0.685   0.060  0.00  0.00    +0.379 C 
ATOM     25  O   UNL     1      -2.043  -0.024  -0.183  0.00  0.00    -0.241 OA
BRANCH  24  27
ATOM     26  C   UNL     1       0.179   1.336   0.016  0.00  0.00    +0.280 C 
ATOM     27  O   UNL     1       0.146  -0.083   0.184  0.00  0.00    -0.462 OA
ENDBRANCH  24  27
ENDBRANCH   1  24
TORSDOF 4
