REMARK  Name = ZINC50453542
REMARK  5 active torsions:
REMARK  status: ('A' for Active; 'I' for Inactive)
REMARK    1  A    between atoms: C_1  and  C_2
REMARK    2  A    between atoms: C_2  and  N_3
REMARK    3  A    between atoms: N_3  and  C_4
REMARK    4  A    between atoms: C_9  and  N_10
REMARK    5  A    between atoms: C_11  and  C_13
REMARK                            x       y       z     vdW  Elec       q    Type
REMARK                         _______ _______ _______ _____ _____    ______ ____
ROOT
ATOM      1  N   UNL     1      -1.266  -0.744   0.027  0.00  0.00    -0.267 N 
ATOM      2  C   UNL     1      -1.958  -0.846   1.179  0.00  0.00    +0.261 C 
ATOM      3  O   UNL     1      -1.478  -0.434   2.214  0.00  0.00    -0.271 OA
ENDROOT
BRANCH   2   4
ATOM      4  C   UNL     1      -3.329  -1.473   1.181  0.00  0.00    +0.263 C 
ATOM      5  C   UNL     1      -4.375  -0.504   0.583  0.00  0.00    +0.093 C 
ATOM      6  C   UNL     1      -5.593  -0.789   1.439  0.00  0.00    -0.002 A 
ATOM      7  C   UNL     1      -6.928  -0.486   1.280  0.00  0.00    +0.007 A 
ATOM      8  C   UNL     1      -7.846  -0.884   2.236  0.00  0.00    +0.000 A 
ATOM      9  C   UNL     1      -7.418  -1.585   3.349  0.00  0.00    +0.004 A 
ATOM     10  C   UNL     1      -6.082  -1.887   3.511  0.00  0.00    +0.046 A 
ATOM     11  C   UNL     1      -5.151  -1.487   2.556  0.00  0.00    +0.125 A 
ATOM     12  O   UNL     1      -3.799  -1.664   2.526  0.00  0.00    -0.479 OA
ENDBRANCH   2   4
BRANCH   1  13
ATOM     13  C   UNL     1      -1.861  -1.122  -1.184  0.00  0.00    +0.057 A 
ATOM     14  C   UNL     1      -1.751  -2.428  -1.635  0.00  0.00    +0.025 A 
ATOM     15  C   UNL     1      -2.338  -2.799  -2.830  0.00  0.00    +0.002 A 
ATOM     16  C   UNL     1      -3.037  -1.870  -3.579  0.00  0.00    +0.002 A 
ATOM     17  C   UNL     1      -3.152  -0.565  -3.138  0.00  0.00    +0.024 A 
ATOM     18  C   UNL     1      -2.571  -0.186  -1.937  0.00  0.00    +0.046 A 
BRANCH  18  19
ATOM     19  N   UNL     1      -2.691   1.132  -1.484  0.00  0.00    -0.357 N 
ATOM     20  H   UNL     1      -2.280   1.397  -0.646  0.00  0.00    +0.142 HD
ATOM     21  H   UNL     1      -3.185   1.782  -2.009  0.00  0.00    +0.142 HD
ENDBRANCH  18  19
ENDBRANCH   1  13
BRANCH   1  23
ATOM     22  C   UNL     1       0.089   1.292  -0.004  0.00  0.00    +0.025 C 
ATOM     23  C   UNL     1       0.109  -0.237   0.041  0.00  0.00    +0.110 C 
ENDBRANCH   1  23
TORSDOF 4
