REMARK  Name = ZINC21119734
REMARK  15 active torsions:
REMARK  status: ('A' for Active; 'I' for Inactive)
REMARK    1  A    between atoms: C_1  and  C_2
REMARK    2  A    between atoms: C_2  and  O_3
REMARK    3  A    between atoms: O_3  and  C_4
REMARK    4  A    between atoms: C_4  and  C_6
REMARK    5  A    between atoms: C_7  and  C_35
REMARK    6  A    between atoms: C_8  and  C_13
REMARK    7  A    between atoms: C_11  and  C_12
REMARK    8  A    between atoms: C_13  and  C_15
REMARK    9  A    between atoms: C_15  and  C_17
REMARK   10  A    between atoms: C_15  and  O_18
REMARK   11  A    between atoms: O_18  and  C_19
REMARK   12  A    between atoms: C_19  and  C_21
REMARK   13  A    between atoms: C_21  and  C_22
REMARK   14  A    between atoms: C_22  and  C_24
REMARK   15  A    between atoms: C_22  and  N_31
REMARK                            x       y       z     vdW  Elec       q    Type
REMARK                         _______ _______ _______ _____ _____    ______ ____
ROOT
ATOM      1  O   UNL     1      -3.160   3.077  -3.523  0.00  0.00    -0.453 OA
ENDROOT
BRANCH   1   2
ATOM      2  C   UNL     1      -2.541   3.602  -4.727  0.00  0.00    +0.245 C 
ATOM      3  C   UNL     1      -1.391   2.686  -5.149  0.00  0.00    +0.061 C 
BRANCH   2   4
ATOM      4  C   UNL     1      -3.564   3.665  -5.831  0.00  0.00    +0.219 C 
ATOM      5  O   UNL     1      -4.614   3.064  -5.722  0.00  0.00    -0.287 OA
BRANCH   4   8
ATOM      6  C   UNL     1      -3.488   5.407  -9.001  0.00  0.00    +0.083 A 
ATOM      7  C   UNL     1      -4.147   4.569  -8.076  0.00  0.00    -0.008 A 
ATOM      8  C   UNL     1      -3.303   4.426  -6.996  0.00  0.00    +0.090 A 
ATOM      9  N   UNL     1      -2.160   5.158  -7.246  0.00  0.00    -0.355 N 
ATOM     10  H   UNL     1      -1.351   5.186  -6.502  0.00  0.00    +0.166 HD
ATOM     11  C   UNL     1      -2.264   5.744  -8.448  0.00  0.00    +0.028 A 
ATOM     12  C   UNL     1      -1.224   6.627  -9.088  0.00  0.00    +0.064 C 
ATOM     13  C   UNL     1      -5.511   3.950  -8.238  0.00  0.00    +0.047 C 
BRANCH   6  14
ATOM     14  C   UNL     1      -4.006   5.843 -10.309  0.00  0.00    +0.341 C 
ATOM     15  O   UNL     1      -4.656   6.866 -10.395  0.00  0.00    -0.245 OA
BRANCH  14  16
ATOM     16  O   UNL     1      -3.758   5.106 -11.410  0.00  0.00    -0.461 OA
BRANCH  16  18
ATOM     17  C   UNL     1      -3.919   4.636 -13.794  0.00  0.00    +0.048 C 
ATOM     18  C   UNL     1      -4.300   5.596 -12.665  0.00  0.00    +0.229 C 
ENDBRANCH  16  18
ENDBRANCH  14  16
ENDBRANCH   6  14
ENDBRANCH   4   8
ENDBRANCH   2   4
ENDBRANCH   1   2
BRANCH   1  19
ATOM     19  C   UNL     1      -2.663   3.498  -2.349  0.00  0.00    +0.310 C 
ATOM     20  O   UNL     1      -1.742   4.279  -2.328  0.00  0.00    -0.251 OA
BRANCH  19  21
ATOM     21  C   UNL     1      -3.255   2.997  -1.057  0.00  0.00    +0.147 C 
BRANCH  21  22
ATOM     22  C   UNL     1      -2.512   3.627   0.123  0.00  0.00    +0.115 C 
BRANCH  22  23
ATOM     23  C   UNL     1      -3.181   3.223   1.411  0.00  0.00    -0.027 A 
ATOM     24  C   UNL     1      -3.010   1.943   1.907  0.00  0.00    +0.007 A 
ATOM     25  C   UNL     1      -3.618   1.574   3.091  0.00  0.00    +0.020 A 
ATOM     26  C   UNL     1      -4.407   2.481   3.776  0.00  0.00    +0.041 A 
ATOM     27  C   UNL     1      -4.582   3.759   3.277  0.00  0.00    +0.020 A 
ATOM     28  C   UNL     1      -3.969   4.130   2.095  0.00  0.00    +0.007 A 
ATOM     29 CL   UNL     1      -5.178   2.015   5.260  0.00  0.00    -0.084 Cl
ENDBRANCH  22  23
BRANCH  22  30
ATOM     30  N   UNL     1      -1.122   3.164   0.128  0.00  0.00    -0.292 N 
ATOM     31  C   UNL     1      -0.167   3.905   0.726  0.00  0.00    +0.298 C 
ATOM     32  O   UNL     1      -0.443   4.997   1.183  0.00  0.00    -0.253 OA
ATOM     33  N   UNL     1       1.092   3.434   0.817  0.00  0.00    -0.313 N 
ATOM     34  H   UNL     1      -0.857   2.213  -0.356  0.00  0.00    +0.151 HD
ATOM     35  H   UNL     1       1.871   4.038   1.304  0.00  0.00    +0.146 HD
ATOM     36  H   UNL     1       1.341   2.446   0.403  0.00  0.00    +0.146 HD
ENDBRANCH  22  30
ENDBRANCH  21  22
ENDBRANCH  19  21
ENDBRANCH   1  19
TORSDOF 11
