REMARK  Name = ZINC19715308
REMARK  9 active torsions:
REMARK  status: ('A' for Active; 'I' for Inactive)
REMARK    1  A    between atoms: C_1  and  C_2
REMARK    2  A    between atoms: C_7  and  C_8
REMARK    3  A    between atoms: C_10  and  C_13
REMARK    4  A    between atoms: C_13  and  C_14
REMARK    5  A    between atoms: C_14  and  N_15
REMARK    6  A    between atoms: C_16  and  C_18
REMARK    7  A    between atoms: C_18  and  N_19
REMARK    8  A    between atoms: C_22  and  C_26
REMARK    9  A    between atoms: C_22  and  C_27
REMARK                            x       y       z     vdW  Elec       q    Type
REMARK                         _______ _______ _______ _____ _____    ______ ____
ROOT
ATOM      1  N   UNL     1       5.383   1.179  -1.711  0.00  0.00    -0.314 N 
ATOM      2  C   UNL     1       4.067   1.047  -1.453  0.00  0.00    +0.231 C 
ATOM      3  O   UNL     1       3.273   0.974  -2.367  0.00  0.00    -0.274 OA
ATOM      4  H   UNL     1       6.102   1.245  -0.882  0.00  0.00    +0.149 HD
ENDROOT
BRANCH   1   5
ATOM      5  C   UNL     1       5.855   1.235  -3.097  0.00  0.00    +0.112 C 
BRANCH   5   6
ATOM      6  C   UNL     1       7.378   1.387  -3.111  0.00  0.00    +0.093 C 
BRANCH   6  16
ATOM      7  C   UNL     1      10.347   2.821  -9.782  0.00  0.00    +0.044 C 
ATOM      8  C   UNL     1       9.593   2.154  -8.661  0.00  0.00    -0.045 A 
ATOM      9  C   UNL     1       9.553   2.745  -7.416  0.00  0.00    +0.031 A 
ATOM     10  C   UNL     1       8.857   2.129  -6.385  0.00  0.00    +0.066 A 
ATOM     11  C   UNL     1       8.200   0.909  -6.616  0.00  0.00    +0.089 A 
ATOM     12  C   UNL     1       8.254   0.329  -7.886  0.00  0.00    +0.033 A 
ATOM     13  C   UNL     1       8.943   0.950  -8.889  0.00  0.00    -0.045 A 
ATOM     14  C   UNL     1       8.998   0.320 -10.257  0.00  0.00    +0.044 C 
ATOM     15  N   UNL     1       7.614   0.548  -5.446  0.00  0.00    -0.232 NA
ATOM     16  C   UNL     1       7.863   1.444  -4.536  0.00  0.00    +0.110 A 
ATOM     17  N   UNL     1       8.622   2.444  -5.061  0.00  0.00    -0.342 N 
ATOM     18  H   UNL     1       9.034   3.371  -4.635  0.00  0.00    +0.167 HD
ENDBRANCH   6  16
ENDBRANCH   5   6
ENDBRANCH   1   5
BRANCH   2  19
ATOM     19  C   UNL     1       3.581   0.989  -0.027  0.00  0.00    +0.213 C 
BRANCH  19  20
ATOM     20  N   UNL     1       2.123   0.844  -0.014  0.00  0.00    -0.215 N 
ATOM     21  C   UNL     1       1.480  -0.340  -0.014  0.00  0.00    +0.251 C 
ATOM     22  O   UNL     1       1.980  -1.445  -0.024  0.00  0.00    -0.272 OA
ATOM     23  C   UNL     1       0.002  -0.004   0.002  0.00  0.00    +0.135 C 
ATOM     24  N   UNL     1      -0.018   1.469   0.010  0.00  0.00    -0.281 N 
ATOM     25  C   UNL     1       1.266   1.871   0.000  0.00  0.00    +0.310 C 
ATOM     26  O   UNL     1       1.608   3.037   0.003  0.00  0.00    -0.252 OA
ATOM     27  C   UNL     1      -0.662  -0.558   1.264  0.00  0.00    +0.047 C 
ATOM     28  H   UNL     1      -0.978   2.006   0.022  0.00  0.00    +0.152 HD
BRANCH  23  29
ATOM     29  C   UNL     1      -0.679  -0.537  -1.232  0.00  0.00    -0.016 A 
ATOM     30  C   UNL     1      -0.255  -1.724  -1.798  0.00  0.00    +0.006 A 
ATOM     31  C   UNL     1      -0.883  -2.216  -2.927  0.00  0.00    +0.000 A 
ATOM     32  C   UNL     1      -1.930  -1.514  -3.496  0.00  0.00    +0.000 A 
ATOM     33  C   UNL     1      -2.350  -0.323  -2.933  0.00  0.00    +0.000 A 
ATOM     34  C   UNL     1      -1.726   0.165  -1.801  0.00  0.00    +0.006 A 
ENDBRANCH  23  29
ENDBRANCH  19  20
ENDBRANCH   2  19
TORSDOF 6
