REMARK  Name = ZINC20519376
REMARK  7 active torsions:
REMARK  status: ('A' for Active; 'I' for Inactive)
REMARK    1  A    between atoms: C_1  and  C_2
REMARK    2  A    between atoms: C_8  and  C_10
REMARK    3  A    between atoms: C_10  and  O_11
REMARK    4  A    between atoms: O_11  and  C_12
REMARK    5  A    between atoms: C_15  and  N_20
REMARK    6  A    between atoms: C_17  and  C_18
REMARK    7  A    between atoms: C_18  and  O_19
REMARK                            x       y       z     vdW  Elec       q    Type
REMARK                         _______ _______ _______ _____ _____    ______ ____
ROOT
ATOM      1  C   UNL     1      -3.720   3.287   0.038  0.00  0.00    +0.126 A 
ATOM      2  C   UNL     1      -2.528   3.996   0.036  0.00  0.00    +0.048 A 
ATOM      3  C   UNL     1      -1.323   3.319   0.032  0.00  0.00    +0.036 A 
ATOM      4  C   UNL     1      -1.306   1.936   0.019  0.00  0.00    +0.127 A 
ATOM      5  C   UNL     1      -2.493   1.228   0.021  0.00  0.00    +0.042 A 
ATOM      6  C   UNL     1      -3.700   1.900   0.030  0.00  0.00    +0.022 A 
ENDROOT
BRANCH   4   7
ATOM      7  N   UNL     1      -0.014   1.214   0.009  0.00  0.00    +0.056 N 
ATOM      8  O   UNL     1       0.002  -0.004   0.002  0.00  0.00    -0.126 OA
ATOM      9  O   UNL     1       1.032   1.837   0.002  0.00  0.00    -0.126 OA
ENDBRANCH   4   7
BRANCH   1  10
ATOM     10  O   UNL     1      -4.906   3.950   0.046  0.00  0.00    -0.491 OA
BRANCH  10  11
ATOM     11  C   UNL     1      -4.851   5.378   0.054  0.00  0.00    +0.233 C 
BRANCH  11  18
ATOM     12  C   UNL     1      -5.363   7.860   1.394  0.00  0.00    +0.008 C 
ATOM     13  C   UNL     1      -6.219   7.472   0.187  0.00  0.00    -0.004 C 
ATOM     14  C   UNL     1      -7.646   7.993   0.373  0.00  0.00    +0.030 C 
ATOM     15  C   UNL     1      -8.552   7.400  -0.666  0.00  0.00    -0.031 C 
ATOM     16  C   UNL     1      -8.263   6.352  -1.368  0.00  0.00    -0.031 C 
ATOM     17  C   UNL     1      -6.978   5.584  -1.246  0.00  0.00    +0.034 C 
ATOM     18  C   UNL     1      -6.273   5.944   0.063  0.00  0.00    +0.033 C 
ENDBRANCH  11  18
ENDBRANCH  10  11
ENDBRANCH   1  10
BRANCH   6  19
ATOM     19  C   UNL     1      -4.994   1.127   0.031  0.00  0.00    +0.194 C 
BRANCH  19  20
ATOM     20  O   UNL     1      -4.712  -0.274   0.022  0.00  0.00    -0.390 OA
ATOM     21  H   UNL     1      -5.537  -1.001   0.022  0.00  0.00    +0.210 HD
ENDBRANCH  19  20
ENDBRANCH   6  19
TORSDOF 6
