REMARK  Name = ZINC17197375
REMARK  8 active torsions:
REMARK  status: ('A' for Active; 'I' for Inactive)
REMARK    1  A    between atoms: C_1  and  C_2
REMARK    2  A    between atoms: C_2  and  C_23
REMARK    3  A    between atoms: C_3  and  C_21
REMARK    4  A    between atoms: C_5  and  C_19
REMARK    5  A    between atoms: C_7  and  N_9
REMARK    6  A    between atoms: C_17  and  N_18
REMARK    7  A    between atoms: C_19  and  O_20
REMARK    8  A    between atoms: C_21  and  O_22
REMARK                            x       y       z     vdW  Elec       q    Type
REMARK                         _______ _______ _______ _____ _____    ______ ____
ROOT
ATOM      1  C   UNL     1      -3.774  -3.396  -2.302  0.00  0.00    +0.013 C 
ATOM      2  C   UNL     1      -3.852  -4.331  -1.093  0.00  0.00    -0.008 C 
ATOM      3  C   UNL     1      -4.948  -3.945  -0.086  0.00  0.00    +0.029 C 
ATOM      4  C   UNL     1      -3.947  -4.307   1.023  0.00  0.00    +0.044 C 
ATOM      5  C   UNL     1      -2.833  -3.999   0.009  0.00  0.00    +0.102 C 
ATOM      6  C   UNL     1      -3.873  -5.810  -1.484  0.00  0.00    +0.013 C 
ENDROOT
BRANCH   5   7
ATOM      7  N   UNL     1      -2.407  -2.597   0.012  0.00  0.00    -0.311 N 
ATOM      8  C   UNL     1      -3.214  -1.509  -0.137  0.00  0.00    +0.202 A 
ATOM      9  N   UNL     1      -2.504  -0.419  -0.085  0.00  0.00    -0.231 NA
ATOM     10  C   UNL     1      -1.202  -0.738   0.107  0.00  0.00    +0.147 A 
ATOM     11  C   UNL     1      -1.123  -2.139   0.165  0.00  0.00    +0.166 A 
ATOM     12  N   UNL     1       0.063  -2.712   0.345  0.00  0.00    -0.216 NA
ATOM     13  C   UNL     1       1.151  -1.981   0.462  0.00  0.00    +0.225 A 
ATOM     14  N   UNL     1       1.127  -0.661   0.408  0.00  0.00    -0.219 NA
ATOM     15  C   UNL     1      -0.012  -0.000   0.232  0.00  0.00    +0.147 A 
BRANCH  15  16
ATOM     16  N   UNL     1      -0.027   1.383   0.177  0.00  0.00    -0.341 N 
ATOM     17  H   UNL     1       0.325   1.754   1.036  0.00  0.00    +0.144 HD
ATOM     18  H   UNL     1      -0.864   1.853   0.043  0.00  0.00    +0.144 HD
ENDBRANCH  15  16
ENDBRANCH   5   7
BRANCH   4  19
ATOM     19  C   UNL     1      -3.975  -3.345   2.212  0.00  0.00    +0.161 C 
BRANCH  19  20
ATOM     20  O   UNL     1      -4.962  -3.777   3.151  0.00  0.00    -0.395 OA
ATOM     21  H   UNL     1      -5.035  -3.213   3.933  0.00  0.00    +0.209 HD
ENDBRANCH  19  20
ENDBRANCH   4  19
BRANCH   3  22
ATOM     22  C   UNL     1      -6.172  -4.862  -0.131  0.00  0.00    +0.160 C 
BRANCH  22  23
ATOM     23  O   UNL     1      -7.149  -4.397   0.803  0.00  0.00    -0.395 OA
ATOM     24  H   UNL     1      -7.954  -4.933   0.829  0.00  0.00    +0.209 HD
ENDBRANCH  22  23
ENDBRANCH   3  22
TORSDOF 6
