REMARK  Name = ZINC14537506
REMARK  8 active torsions:
REMARK  status: ('A' for Active; 'I' for Inactive)
REMARK    1  A    between atoms: C_1  and  N_2
REMARK    2  A    between atoms: C_10  and  C_12
REMARK    3  A    between atoms: C_12  and  N_71
REMARK    4  A    between atoms: N_20  and  C_32
REMARK    5  A    between atoms: N_23  and  C_24
REMARK    6  A    between atoms: C_24  and  C_25
REMARK    7  A    between atoms: C_25  and  C_26
REMARK    8  A    between atoms: C_32  and  C_33
REMARK                            x       y       z     vdW  Elec       q    Type
REMARK                         _______ _______ _______ _____ _____    ______ ____
ROOT
ATOM      1  C   UNL     1       1.096  -6.217  -0.644  0.00  0.00    -0.076 C 
ATOM      2  C   UNL     1       0.831  -4.784  -1.115  0.00  0.00    +0.017 C 
ATOM      3  C   UNL     1      -0.553  -4.347  -0.646  0.00  0.00    +0.112 C 
ATOM      4  C   UNL     1      -1.617  -5.319  -1.145  0.00  0.00    +0.017 C 
ATOM      5  C   UNL     1      -1.272  -6.735  -0.674  0.00  0.00    -0.076 C 
ATOM      6  C   UNL     1      -0.859  -2.946  -1.120  0.00  0.00    +0.247 C 
ATOM      7  O   UNL     1      -0.934  -2.558  -2.266  0.00  0.00    -0.273 OA
ATOM      8  N   UNL     1      -1.027  -2.215   0.002  0.00  0.00    -0.215 N 
ATOM      9  C   UNL     1      -0.877  -2.961   1.103  0.00  0.00    +0.312 C 
ATOM     10  O   UNL     1      -0.987  -2.528   2.233  0.00  0.00    -0.252 OA
ATOM     11  N   UNL     1      -0.593  -4.247   0.818  0.00  0.00    -0.271 N 
ATOM     12  N   UNL     1       0.056  -7.106  -1.206  0.00  0.00    +0.382 N 
ATOM     13  H   UNL     1       0.046  -7.001  -2.228  0.00  0.00    -0.081 HD
ENDROOT
BRANCH  12  14
ATOM     14  C   UNL     1       0.359  -8.512  -0.871  0.00  0.00    -0.043 C 
BRANCH  14  24
ATOM     15  C   UNL     1      -4.603 -11.541  -3.350  0.00  0.00    +0.129 C 
ATOM     16  N   UNL     1      -3.219 -11.899  -3.688  0.00  0.00    -0.333 N 
ATOM     17  C   UNL     1      -3.027 -11.941  -5.139  0.00  0.00    +0.105 C 
ATOM     18  C   UNL     1      -1.563 -12.293  -5.431  0.00  0.00    +0.024 C 
ATOM     19  C   UNL     1      -0.697 -11.113  -4.987  0.00  0.00    +0.038 C 
ATOM     20  C   UNL     1      -1.110 -10.672  -3.605  0.00  0.00    -0.026 A 
ATOM     21  C   UNL     1      -2.314 -11.059  -3.041  0.00  0.00    +0.033 A 
ATOM     22  C   UNL     1      -2.649 -10.605  -1.764  0.00  0.00    +0.023 A 
ATOM     23  C   UNL     1      -1.786  -9.789  -1.065  0.00  0.00    +0.003 A 
ATOM     24  C   UNL     1      -0.585  -9.406  -1.633  0.00  0.00    -0.064 A 
ATOM     25  C   UNL     1      -0.249  -9.850  -2.897  0.00  0.00    +0.007 A 
ENDBRANCH  14  24
ENDBRANCH  12  14
BRANCH  11  26
ATOM     26  C   UNL     1      -0.369  -5.330   1.779  0.00  0.00    +0.115 C 
BRANCH  26  27
ATOM     27  C   UNL     1       0.916  -5.059   2.563  0.00  0.00    +0.054 C 
BRANCH  27  28
ATOM     28  C   UNL     1       1.211  -6.230   3.464  0.00  0.00    -0.046 A 
ATOM     29  C   UNL     1       0.710  -6.255   4.753  0.00  0.00    +0.004 A 
ATOM     30  C   UNL     1       0.977  -7.332   5.577  0.00  0.00    +0.000 A 
ATOM     31  C   UNL     1       1.753  -8.379   5.117  0.00  0.00    +0.000 A 
ATOM     32  C   UNL     1       2.259  -8.351   3.831  0.00  0.00    +0.000 A 
ATOM     33  C   UNL     1       1.987  -7.277   3.005  0.00  0.00    +0.004 A 
ENDBRANCH  27  28
ENDBRANCH  26  27
ENDBRANCH  11  26
BRANCH   8  34
ATOM     34  C   UNL     1      -1.340  -0.784   0.013  0.00  0.00    +0.213 C 
BRANCH  34  35
ATOM     35  C   UNL     1      -0.060   0.011   0.034  0.00  0.00    +0.228 C 
ATOM     36  O   UNL     1       1.009  -0.562   0.039  0.00  0.00    -0.274 OA
ATOM     37  N   UNL     1      -0.102   1.358   0.048  0.00  0.00    -0.328 N 
ATOM     38  H   UNL     1       0.722   1.869   0.061  0.00  0.00    +0.145 HD
ATOM     39  H   UNL     1      -0.957   1.816   0.040  0.00  0.00    +0.145 HD
ENDBRANCH  34  35
ENDBRANCH   8  34
TORSDOF 7
