REMARK  Name = ZINC20504808
REMARK  12 active torsions:
REMARK  status: ('A' for Active; 'I' for Inactive)
REMARK    1  A    between atoms: C_1  and  C_2
REMARK    2  A    between atoms: C_5  and  O_37
REMARK    3  A    between atoms: C_7  and  C_34
REMARK    4  A    between atoms: C_7  and  C_35
REMARK    5  A    between atoms: N_16  and  C_17
REMARK    6  A    between atoms: C_17  and  C_18
REMARK    7  A    between atoms: C_20  and  C_22
REMARK    8  A    between atoms: C_22  and  C_23
REMARK    9  A    between atoms: N_25  and  C_26
REMARK   10  A    between atoms: C_26  and  C_27
REMARK   11  A    between atoms: C_27  and  N_28
REMARK   12  A    between atoms: C_35  and  O_36
REMARK                            x       y       z     vdW  Elec       q    Type
REMARK                         _______ _______ _______ _____ _____    ______ ____
ROOT
ATOM      1  C   UNL     1       0.211  -1.771   1.916  0.00  0.00    +0.012 C 
ATOM      2  C   UNL     1       0.542  -2.103   0.459  0.00  0.00    -0.020 C 
ATOM      3  C   UNL     1       1.095  -3.529   0.362  0.00  0.00    +0.010 C 
ATOM      4  C   UNL     1       0.056  -4.545   0.786  0.00  0.00    +0.032 C 
ATOM      5  C   UNL     1      -1.163  -4.425  -0.135  0.00  0.00    +0.123 C 
ATOM      6  C   UNL     1      -1.751  -3.023   0.010  0.00  0.00    +0.021 C 
ATOM      7  C   UNL     1      -0.719  -1.967  -0.397  0.00  0.00    +0.011 C 
ATOM      8  C   UNL     1      -1.345  -0.580  -0.149  0.00  0.00    +0.049 C 
ATOM      9  C   UNL     1      -0.274   0.452  -0.198  0.00  0.00    +0.013 A 
ATOM     10  C   UNL     1       1.068   0.258  -0.154  0.00  0.00    +0.032 A 
ATOM     11  N   UNL     1       1.819   1.357  -0.212  0.00  0.00    -0.340 N 
ATOM     12  C   UNL     1       1.294   2.561  -0.306  0.00  0.00    +0.137 A 
ATOM     13  S   UNL     1      -0.410   2.215  -0.322  0.00  0.00    -0.059 S 
ATOM     14  N   UNL     1       1.934   3.789  -0.375  0.00  0.00    -0.321 N 
ATOM     15  C   UNL     1       1.633  -1.150  -0.050  0.00  0.00    +0.051 C 
ATOM     16  C   UNL     1      -2.985  -2.897  -0.886  0.00  0.00    +0.016 C 
ATOM     17  H   UNL     1       3.033   3.838  -0.354  0.00  0.00    +0.148 HD
ATOM     18  H   UNL     1       2.916   1.276  -0.180  0.00  0.00    +0.167 HD
ENDROOT
BRANCH   5  19
ATOM     19  O   UNL     1      -2.142  -5.396   0.238  0.00  0.00    -0.391 OA
ATOM     20  H   UNL     1      -3.091  -5.460  -0.315  0.00  0.00    +0.210 HD
ENDBRANCH   5  19
BRANCH  14  21
ATOM     21  C   UNL     1       1.148   5.021  -0.477  0.00  0.00    +0.130 C 
BRANCH  21  22
ATOM     22  C   UNL     1       2.077   6.206  -0.537  0.00  0.00    -0.016 C 
ATOM     23  C   UNL     1       1.989   7.057  -1.528  0.00  0.00    +0.005 C 
ENDBRANCH  21  22
ENDBRANCH  14  21
BRANCH  15  24
ATOM     24  C   UNL     1       2.811  -1.156   0.926  0.00  0.00    +0.106 C 
BRANCH  24  25
ATOM     25  C   UNL     1       3.956  -0.374   0.336  0.00  0.00    +0.214 C 
ATOM     26  O   UNL     1       3.841   0.137  -0.758  0.00  0.00    -0.276 OA
ATOM     27  N   UNL     1       5.108  -0.244   1.023  0.00  0.00    -0.314 N 
ATOM     28  H   UNL     1       5.212  -0.708   2.014  0.00  0.00    +0.149 HD
BRANCH  27  29
ATOM     29  C   UNL     1       6.221   0.516   0.449  0.00  0.00    +0.119 C 
BRANCH  29  30
ATOM     30  C   UNL     1       7.399   0.510   1.425  0.00  0.00    +0.103 C 
BRANCH  30  31
ATOM     31  N   UNL     1       8.516   1.273   0.849  0.00  0.00    -0.297 NA
ATOM     32  C   UNL     1       9.053   0.601  -0.343  0.00  0.00    +0.112 C 
ATOM     33  C   UNL     1      10.172   1.456  -0.943  0.00  0.00    +0.175 C 
ATOM     34  O   UNL     1      11.176   1.685   0.049  0.00  0.00    -0.377 OA
ATOM     35  C   UNL     1      10.687   2.338   1.224  0.00  0.00    +0.175 C 
ATOM     36  C   UNL     1       9.574   1.491   1.846  0.00  0.00    +0.112 C 
ENDBRANCH  30  31
ENDBRANCH  29  30
ENDBRANCH  27  29
ENDBRANCH  24  25
ENDBRANCH  15  24
BRANCH   6  37
ATOM     37  C   UNL     1      -2.159  -2.797   1.468  0.00  0.00    +0.165 C 
BRANCH  37  38
ATOM     38  O   UNL     1      -3.237  -3.674   1.802  0.00  0.00    -0.394 OA
ATOM     39  H   UNL     1      -3.667  -3.655   2.814  0.00  0.00    +0.209 HD
ENDBRANCH  37  38
ENDBRANCH   6  37
TORSDOF 10
