REMARK  Name = ZINC07378728
REMARK  6 active torsions:
REMARK  status: ('A' for Active; 'I' for Inactive)
REMARK    1  A    between atoms: C_1  and  C_2
REMARK    2  A    between atoms: C_8  and  N_10
REMARK    3  A    between atoms: C_11  and  C_13
REMARK    4  A    between atoms: C_13  and  O_14
REMARK    5  A    between atoms: O_14  and  C_15
REMARK    6  A    between atoms: C_15  and  C_17
REMARK                            x       y       z     vdW  Elec       q    Type
REMARK                         _______ _______ _______ _____ _____    ______ ____
ROOT
ATOM      1  O   UNL     1       4.205  -0.588  -0.043  0.00  0.00    -0.450 OA
ENDROOT
BRANCH   1   2
ATOM      2  C   UNL     1       3.583   0.609  -0.029  0.00  0.00    +0.375 C 
ATOM      3  O   UNL     1       4.237   1.633  -0.030  0.00  0.00    -0.241 OA
BRANCH   2   4
ATOM      4  C   UNL     1       2.117   0.674  -0.015  0.00  0.00    +0.213 A 
ATOM      5  C   UNL     1       1.385   1.819  -0.001  0.00  0.00    +0.065 A 
ATOM      6  C   UNL     1      -0.017   1.403   0.010  0.00  0.00    +0.022 A 
ATOM      7  C   UNL     1      -1.235   2.087   0.030  0.00  0.00    +0.031 A 
ATOM      8  C   UNL     1      -2.407   1.383   0.034  0.00  0.00    +0.042 A 
ATOM      9  C   UNL     1      -2.394  -0.006   0.026  0.00  0.00    +0.023 A 
ATOM     10  C   UNL     1      -1.202  -0.698   0.011  0.00  0.00    +0.048 A 
ATOM     11  C   UNL     1       0.002  -0.004   0.002  0.00  0.00    +0.136 A 
ATOM     12  O   UNL     1       1.292  -0.394  -0.012  0.00  0.00    -0.448 OA
ATOM     13 CL   UNL     1      -3.922   2.231   0.054  0.00  0.00    -0.084 Cl
ENDBRANCH   2   4
ENDBRANCH   1   2
BRANCH   1  14
ATOM     14  C   UNL     1       5.657  -0.577  -0.057  0.00  0.00    +0.328 C 
BRANCH  14  16
ATOM     15  N   UNL     1       7.497  -2.229  -0.085  0.00  0.00    -0.309 N 
ATOM     16  C   UNL     1       6.170  -1.993  -0.070  0.00  0.00    +0.251 C 
ATOM     17  O   UNL     1       5.389  -2.921  -0.068  0.00  0.00    -0.272 OA
ATOM     18  H   UNL     1       8.122  -1.487  -0.086  0.00  0.00    +0.149 HD
BRANCH  15  25
ATOM     19  C   UNL     1       9.364  -3.130   1.938  0.00  0.00    +0.009 C 
ATOM     20  C   UNL     1       9.405  -3.644   0.498  0.00  0.00    +0.006 C 
ATOM     21  C   UNL     1      10.334  -2.757  -0.334  0.00  0.00    +0.005 C 
ATOM     22  C   UNL     1      10.376  -3.271  -1.774  0.00  0.00    +0.000 C 
ATOM     23  C   UNL     1       8.967  -3.233  -2.370  0.00  0.00    +0.002 C 
ATOM     24  C   UNL     1       8.038  -4.120  -1.539  0.00  0.00    +0.022 C 
ATOM     25  C   UNL     1       7.996  -3.606  -0.098  0.00  0.00    +0.076 C 
ENDBRANCH  15  25
ENDBRANCH  14  16
ENDBRANCH   1  14
TORSDOF 5
