REMARK  Name = ZINC34789430
REMARK  5 active torsions:
REMARK  status: ('A' for Active; 'I' for Inactive)
REMARK    1  A    between atoms: C_4  and  C_7
REMARK    2  A    between atoms: C_15  and  N_21
REMARK    3  A    between atoms: N_19  and  N_20
REMARK    4  A    between atoms: N_21  and  N_22
REMARK    5  A    between atoms: C_23  and  C_26
REMARK                            x       y       z     vdW  Elec       q    Type
REMARK                         _______ _______ _______ _____ _____    ______ ____
ROOT
ATOM      1  C   UNL     1       3.916  -0.462  -0.123  0.00  0.00    +0.081 C 
ATOM      2  C   UNL     1       3.926  -1.415  -1.315  0.00  0.00    +0.054 C 
ATOM      3  C   UNL     1       5.116  -2.347  -1.277  0.00  0.00    -0.033 C 
ATOM      4  C   UNL     1       5.861  -2.674  -0.231  0.00  0.00    -0.043 C 
ATOM      5  C   UNL     1       6.935  -3.650  -0.678  0.00  0.00    +0.086 C 
ATOM      6  C   UNL     1       6.715  -3.839  -2.143  0.00  0.00    +0.033 A 
ATOM      7  C   UNL     1       5.613  -3.041  -2.476  0.00  0.00    +0.039 A 
ATOM      8  C   UNL     1       5.152  -3.003  -3.807  0.00  0.00    +0.145 A 
ATOM      9  N   UNL     1       5.833  -3.763  -4.671  0.00  0.00    -0.198 NA
ATOM     10  C   UNL     1       6.868  -4.500  -4.308  0.00  0.00    +0.209 A 
ATOM     11  N   UNL     1       7.333  -4.562  -3.058  0.00  0.00    -0.329 N 
ATOM     12  N   UNL     1       7.505  -5.251  -5.278  0.00  0.00    -0.253 N 
ATOM     13  C   UNL     1       5.729  -2.188   1.195  0.00  0.00    +0.103 C 
ATOM     14  S   UNL     1       4.082  -1.443   1.401  0.00  0.00    -0.140 S 
ATOM     15  H   UNL     1       8.268  -5.802  -5.042  0.00  0.00    +0.169 HD
ATOM     16  H   UNL     1       8.097  -5.115  -2.831  0.00  0.00    +0.168 HD
ENDROOT
BRANCH   1  20
ATOM     17  C   UNL     1       0.235   1.704  -0.046  0.00  0.00    +0.000 A 
ATOM     18  C   UNL     1       1.435   2.384  -0.144  0.00  0.00    +0.000 A 
ATOM     19  C   UNL     1       2.626   1.683  -0.169  0.00  0.00    +0.005 A 
ATOM     20  C   UNL     1       2.617   0.302  -0.095  0.00  0.00    -0.034 A 
ATOM     21  C   UNL     1       1.418  -0.377   0.003  0.00  0.00    +0.005 A 
ATOM     22  C   UNL     1       0.226   0.324   0.026  0.00  0.00    +0.000 A 
ENDBRANCH   1  20
BRANCH  13  23
ATOM     23  C   UNL     1       5.886  -3.349   2.143  0.00  0.00    -0.030 A 
ATOM     24  C   UNL     1       5.017  -4.422   2.072  0.00  0.00    +0.005 A 
ATOM     25  C   UNL     1       5.162  -5.487   2.941  0.00  0.00    +0.000 A 
ATOM     26  C   UNL     1       6.175  -5.479   3.881  0.00  0.00    +0.000 A 
ATOM     27  C   UNL     1       7.045  -4.407   3.952  0.00  0.00    +0.000 A 
ATOM     28  C   UNL     1       6.903  -3.344   3.079  0.00  0.00    +0.005 A 
ENDBRANCH  13  23
BRANCH  12  29
ATOM     29  N   UNL     1       7.061  -5.217  -6.570  0.00  0.00    -0.254 NA
ATOM     30  H   UNL     1       7.622  -5.813  -7.161  0.00  0.00    +0.140 HD
ATOM     31  H   UNL     1       6.086  -5.470  -6.623  0.00  0.00    +0.140 HD
ENDBRANCH  12  29
BRANCH   8  32
ATOM     32  N   UNL     1       4.069  -2.234  -4.193  0.00  0.00    -0.267 N 
ATOM     33  H   UNL     1       3.517  -1.802  -3.522  0.00  0.00    +0.167 HD
BRANCH  32  34
ATOM     34  N   UNL     1       3.777  -2.081  -5.519  0.00  0.00    -0.255 NA
ATOM     35  H   UNL     1       3.652  -2.976  -5.966  0.00  0.00    +0.140 HD
ATOM     36  H   UNL     1       2.965  -1.496  -5.645  0.00  0.00    +0.140 HD
ENDBRANCH  32  34
ENDBRANCH   8  32
TORSDOF 5
