REMARK  Name = ZINC63118928
REMARK  5 active torsions:
REMARK  status: ('A' for Active; 'I' for Inactive)
REMARK    1  A    between atoms: C_1  and  C_2
REMARK    2  A    between atoms: C_2  and  C_3
REMARK    3  A    between atoms: C_3  and  C_4
REMARK    4  A    between atoms: C_17  and  N_18
REMARK    5  A    between atoms: N_18  and  N_19
REMARK                            x       y       z     vdW  Elec       q    Type
REMARK                         _______ _______ _______ _____ _____    ______ ____
ROOT
ATOM      1  C   UNL     1       0.739  -2.004  -1.265  0.00  0.00    -0.006 A 
ATOM      2  C   UNL     1       1.821  -2.677  -0.775  0.00  0.00    +0.017 A 
ATOM      3  C   UNL     1       1.801  -4.083  -0.799  0.00  0.00    +0.003 A 
ATOM      4  C   UNL     1       2.892  -4.833  -0.305  0.00  0.00    +0.011 A 
ATOM      5  C   UNL     1       2.882  -6.182  -0.325  0.00  0.00    +0.011 A 
ATOM      6  C   UNL     1       1.780  -6.900  -0.840  0.00  0.00    +0.003 A 
ATOM      7  C   UNL     1       1.775  -8.305  -0.858  0.00  0.00    +0.011 A 
ATOM      8  C   UNL     1       0.678  -8.942  -1.370  0.00  0.00    +0.020 A 
ATOM      9  C   UNL     1      -0.392  -8.197  -1.855  0.00  0.00    +0.111 A 
ATOM     10  N   UNL     1      -0.380  -6.884  -1.835  0.00  0.00    -0.253 NA
ATOM     11  C   UNL     1       0.658  -6.209  -1.350  0.00  0.00    +0.097 A 
ATOM     12  C   UNL     1       0.670  -4.741  -1.328  0.00  0.00    +0.099 A 
ATOM     13  N   UNL     1      -0.359  -4.038  -1.793  0.00  0.00    -0.229 NA
ATOM     14  C   UNL     1      -0.353  -2.718  -1.770  0.00  0.00    +0.136 A 
ENDROOT
BRANCH  14  15
ATOM     15  N   UNL     1      -1.450  -2.024  -2.261  0.00  0.00    -0.267 N 
ATOM     16  H   UNL     1      -1.455  -1.054  -2.252  0.00  0.00    +0.167 HD
BRANCH  15  17
ATOM     17  N   UNL     1      -2.524  -2.708  -2.757  0.00  0.00    -0.255 NA
ATOM     18  H   UNL     1      -2.890  -3.352  -2.073  0.00  0.00    +0.140 HD
ATOM     19  H   UNL     1      -3.241  -2.073  -3.076  0.00  0.00    +0.140 HD
ENDBRANCH  15  17
ENDBRANCH  14  15
BRANCH   1  20
ATOM     20  C   UNL     1       0.718  -0.497  -1.257  0.00  0.00    +0.038 C 
BRANCH  20  22
ATOM     21  C   UNL     1      -0.019   1.526   0.010  0.00  0.00    +0.004 C 
ATOM     22  C   UNL     1       0.002  -0.004   0.002  0.00  0.00    +0.001 C 
ENDBRANCH  20  22
ENDBRANCH   1  20
TORSDOF 4
