REMARK  Name = ZINC00614064
REMARK  6 active torsions:
REMARK  status: ('A' for Active; 'I' for Inactive)
REMARK    1  A    between atoms: C_1  and  C_2
REMARK    2  A    between atoms: C_2  and  C_3
REMARK    3  A    between atoms: C_12  and  C_13
REMARK    4  A    between atoms: C_12  and  O_23
REMARK    5  A    between atoms: C_13  and  C_14
REMARK    6  A    between atoms: C_14  and  C_16
REMARK                            x       y       z     vdW  Elec       q    Type
REMARK                         _______ _______ _______ _____ _____    ______ ____
ROOT
ATOM      1  C   UNL     1      -0.742   1.585  -1.213  0.00  0.00    -0.026 A 
ATOM      2  C   UNL     1      -1.679   0.783  -1.831  0.00  0.00    +0.005 A 
ATOM      3  C   UNL     1      -2.353   1.232  -2.951  0.00  0.00    +0.001 A 
ATOM      4  C   UNL     1      -2.086   2.493  -3.457  0.00  0.00    +0.009 A 
ATOM      5  C   UNL     1      -1.151   3.295  -2.842  0.00  0.00    +0.015 A 
ATOM      6  C   UNL     1      -0.471   2.857  -1.712  0.00  0.00    +0.043 A 
ATOM      7  N   UNL     1       0.421   3.837  -1.277  0.00  0.00    -0.282 N 
ATOM      8  C   UNL     1       0.385   4.937  -2.048  0.00  0.00    +0.254 C 
ATOM      9  O   UNL     1       1.048   5.942  -1.902  0.00  0.00    -0.272 OA
ATOM     10  C   UNL     1      -0.639   4.686  -3.135  0.00  0.00    +0.175 C 
ATOM     11  H   UNL     1       0.999   3.738  -0.504  0.00  0.00    +0.155 HD
ENDROOT
BRANCH   1  13
ATOM     12  C   UNL     1      -0.729   1.579   1.267  0.00  0.00    +0.009 C 
ATOM     13  C   UNL     1      -0.013   1.086   0.008  0.00  0.00    +0.033 C 
ENDBRANCH   1  13
BRANCH  10  14
ATOM     14  O   UNL     1      -0.025   4.733  -4.425  0.00  0.00    -0.374 OA
ATOM     15  H   UNL     1       0.321   5.603  -4.664  0.00  0.00    +0.211 HD
ENDBRANCH  10  14
BRANCH  10  16
ATOM     16  C   UNL     1      -1.776   5.706  -3.046  0.00  0.00    +0.129 C 
BRANCH  16  17
ATOM     17  C   UNL     1      -1.240   7.083  -3.341  0.00  0.00    +0.167 C 
ATOM     18  O   UNL     1      -0.064   7.234  -3.598  0.00  0.00    -0.292 OA
BRANCH  17  19
ATOM     19  C   UNL     1      -2.142   8.244  -3.319  0.00  0.00    +0.018 A 
ATOM     20  C   UNL     1      -3.500   8.073  -3.029  0.00  0.00    +0.013 A 
ATOM     21  C   UNL     1      -4.339   9.166  -3.005  0.00  0.00    +0.020 A 
ATOM     22  C   UNL     1      -3.843  10.431  -3.277  0.00  0.00    +0.041 A 
ATOM     23  C   UNL     1      -2.500  10.607  -3.570  0.00  0.00    +0.020 A 
ATOM     24  C   UNL     1      -1.648   9.524  -3.592  0.00  0.00    +0.013 A 
ATOM     25 CL   UNL     1      -4.908  11.801  -3.250  0.00  0.00    -0.084 Cl
ENDBRANCH  17  19
ENDBRANCH  16  17
ENDBRANCH  10  16
TORSDOF 5
