REMARK  Name = ZINC39855931
REMARK  8 active torsions:
REMARK  status: ('A' for Active; 'I' for Inactive)
REMARK    1  A    between atoms: C_1  and  C_2
REMARK    2  A    between atoms: C_5  and  N_9
REMARK    3  A    between atoms: C_6  and  C_8
REMARK    4  A    between atoms: C_10  and  C_12
REMARK    5  A    between atoms: C_13  and  C_28
REMARK    6  A    between atoms: C_18  and  C_26
REMARK    7  A    between atoms: C_18  and  C_27
REMARK    8  A    between atoms: N_21  and  N_22
REMARK                            x       y       z     vdW  Elec       q    Type
REMARK                         _______ _______ _______ _____ _____    ______ ____
ROOT
ATOM      1  C   UNL     1      -0.132  -6.302  -1.187  0.00  0.00    +0.193 A 
ATOM      2  C   UNL     1      -0.230  -7.096  -2.296  0.00  0.00    +0.009 A 
ATOM      3  C   UNL     1      -0.291  -8.414  -1.829  0.00  0.00    +0.043 A 
ATOM      4  C   UNL     1      -0.229  -8.370  -0.457  0.00  0.00    +0.116 A 
ATOM      5  O   UNL     1      -0.126  -7.094  -0.091  0.00  0.00    -0.454 OA
ATOM      6  C   UNL     1      -0.273  -9.604   0.407  0.00  0.00    +0.081 C 
ATOM      7  C   UNL     1      -0.893 -10.758  -0.386  0.00  0.00    -0.023 C 
ATOM      8  C   UNL     1      -0.172 -10.943  -1.725  0.00  0.00    +0.064 C 
ATOM      9  C   UNL     1      -0.400  -9.694  -2.565  0.00  0.00    +0.073 C 
ATOM     10  N   UNL     1      -0.669  -9.748  -3.832  0.00  0.00    -0.175 NA
ATOM     11  C   UNL     1      -0.781 -12.048   0.430  0.00  0.00    +0.011 C 
ATOM     12  C   UNL     1      -2.370 -10.454  -0.646  0.00  0.00    +0.011 C 
ATOM     13  C   UNL     1      -0.266  -6.642  -3.733  0.00  0.00    +0.048 C 
ENDROOT
BRANCH  10  14
ATOM     14  N   UNL     1      -0.760 -10.988  -4.477  0.00  0.00    -0.248 N 
ATOM     15  C   UNL     1      -1.044 -11.044  -5.815  0.00  0.00    +0.187 C 
ATOM     16  N   UNL     1      -1.130 -12.224  -6.429  0.00  0.00    -0.370 N 
ATOM     17  N   UNL     1      -1.234  -9.920  -6.504  0.00  0.00    -0.370 N 
ATOM     18  H   UNL     1      -0.621 -11.807  -3.976  0.00  0.00    +0.192 HD
ATOM     19  H   UNL     1      -0.992 -13.043  -5.928  0.00  0.00    +0.159 HD
ATOM     20  H   UNL     1      -1.171  -9.061  -6.058  0.00  0.00    +0.159 HD
ATOM     21  H   UNL     1      -1.435  -9.960  -7.452  0.00  0.00    +0.159 HD
ATOM     22  H   UNL     1      -1.331 -12.264  -7.377  0.00  0.00    +0.159 HD
ENDBRANCH  10  14
BRANCH   1  24
ATOM     23  N   UNL     1       0.059  -4.169  -0.021  0.00  0.00    -0.279 N 
ATOM     24  C   UNL     1      -0.040  -4.838  -1.187  0.00  0.00    +0.284 C 
ATOM     25  O   UNL     1      -0.054  -4.227  -2.239  0.00  0.00    -0.266 OA
ATOM     26  H   UNL     1       0.135  -4.657   0.814  0.00  0.00    +0.155 HD
BRANCH  23  31
ATOM     27  C   UNL     1       0.024   1.503   0.005  0.00  0.00    +0.044 C 
ATOM     28  C   UNL     1       0.033  -0.004  -0.002  0.00  0.00    -0.050 A 
ATOM     29  C   UNL     1       0.631  -0.685  -1.046  0.00  0.00    +0.005 A 
ATOM     30  C   UNL     1       0.642  -2.066  -1.055  0.00  0.00    +0.024 A 
ATOM     31  C   UNL     1       0.051  -2.771  -0.014  0.00  0.00    +0.037 A 
ATOM     32  C   UNL     1      -0.549  -2.083   1.033  0.00  0.00    -0.029 A 
ATOM     33  C   UNL     1      -0.551  -0.702   1.039  0.00  0.00    +0.008 A 
ATOM     34  C   UNL     1      -1.192  -2.843   2.164  0.00  0.00    +0.045 C 
ENDBRANCH  23  31
ENDBRANCH   1  24
TORSDOF 3
