REMARK  Name = ZINC28629187
REMARK  8 active torsions:
REMARK  status: ('A' for Active; 'I' for Inactive)
REMARK    1  A    between atoms: C_1  and  C_2
REMARK    2  A    between atoms: C_2  and  C_3
REMARK    3  A    between atoms: C_2  and  N_4
REMARK    4  A    between atoms: N_4  and  C_5
REMARK    5  A    between atoms: C_5  and  C_6
REMARK    6  A    between atoms: C_5  and  C_7
REMARK    7  A    between atoms: N_10  and  C_11
REMARK    8  A    between atoms: C_11  and  C_20
REMARK                            x       y       z     vdW  Elec       q    Type
REMARK                         _______ _______ _______ _____ _____    ______ ____
ROOT
ATOM      1  C   UNL     1      -2.417   0.927   0.310  0.00  0.00    +0.436 C 
ATOM      2  O   UNL     1      -2.288   0.097   1.479  0.00  0.00    -0.426 OA
ATOM      3  C   UNL     1      -1.713  -1.064   1.036  0.00  0.00    +0.169 A 
ATOM      4  C   UNL     1      -1.069  -2.086   1.715  0.00  0.00    +0.049 A 
ATOM      5  C   UNL     1      -0.569  -3.171   1.018  0.00  0.00    +0.004 A 
ATOM      6  C   UNL     1      -0.710  -3.238  -0.355  0.00  0.00    +0.004 A 
ATOM      7  C   UNL     1      -1.350  -2.221  -1.039  0.00  0.00    +0.049 A 
ATOM      8  C   UNL     1      -1.854  -1.132  -0.347  0.00  0.00    +0.169 A 
ATOM      9  O   UNL     1      -2.516  -0.017  -0.774  0.00  0.00    -0.426 OA
ENDROOT
BRANCH   1  13
ATOM     10  N   UNL     1       1.085   1.998   0.001  0.00  0.00    -0.280 N 
ATOM     11  C   UNL     1      -0.012   1.216   0.052  0.00  0.00    +0.308 C 
ATOM     12  O   UNL     1       0.102   0.007   0.007  0.00  0.00    -0.252 OA
ATOM     13  N   UNL     1      -1.234   1.776   0.148  0.00  0.00    -0.220 N 
ATOM     14  H   UNL     1      -1.344   2.869   0.104  0.00  0.00    +0.158 HD
BRANCH  10  16
ATOM     15  C   UNL     1       0.110   3.838  -1.282  0.00  0.00    +0.028 C 
ATOM     16  C   UNL     1       0.943   3.455  -0.057  0.00  0.00    +0.072 C 
ATOM     17  C   UNL     1       0.245   3.951   1.211  0.00  0.00    +0.028 C 
ENDBRANCH  10  16
BRANCH  10  18
ATOM     18  C   UNL     1       2.418   1.391   0.004  0.00  0.00    +0.072 C 
ATOM     19  C   UNL     1       3.114   1.683  -1.327  0.00  0.00    +0.028 C 
ATOM     20  C   UNL     1       3.244   1.979   1.151  0.00  0.00    +0.028 C 
ENDBRANCH  10  18
ENDBRANCH   1  13
BRANCH   1  21
ATOM     21  C   UNL     1      -3.683   1.782   0.395  0.00  0.00    +0.490 C 
ATOM     22  F   UNL     1      -3.819   2.531  -0.778  0.00  0.00    -0.162 F 
ATOM     23  F   UNL     1      -4.798   0.951   0.549  0.00  0.00    -0.162 F 
ATOM     24  F   UNL     1      -3.590   2.645   1.492  0.00  0.00    -0.162 F 
ENDBRANCH   1  21
TORSDOF 4
