REMARK  Name = ZINC67648666
REMARK  7 active torsions:
REMARK  status: ('A' for Active; 'I' for Inactive)
REMARK    1  A    between atoms: C_1  and  C_2
REMARK    2  A    between atoms: C_8  and  N_10
REMARK    3  A    between atoms: C_11  and  C_13
REMARK    4  A    between atoms: C_13  and  C_15
REMARK    5  A    between atoms: C_13  and  S_16
REMARK    6  A    between atoms: S_16  and  C_17
REMARK    7  A    between atoms: C_18  and  N_23
REMARK                            x       y       z     vdW  Elec       q    Type
REMARK                         _______ _______ _______ _____ _____    ______ ____
ROOT
ATOM      1  C   UNL     1       0.033   0.579   4.842  0.00  0.00    +0.135 C 
ATOM      2  C   UNL     1      -0.639  -0.603   5.543  0.00  0.00    +0.029 C 
ENDROOT
BRANCH   1   4
ATOM      3  N   UNL     1       0.056  -0.038   2.447  0.00  0.00    -0.311 N 
ATOM      4  C   UNL     1       0.738   0.093   3.602  0.00  0.00    +0.226 C 
ATOM      5  O   UNL     1       1.919  -0.179   3.644  0.00  0.00    -0.275 OA
ATOM      6  H   UNL     1      -0.888   0.180   2.413  0.00  0.00    +0.149 HD
BRANCH   3  13
ATOM      7  C   UNL     1      -0.019   1.526   0.010  0.00  0.00    +0.009 C 
ATOM      8  C   UNL     1       0.002  -0.004   0.002  0.00  0.00    +0.006 C 
ATOM      9  C   UNL     1      -1.433  -0.534   0.013  0.00  0.00    +0.005 C 
ATOM     10  C   UNL     1      -1.413  -2.063   0.004  0.00  0.00    +0.000 C 
ATOM     11  C   UNL     1      -0.673  -2.570   1.244  0.00  0.00    +0.002 C 
ATOM     12  C   UNL     1       0.763  -2.041   1.233  0.00  0.00    +0.022 C 
ATOM     13  C   UNL     1       0.742  -0.511   1.242  0.00  0.00    +0.076 C 
ENDBRANCH   3  13
ENDBRANCH   1   4
BRANCH   1  14
ATOM     14  S   UNL     1       1.237   1.343   5.963  0.00  0.00    -0.091 S 
BRANCH  14  15
ATOM     15  C   UNL     1       0.252   1.983   7.276  0.00  0.00    +0.128 A 
ATOM     16  C   UNL     1       0.861   2.654   8.332  0.00  0.00    +0.158 A 
ATOM     17  C   UNL     1       0.076   3.151   9.355  0.00  0.00    +0.037 A 
ATOM     18  C   UNL     1      -1.299   2.961   9.289  0.00  0.00    +0.022 A 
ATOM     19  C   UNL     1      -1.837   2.287   8.211  0.00  0.00    +0.112 A 
ATOM     20  N   UNL     1      -1.063   1.827   7.246  0.00  0.00    -0.246 NA
BRANCH  16  21
ATOM     21  N   UNL     1       2.330   2.831   8.360  0.00  0.00    +0.059 N 
ATOM     22  O   UNL     1       2.851   3.415   9.282  0.00  0.00    -0.126 OA
ATOM     23  O   UNL     1       3.010   2.392   7.461  0.00  0.00    -0.126 OA
ENDBRANCH  16  21
ENDBRANCH  14  15
ENDBRANCH   1  14
TORSDOF 5
