REMARK  Name = ZINC32949630
REMARK  6 active torsions:
REMARK  status: ('A' for Active; 'I' for Inactive)
REMARK    1  A    between atoms: C_5  and  S_7
REMARK    2  A    between atoms: S_7  and  N_10
REMARK    3  A    between atoms: N_10  and  C_11
REMARK    4  A    between atoms: C_11  and  C_12
REMARK    5  A    between atoms: C_12  and  N_13
REMARK    6  A    between atoms: C_21  and  C_22
REMARK                            x       y       z     vdW  Elec       q    Type
REMARK                         _______ _______ _______ _____ _____    ______ ____
ROOT
ATOM      1  C   UNL     1       1.248   1.716  -0.001  0.00  0.00    +0.127 C 
ENDROOT
BRANCH   1   2
ATOM      2  N   UNL     1      -0.011   0.966   0.007  0.00  0.00    -0.188 NA
ATOM      3  H   UNL     1      -0.005  -0.121  -0.159  0.00  0.00    +0.148 HD
BRANCH   2   4
ATOM      4  S   UNL     1      -1.456   1.774   0.019  0.00  0.00    +0.061 S 
ATOM      5  O   UNL     1      -2.475   0.784  -0.009  0.00  0.00    -0.153 OA
ATOM      6  O   UNL     1      -1.369   2.749   1.049  0.00  0.00    -0.153 OA
BRANCH   4  11
ATOM      7  C   UNL     1      -2.651   3.013  -3.615  0.00  0.00    +0.004 A 
ATOM      8  C   UNL     1      -1.813   4.024  -3.947  0.00  0.00    +0.031 A 
ATOM      9  C   UNL     1      -0.784   4.417  -3.053  0.00  0.00    +0.102 A 
ATOM     10  C   UNL     1      -0.661   3.711  -1.780  0.00  0.00    +0.126 A 
ATOM     11  C   UNL     1      -1.571   2.658  -1.502  0.00  0.00    +0.133 A 
ATOM     12  C   UNL     1      -2.530   2.335  -2.401  0.00  0.00    +0.031 A 
ATOM     13  N   UNL     1       0.338   4.185  -1.040  0.00  0.00    -0.189 NA
ATOM     14  S   UNL     1       0.985   5.347  -1.869  0.00  0.00    +0.117 S 
ATOM     15  N   UNL     1       0.134   5.372  -3.184  0.00  0.00    -0.191 NA
ENDBRANCH   4  11
ENDBRANCH   2   4
ENDBRANCH   1   2
BRANCH   1  16
ATOM     16  C   UNL     1       2.402   0.777   0.357  0.00  0.00    +0.142 C 
BRANCH  16  17
ATOM     17  N   UNL     1       3.661   1.527   0.349  0.00  0.00    -0.304 N 
ATOM     18  C   UNL     1       4.224   2.186   1.420  0.00  0.00    +0.161 A 
ATOM     19  C   UNL     1       5.417   2.753   0.937  0.00  0.00    +0.109 A 
ATOM     20  C   UNL     1       6.218   3.494   1.812  0.00  0.00    +0.033 A 
ATOM     21  C   UNL     1       5.797   3.635   3.120  0.00  0.00    +0.022 A 
ATOM     22  C   UNL     1       4.609   3.046   3.523  0.00  0.00    +0.113 A 
ATOM     23  N   UNL     1       3.868   2.352   2.684  0.00  0.00    -0.236 NA
ATOM     24  N   UNL     1       5.517   2.419  -0.374  0.00  0.00    -0.222 NA
ATOM     25  C   UNL     1       4.491   1.696  -0.717  0.00  0.00    +0.217 A 
BRANCH  25  26
ATOM     26  C   UNL     1       4.254   1.131  -2.094  0.00  0.00    +0.451 C 
ATOM     27  F   UNL     1       5.438   1.200  -2.836  0.00  0.00    -0.163 F 
ATOM     28  F   UNL     1       3.847  -0.203  -1.987  0.00  0.00    -0.163 F 
ATOM     29  F   UNL     1       3.257   1.873  -2.737  0.00  0.00    -0.163 F 
ENDBRANCH  25  26
ENDBRANCH  16  17
ENDBRANCH   1  16
TORSDOF 6
