REMARK  Name = ZINC20686734
REMARK  8 active torsions:
REMARK  status: ('A' for Active; 'I' for Inactive)
REMARK    1  A    between atoms: C_1  and  C_2
REMARK    2  A    between atoms: C_5  and  N_9
REMARK    3  A    between atoms: C_7  and  C_8
REMARK    4  A    between atoms: C_10  and  C_12
REMARK    5  A    between atoms: C_19  and  C_28
REMARK    6  A    between atoms: C_31  and  N_34
REMARK    7  A    between atoms: N_34  and  C_35
REMARK    8  A    between atoms: N_34  and  C_36
REMARK                            x       y       z     vdW  Elec       q    Type
REMARK                         _______ _______ _______ _____ _____    ______ ____
ROOT
ATOM      1  C   UNL     1       1.238  -0.664  -0.197  0.00  0.00    +0.058 A 
ATOM      2  C   UNL     1       2.401   0.086  -0.034  0.00  0.00    +0.015 A 
ATOM      3  C   UNL     1       2.336   1.462  -0.004  0.00  0.00    +0.001 A 
ATOM      4  C   UNL     1       1.114   2.098  -0.145  0.00  0.00    +0.006 A 
ATOM      5  C   UNL     1      -0.045   1.372  -0.315  0.00  0.00    -0.019 A 
ATOM      6  C   UNL     1      -0.012  -0.025  -0.334  0.00  0.00    +0.044 A 
ATOM      7  N   UNL     1      -1.132  -0.829  -0.457  0.00  0.00    -0.336 N 
ATOM      8  C   UNL     1      -2.416  -0.150  -0.696  0.00  0.00    +0.105 C 
ATOM      9  C   UNL     1      -2.422   1.102   0.155  0.00  0.00    +0.029 C 
ATOM     10  C   UNL     1      -1.355   2.032  -0.503  0.00  0.00    +0.049 C 
ATOM     11  C   UNL     1      -1.671   3.363   0.070  0.00  0.00    -0.023 C 
ATOM     12  C   UNL     1      -2.966   3.402   0.361  0.00  0.00    -0.030 C 
ATOM     13  C   UNL     1      -3.628   2.042   0.048  0.00  0.00    +0.033 C 
ATOM     14  H   UNL     1      -1.096  -1.926  -0.383  0.00  0.00    +0.147 HD
ENDROOT
BRANCH   8  15
ATOM     15  C   UNL     1      -3.556  -1.050  -0.295  0.00  0.00    -0.027 A 
ATOM     16  C   UNL     1      -3.455  -1.824   0.846  0.00  0.00    +0.007 A 
ATOM     17  C   UNL     1      -4.500  -2.646   1.220  0.00  0.00    +0.023 A 
ATOM     18  C   UNL     1      -5.650  -2.702   0.442  0.00  0.00    +0.029 A 
ATOM     19  C   UNL     1      -5.746  -1.927  -0.707  0.00  0.00    +0.023 A 
ATOM     20  C   UNL     1      -4.699  -1.103  -1.072  0.00  0.00    +0.007 A 
BRANCH  18  21
ATOM     21  N   UNL     1      -6.707  -3.536   0.814  0.00  0.00    -0.336 N 
ATOM     22  C   UNL     1      -7.918  -3.594  -0.009  0.00  0.00    +0.129 C 
ATOM     23  C   UNL     1      -6.604  -4.353   2.025  0.00  0.00    +0.129 C 
ENDBRANCH  18  21
ENDBRANCH   8  15
BRANCH   1  25
ATOM     24  N   UNL     1       2.507  -2.752  -0.097  0.00  0.00    -0.281 N 
ATOM     25  C   UNL     1       1.315  -2.136  -0.227  0.00  0.00    +0.250 C 
ATOM     26  O   UNL     1       0.302  -2.795  -0.369  0.00  0.00    -0.270 OA
ATOM     27  H   UNL     1       3.431  -2.157  -0.056  0.00  0.00    +0.155 HD
BRANCH  24  32
ATOM     28  C   UNL     1       2.756  -8.409   0.241  0.00  0.00    +0.044 C 
ATOM     29  C   UNL     1       2.690  -6.906   0.151  0.00  0.00    -0.047 A 
ATOM     30  C   UNL     1       3.710  -6.206  -0.467  0.00  0.00    +0.005 A 
ATOM     31  C   UNL     1       3.653  -4.829  -0.550  0.00  0.00    +0.023 A 
ATOM     32  C   UNL     1       2.568  -4.146  -0.014  0.00  0.00    +0.034 A 
ATOM     33  C   UNL     1       1.547  -4.852   0.610  0.00  0.00    +0.027 A 
ATOM     34  C   UNL     1       1.609  -6.230   0.685  0.00  0.00    -0.046 A 
ATOM     35  C   UNL     1       0.499  -6.997   1.357  0.00  0.00    +0.044 C 
ENDBRANCH  24  32
ENDBRANCH   1  25
TORSDOF 4
