REMARK  Name = ZINC33737312
REMARK  9 active torsions:
REMARK  status: ('A' for Active; 'I' for Inactive)
REMARK    1  A    between atoms: C_1  and  C_2
REMARK    2  A    between atoms: N_4  and  C_5
REMARK    3  A    between atoms: C_7  and  O_28
REMARK    4  A    between atoms: C_9  and  O_27
REMARK    5  A    between atoms: C_11  and  C_25
REMARK    6  A    between atoms: C_14  and  O_16
REMARK    7  A    between atoms: O_16  and  C_17
REMARK    8  A    between atoms: C_20  and  C_23
REMARK    9  A    between atoms: C_25  and  O_26
REMARK                            x       y       z     vdW  Elec       q    Type
REMARK                         _______ _______ _______ _____ _____    ______ ____
ROOT
ATOM      1  C   UNL     1      -0.754   1.593  -1.232  0.00  0.00    +0.173 C 
ATOM      2  C   UNL     1      -2.205   1.107  -1.294  0.00  0.00    +0.172 C 
ATOM      3  C   UNL     1      -2.949   1.593  -0.047  0.00  0.00    +0.176 C 
ATOM      4  C   UNL     1      -2.220   1.088   1.201  0.00  0.00    +0.179 C 
ATOM      5  O   UNL     1      -0.868   1.550   1.182  0.00  0.00    -0.332 OA
ATOM      6  C   UNL     1      -0.110   1.088   0.062  0.00  0.00    +0.331 C 
ENDROOT
BRANCH   1  10
ATOM      7  C   UNL     1      -0.714   5.222  -2.451  0.00  0.00    +0.109 C 
ATOM      8  C   UNL     1      -0.742   3.715  -2.429  0.00  0.00    +0.210 C 
ATOM      9  O   UNL     1      -0.777   3.094  -3.471  0.00  0.00    -0.276 OA
ATOM     10  N   UNL     1      -0.727   3.058  -1.253  0.00  0.00    -0.304 N 
ATOM     11  H   UNL     1      -0.695   3.621  -0.309  0.00  0.00    +0.149 HD
ENDBRANCH   1  10
BRANCH   3  12
ATOM     12  O   UNL     1      -2.982   3.021  -0.037  0.00  0.00    -0.387 OA
ATOM     13  H   UNL     1      -3.478   3.554   0.788  0.00  0.00    +0.210 HD
ENDBRANCH   3  12
BRANCH   2  14
ATOM     14  O   UNL     1      -2.229  -0.321  -1.339  0.00  0.00    -0.387 OA
ATOM     15  H   UNL     1      -3.190  -0.854  -1.387  0.00  0.00    +0.210 HD
ENDBRANCH   2  14
BRANCH   6  16
ATOM     16  O   UNL     1       1.227   1.585   0.154  0.00  0.00    -0.462 OA
BRANCH  16  17
ATOM     17  C   UNL     1       2.011   1.066   1.133  0.00  0.00    +0.124 A 
ATOM     18  C   UNL     1       1.498   0.101   1.993  0.00  0.00    +0.046 A 
ATOM     19  C   UNL     1       2.287  -0.430   2.981  0.00  0.00    +0.014 A 
ATOM     20  C   UNL     1       3.608   0.010   3.130  0.00  0.00    +0.014 A 
ATOM     21  C   UNL     1       4.118   0.986   2.265  0.00  0.00    +0.014 A 
ATOM     22  C   UNL     1       3.322   1.506   1.277  0.00  0.00    +0.046 A 
BRANCH  20  23
ATOM     23  C   UNL     1       4.456  -0.551   4.189  0.00  0.00    +0.258 C 
ATOM     24  O   UNL     1       4.012  -1.397   4.937  0.00  0.00    -0.296 OA
ENDBRANCH  20  23
ENDBRANCH  16  17
ENDBRANCH   6  16
BRANCH   4  25
ATOM     25  C   UNL     1      -2.923   1.619   2.452  0.00  0.00    +0.190 C 
BRANCH  25  26
ATOM     26  O   UNL     1      -2.315   1.055   3.616  0.00  0.00    -0.392 OA
ATOM     27  H   UNL     1      -2.688   1.321   4.616  0.00  0.00    +0.210 HD
ENDBRANCH  25  26
ENDBRANCH   4  25
TORSDOF 8
