REMARK  Name = ZINC35092941
REMARK  7 active torsions:
REMARK  status: ('A' for Active; 'I' for Inactive)
REMARK    1  A    between atoms: C_1  and  C_2
REMARK    2  A    between atoms: C_5  and  C_8
REMARK    3  A    between atoms: C_8  and  C_10
REMARK    4  A    between atoms: C_12  and  C_24
REMARK    5  A    between atoms: C_18  and  C_19
REMARK    6  A    between atoms: C_18  and  O_23
REMARK    7  A    between atoms: C_27  and  O_30
REMARK                            x       y       z     vdW  Elec       q    Type
REMARK                         _______ _______ _______ _____ _____    ______ ____
ROOT
ATOM      1  C   UNL     1       0.322  -5.303   0.507  0.00  0.00    +0.144 C 
ATOM      2  C   UNL     1      -0.623  -6.358   1.094  0.00  0.00    +0.120 C 
ATOM      3  N   UNL     1      -0.155  -7.690   0.707  0.00  0.00    -0.292 N 
ATOM      4  C   UNL     1       1.144  -7.936   0.484  0.00  0.00    +0.302 C 
ATOM      5  O   UNL     1       1.481  -9.063   0.174  0.00  0.00    -0.253 OA
ATOM      6  N   UNL     1       2.088  -6.988   0.588  0.00  0.00    -0.264 N 
ATOM      7  C   UNL     1       1.750  -5.611   0.969  0.00  0.00    +0.243 C 
ATOM      8  H   UNL     1      -0.798  -8.410   0.610  0.00  0.00    +0.151 HD
ATOM      9  H   UNL     1       3.013  -7.217   0.408  0.00  0.00    +0.153 HD
ENDROOT
BRANCH   2  10
ATOM     10  C   UNL     1      -2.016  -6.138   0.564  0.00  0.00    -0.026 A 
ATOM     11  C   UNL     1      -2.420  -6.770  -0.597  0.00  0.00    +0.009 A 
ATOM     12  C   UNL     1      -3.697  -6.570  -1.086  0.00  0.00    +0.046 A 
ATOM     13  C   UNL     1      -4.573  -5.733  -0.410  0.00  0.00    +0.117 A 
ATOM     14  C   UNL     1      -4.165  -5.099   0.755  0.00  0.00    +0.046 A 
ATOM     15  C   UNL     1      -2.889  -5.308   1.242  0.00  0.00    +0.009 A 
BRANCH  13  16
ATOM     16  O   UNL     1      -5.829  -5.533  -0.889  0.00  0.00    -0.507 OA
ATOM     17  H   UNL     1      -6.483  -6.162  -0.553  0.00  0.00    +0.292 HD
ENDBRANCH  13  16
ENDBRANCH   2  10
BRANCH   7  18
ATOM     18  C   UNL     1       1.839  -5.465   2.489  0.00  0.00    +0.436 C 
ATOM     19  F   UNL     1       0.951  -6.359   3.096  0.00  0.00    -0.166 F 
ATOM     20  F   UNL     1       3.143  -5.746   2.909  0.00  0.00    -0.166 F 
ATOM     21  F   UNL     1       1.504  -4.156   2.852  0.00  0.00    -0.166 F 
ENDBRANCH   7  18
BRANCH   1  22
ATOM     22  C   UNL     1       0.256  -5.347  -0.998  0.00  0.00    +0.173 C 
ATOM     23  O   UNL     1       0.099  -6.406  -1.567  0.00  0.00    -0.292 OA
BRANCH  22  28
ATOM     24  C   UNL     1       0.747  -0.493  -4.039  0.00  0.00    +0.044 C 
ATOM     25  C   UNL     1       0.619  -1.766  -3.241  0.00  0.00    -0.050 A 
ATOM     26  C   UNL     1       0.440  -2.972  -3.895  0.00  0.00    +0.004 A 
ATOM     27  C   UNL     1       0.321  -4.141  -3.173  0.00  0.00    +0.011 A 
ATOM     28  C   UNL     1       0.382  -4.105  -1.776  0.00  0.00    +0.018 A 
ATOM     29  C   UNL     1       0.563  -2.881  -1.123  0.00  0.00    +0.011 A 
ATOM     30  C   UNL     1       0.685  -1.722  -1.860  0.00  0.00    +0.004 A 
ENDBRANCH  22  28
ENDBRANCH   1  22
BRANCH   7  31
ATOM     31  O   UNL     1       2.659  -4.701   0.346  0.00  0.00    -0.364 OA
ATOM     32  H   UNL     1       3.584  -4.838   0.594  0.00  0.00    +0.212 HD
ENDBRANCH   7  31
TORSDOF 6
