REMARK  Name = ZINC24339040
REMARK  9 active torsions:
REMARK  status: ('A' for Active; 'I' for Inactive)
REMARK    1  A    between atoms: C_1  and  C_2
REMARK    2  A    between atoms: C_5  and  C_33
REMARK    3  A    between atoms: C_10  and  C_12
REMARK    4  A    between atoms: C_12  and  N_13
REMARK    5  A    between atoms: N_16  and  C_19
REMARK    6  A    between atoms: C_19  and  C_21
REMARK    7  A    between atoms: C_19  and  C_22
REMARK    8  A    between atoms: N_24  and  C_25
REMARK    9  A    between atoms: C_26  and  C_30
REMARK                            x       y       z     vdW  Elec       q    Type
REMARK                         _______ _______ _______ _____ _____    ______ ____
ROOT
ATOM      1  N   UNL     1      -1.477   5.644   1.827  0.00  0.00    +0.387 N 
ATOM      2  C   UNL     1      -0.686   5.486   0.599  0.00  0.00    -0.063 C 
ATOM      3  C   UNL     1      -0.605   4.001   0.235  0.00  0.00    +0.066 C 
ATOM      4  N   UNL     1       0.003   3.259   1.348  0.00  0.00    -0.295 NA
ATOM      5  C   UNL     1      -0.787   3.417   2.577  0.00  0.00    +0.066 C 
ATOM      6  C   UNL     1      -0.869   4.902   2.941  0.00  0.00    -0.063 C 
ATOM      7  H   UNL     1      -2.477   5.223   1.644  0.00  0.00    -0.081 HD
ENDROOT
BRANCH   4   8
ATOM      8  C   UNL     1       0.168   1.840   1.007  0.00  0.00    +0.140 C 
ATOM      9  C   UNL     1      -1.136   1.303   0.413  0.00  0.00    +0.034 C 
BRANCH   8  10
ATOM     10  C   UNL     1       1.278   1.691  -0.001  0.00  0.00    +0.235 C 
ATOM     11  O   UNL     1       1.709   2.668  -0.577  0.00  0.00    -0.274 OA
ATOM     12  N   UNL     1       1.792   0.473  -0.263  0.00  0.00    -0.278 N 
ATOM     13  H   UNL     1       1.401  -0.412   0.260  0.00  0.00    +0.155 HD
BRANCH  12  14
ATOM     14  C   UNL     1       2.813   0.336  -1.191  0.00  0.00    +0.084 A 
ATOM     15  C   UNL     1       3.470  -0.823  -1.588  0.00  0.00    +0.065 A 
ATOM     16  C   UNL     1       4.503  -0.675  -2.585  0.00  0.00    +0.022 A 
ATOM     17  C   UNL     1       4.748   0.569  -3.035  0.00  0.00    +0.048 A 
ATOM     18  S   UNL     1       3.585   1.569  -2.130  0.00  0.00    -0.081 S 
BRANCH  15  19
ATOM     19  C   UNL     1       3.127  -2.132  -1.024  0.00  0.00    +0.244 C 
ATOM     20  O   UNL     1       2.248  -2.223  -0.187  0.00  0.00    -0.270 OA
ATOM     21  N   UNL     1       3.785  -3.235  -1.433  0.00  0.00    -0.325 N 
ATOM     22  H   UNL     1       3.527  -4.217  -1.010  0.00  0.00    +0.145 HD
ATOM     23  H   UNL     1       4.579  -3.153  -2.190  0.00  0.00    +0.145 HD
ENDBRANCH  15  19
ENDBRANCH  12  14
ENDBRANCH   8  10
ENDBRANCH   4   8
BRANCH   1  24
ATOM     24  C   UNL     1      -1.642   7.063   2.168  0.00  0.00    +0.019 C 
BRANCH  24  32
ATOM     25  C   UNL     1      -0.088  10.436   0.803  0.00  0.00    +0.009 C 
ATOM     26  C   UNL     1      -1.266  11.018   1.587  0.00  0.00    +0.004 C 
ATOM     27  C   UNL     1      -2.172  11.806   0.638  0.00  0.00    +0.009 C 
ATOM     28  C   UNL     1      -2.671  10.884  -0.476  0.00  0.00    +0.004 C 
ATOM     29  C   UNL     1      -3.490   9.744   0.139  0.00  0.00    +0.111 C 
ATOM     30  N   UNL     1      -2.673   9.072   1.158  0.00  0.00    -0.303 N 
ATOM     31  C   UNL     1      -2.073   9.880   2.229  0.00  0.00    +0.111 C 
ATOM     32  C   UNL     1      -2.482   7.738   1.115  0.00  0.00    +0.199 C 
ATOM     33  O   UNL     1      -2.987   7.082   0.229  0.00  0.00    -0.278 OA
ATOM     34  C   UNL     1      -3.550  11.680  -1.443  0.00  0.00    +0.009 C 
ENDBRANCH  24  32
ENDBRANCH   1  24
TORSDOF 6
