REMARK  Name = ZINC09960270
REMARK  13 active torsions:
REMARK  status: ('A' for Active; 'I' for Inactive)
REMARK    1  A    between atoms: C_1  and  C_2
REMARK    2  A    between atoms: C_4  and  C_32
REMARK    3  A    between atoms: C_9  and  C_11
REMARK    4  A    between atoms: N_13  and  C_14
REMARK    5  A    between atoms: N_13  and  C_18
REMARK    6  A    between atoms: C_14  and  C_15
REMARK    7  A    between atoms: C_15  and  C_16
REMARK    8  A    between atoms: C_15  and  C_17
REMARK    9  A    between atoms: C_19  and  N_31
REMARK   10  A    between atoms: N_20  and  C_27
REMARK   11  A    between atoms: C_27  and  C_28
REMARK   12  A    between atoms: C_28  and  C_29
REMARK   13  A    between atoms: C_28  and  C_30
REMARK                            x       y       z     vdW  Elec       q    Type
REMARK                         _______ _______ _______ _____ _____    ______ ____
ROOT
ATOM      1  C   UNL     1       1.874  -1.911  -0.225  0.00  0.00    +0.290 C 
ATOM      2  O   UNL     1       1.402  -0.809  -0.425  0.00  0.00    -0.266 OA
ATOM      3  N   UNL     1       3.161  -2.034   0.154  0.00  0.00    -0.257 N 
ENDROOT
BRANCH   1  12
ATOM      4  C   UNL     1      -0.818  -8.664  -0.767  0.00  0.00    +0.066 C 
ATOM      5  C   UNL     1      -0.759  -7.158  -0.760  0.00  0.00    +0.044 A 
ATOM      6  C   UNL     1      -1.921  -6.414  -1.007  0.00  0.00    +0.046 A 
ATOM      7  C   UNL     1      -1.854  -5.059  -1.002  0.00  0.00    +0.045 A 
ATOM      8  N   UNL     1      -0.660  -4.457  -0.748  0.00  0.00    -0.200 N 
ATOM      9  C   UNL     1       0.456  -5.213  -0.511  0.00  0.00    +0.254 A 
ATOM     10  N   UNL     1       0.380  -6.551  -0.523  0.00  0.00    -0.216 NA
ATOM     11  N   UNL     1       1.464  -4.378  -0.303  0.00  0.00    -0.185 NA
ATOM     12  C   UNL     1       1.034  -3.119  -0.398  0.00  0.00    +0.239 A 
ATOM     13  N   UNL     1      -0.258  -3.117  -0.669  0.00  0.00    -0.139 NA
ATOM     14  C   UNL     1      -3.085  -4.232  -1.271  0.00  0.00    +0.066 C 
ENDBRANCH   1  12
BRANCH   3  15
ATOM     15  C   UNL     1       3.739  -3.314   0.281  0.00  0.00    +0.140 A 
ATOM     16  C   UNL     1       4.670  -3.759  -0.635  0.00  0.00    +0.127 A 
ATOM     17  N   UNL     1       5.216  -5.012  -0.483  0.00  0.00    -0.280 N 
ATOM     18  C   UNL     1       4.848  -5.795   0.546  0.00  0.00    +0.331 A 
ATOM     19  O   UNL     1       5.342  -6.900   0.663  0.00  0.00    -0.246 OA
ATOM     20  N   UNL     1       3.942  -5.379   1.449  0.00  0.00    -0.273 N 
ATOM     21  H   UNL     1       3.682  -5.983   2.203  0.00  0.00    +0.173 HD
ATOM     22  C   UNL     1       3.380  -4.159   1.349  0.00  0.00    +0.277 A 
ATOM     23  O   UNL     1       2.563  -3.789   2.176  0.00  0.00    -0.266 OA
BRANCH  16  24
ATOM     24  N   UNL     1       5.047  -2.959  -1.687  0.00  0.00    -0.343 N 
ATOM     25  H   UNL     1       4.708  -2.052  -1.753  0.00  0.00    +0.144 HD
ATOM     26  H   UNL     1       5.652  -3.301  -2.364  0.00  0.00    +0.144 HD
ENDBRANCH  16  24
BRANCH  17  27
ATOM     27  C   UNL     1       6.206  -5.497  -1.449  0.00  0.00    +0.131 C 
BRANCH  27  28
ATOM     28  C   UNL     1       7.609  -5.107  -0.980  0.00  0.00    +0.003 C 
ATOM     29  C   UNL     1       7.930  -5.833   0.328  0.00  0.00    +0.009 C 
ATOM     30  C   UNL     1       8.632  -5.502  -2.047  0.00  0.00    +0.009 C 
ENDBRANCH  27  28
ENDBRANCH  17  27
ENDBRANCH   3  15
BRANCH   3  31
ATOM     31  C   UNL     1       3.960  -0.839   0.433  0.00  0.00    +0.117 C 
BRANCH  31  32
ATOM     32  C   UNL     1       3.942  -0.552   1.935  0.00  0.00    +0.001 C 
ATOM     33  C   UNL     1       4.841   0.648   2.237  0.00  0.00    +0.009 C 
ATOM     34  C   UNL     1       2.510  -0.241   2.377  0.00  0.00    +0.009 C 
ENDBRANCH  31  32
ENDBRANCH   3  31
TORSDOF 7
