REMARK  Name = ZINC45799276
REMARK  7 active torsions:
REMARK  status: ('A' for Active; 'I' for Inactive)
REMARK    1  A    between atoms: C_1  and  C_2
REMARK    2  A    between atoms: C_3  and  N_23
REMARK    3  A    between atoms: C_7  and  S_8
REMARK    4  A    between atoms: S_8  and  N_11
REMARK    5  A    between atoms: N_11  and  C_12
REMARK    6  A    between atoms: C_12  and  C_14
REMARK    7  A    between atoms: C_12  and  C_20
REMARK                            x       y       z     vdW  Elec       q    Type
REMARK                         _______ _______ _______ _____ _____    ______ ____
ROOT
ATOM      1  N   UNL     1       1.298   0.926   2.851  0.00  0.00    -0.174 NA
ATOM      2  H   UNL     1       2.030   0.689   3.441  0.00  0.00    +0.149 HD
ENDROOT
BRANCH   1   3
ATOM      3  S   UNL     1      -0.137   0.105   2.939  0.00  0.00    +0.060 S 
ATOM      4  O   UNL     1      -1.165   1.086   2.971  0.00  0.00    -0.153 OA
ATOM      5  O   UNL     1       0.016  -0.871   3.960  0.00  0.00    -0.153 OA
BRANCH   3  12
ATOM      6  C   UNL     1       1.655  -2.166   2.056  0.00  0.00    +0.048 C 
ATOM      7  C   UNL     1       0.542  -1.800   1.107  0.00  0.00    +0.006 A 
ATOM      8  C   UNL     1       0.389  -2.494  -0.079  0.00  0.00    +0.131 A 
ATOM      9  C   UNL     1      -0.631  -2.159  -0.949  0.00  0.00    +0.033 A 
ATOM     10  C   UNL     1      -1.499  -1.130  -0.633  0.00  0.00    +0.004 A 
ATOM     11  C   UNL     1      -1.346  -0.436   0.552  0.00  0.00    +0.029 A 
ATOM     12  C   UNL     1      -0.328  -0.775   1.425  0.00  0.00    +0.110 A 
BRANCH   8  13
ATOM     13  N   UNL     1       1.318  -3.596  -0.417  0.00  0.00    +0.057 N 
ATOM     14  O   UNL     1       1.247  -4.137  -1.496  0.00  0.00    -0.126 OA
ATOM     15  O   UNL     1       2.147  -3.956   0.387  0.00  0.00    -0.126 OA
ENDBRANCH   8  13
ENDBRANCH   3  12
ENDBRANCH   1   3
BRANCH   1  16
ATOM     16  C   UNL     1       1.463   2.012   1.881  0.00  0.00    +0.192 C 
BRANCH  16  17
ATOM     17  C   UNL     1       2.239   3.138   2.514  0.00  0.00    -0.020 A 
ATOM     18  C   UNL     1       3.314   2.859   3.337  0.00  0.00    +0.006 A 
ATOM     19  C   UNL     1       4.026   3.892   3.918  0.00  0.00    +0.000 A 
ATOM     20  C   UNL     1       3.663   5.204   3.675  0.00  0.00    +0.000 A 
ATOM     21  C   UNL     1       2.588   5.483   2.852  0.00  0.00    +0.000 A 
ATOM     22  C   UNL     1       1.879   4.450   2.268  0.00  0.00    +0.006 A 
ENDBRANCH  16  17
BRANCH  16  23
ATOM     23  C   UNL     1       2.211   1.501   0.677  0.00  0.00    +0.234 C 
ATOM     24  O   UNL     1       2.571   0.344   0.633  0.00  0.00    -0.274 OA
ATOM     25  N   UNL     1       2.479   2.330  -0.351  0.00  0.00    -0.328 N 
ATOM     26  H   UNL     1       2.191   3.256  -0.316  0.00  0.00    +0.145 HD
ATOM     27  H   UNL     1       2.961   2.001  -1.127  0.00  0.00    +0.145 HD
ENDBRANCH  16  23
ENDBRANCH   1  16
TORSDOF 6
