REMARK  Name = ZINC32517519
REMARK  3 active torsions:
REMARK  status: ('A' for Active; 'I' for Inactive)
REMARK    1  A    between atoms: C_3  and  N_20
REMARK    2  A    between atoms: C_4  and  C_10
REMARK    3  A    between atoms: C_6  and  N_7
REMARK                            x       y       z     vdW  Elec       q    Type
REMARK                         _______ _______ _______ _____ _____    ______ ____
ROOT
ATOM      1  C   UNL     1      -1.321   3.322   0.039  0.00  0.00    +0.034 A 
ATOM      2  C   UNL     1      -2.518   4.008   0.043  0.00  0.00    +0.026 A 
ATOM      3  C   UNL     1      -3.719   3.311   0.043  0.00  0.00    +0.042 A 
ATOM      4  C   UNL     1      -3.708   1.907   0.034  0.00  0.00    +0.060 A 
ATOM      5  C   UNL     1      -2.488   1.228   0.024  0.00  0.00    +0.047 A 
ATOM      6  C   UNL     1      -1.306   1.936   0.025  0.00  0.00    +0.127 A 
ENDROOT
BRANCH   4   7
ATOM      7  C   UNL     1      -4.976   1.156   0.033  0.00  0.00    +0.251 C 
ATOM      8  O   UNL     1      -6.036   1.751   0.041  0.00  0.00    -0.270 OA
ATOM      9  N   UNL     1      -4.960  -0.192   0.024  0.00  0.00    -0.266 N 
ATOM     10  C   UNL     1      -6.154  -0.903   0.130  0.00  0.00    +0.125 A 
ATOM     11  C   UNL     1      -6.123  -2.290   0.226  0.00  0.00    +0.045 A 
ATOM     12  C   UNL     1      -7.315  -2.985   0.331  0.00  0.00    +0.025 A 
ATOM     13  C   UNL     1      -8.503  -2.265   0.337  0.00  0.00    +0.059 A 
ATOM     14  C   UNL     1      -8.459  -0.887   0.238  0.00  0.00    +0.132 A 
ATOM     15  N   UNL     1      -7.306  -0.252   0.145  0.00  0.00    -0.239 NA
ATOM     16 CL   UNL     1     -10.026  -3.087   0.466  0.00  0.00    -0.082 Cl
ATOM     17  H   UNL     1      -4.005  -0.730  -0.068  0.00  0.00    +0.157 HD
ENDBRANCH   4   7
BRANCH   3  18
ATOM     18  N   UNL     1      -4.926   4.000   0.052  0.00  0.00    -0.329 N 
ATOM     19  C   UNL     1      -5.091   4.787  -1.177  0.00  0.00    +0.105 C 
ATOM     20  C   UNL     1      -6.487   5.413  -1.198  0.00  0.00    +0.019 C 
ATOM     21  C   UNL     1      -6.658   6.310   0.031  0.00  0.00    +0.003 C 
ATOM     22  C   UNL     1      -6.433   5.476   1.296  0.00  0.00    +0.019 C 
ATOM     23  C   UNL     1      -5.038   4.848   1.245  0.00  0.00    +0.105 C 
ENDBRANCH   3  18
BRANCH   6  24
ATOM     24  N   UNL     1      -0.014   1.213   0.015  0.00  0.00    +0.056 N 
ATOM     25  O   UNL     1       0.002  -0.004   0.007  0.00  0.00    -0.126 OA
ATOM     26  O   UNL     1       1.032   1.837   0.010  0.00  0.00    -0.126 OA
ENDBRANCH   6  24
TORSDOF 3
