REMARK  Name = ZINC64747833
REMARK  7 active torsions:
REMARK  status: ('A' for Active; 'I' for Inactive)
REMARK    1  A    between atoms: C_1  and  C_2
REMARK    2  A    between atoms: C_2  and  C_3
REMARK    3  A    between atoms: C_2  and  S_4
REMARK    4  A    between atoms: S_4  and  C_5
REMARK    5  A    between atoms: C_10  and  N_14
REMARK    6  A    between atoms: N_14  and  S_15
REMARK    7  A    between atoms: S_15  and  C_18
REMARK                            x       y       z     vdW  Elec       q    Type
REMARK                         _______ _______ _______ _____ _____    ______ ____
ROOT
ATOM      1  C   UNL     1      -1.512  -2.377  -0.145  0.00  0.00    +0.136 A 
ATOM      2  N   UNL     1      -0.407  -3.080  -0.245  0.00  0.00    -0.233 NA
ATOM      3  C   UNL     1      -0.413  -4.428  -0.363  0.00  0.00    +0.080 A 
ATOM      4  C   UNL     1       0.696  -5.297  -0.478  0.00  0.00    +0.031 A 
ATOM      5  C   UNL     1       0.518  -6.651  -0.592  0.00  0.00    +0.029 A 
ATOM      6  C   UNL     1      -0.754  -7.218  -0.598  0.00  0.00    +0.075 A 
ATOM      7  C   UNL     1      -1.864  -6.392  -0.486  0.00  0.00    +0.044 A 
ATOM      8  C   UNL     1      -1.689  -5.035  -0.373  0.00  0.00    +0.042 A 
ATOM      9  S   UNL     1      -2.775  -3.639  -0.205  0.00  0.00    -0.061 S 
ENDROOT
BRANCH   1  10
ATOM     10  S   UNL     1      -1.700  -0.632   0.015  0.00  0.00    -0.096 S 
BRANCH  10  12
ATOM     11  C   UNL     1      -0.019   1.526   0.010  0.00  0.00    +0.019 C 
ATOM     12  C   UNL     1       0.002  -0.004   0.002  0.00  0.00    +0.047 C 
ATOM     13  C   UNL     1       0.742  -0.511   1.242  0.00  0.00    +0.019 C 
ENDBRANCH  10  12
ENDBRANCH   1  10
BRANCH   6  14
ATOM     14  N   UNL     1      -0.911  -8.604  -0.716  0.00  0.00    -0.098 NA
BRANCH  14  15
ATOM     15  S   UNL     1       0.420  -9.580  -0.849  0.00  0.00    +0.094 S 
ATOM     16  O   UNL     1       1.030  -9.267  -2.093  0.00  0.00    -0.148 OA
ATOM     17  O   UNL     1       1.117  -9.487   0.386  0.00  0.00    -0.148 OA
BRANCH  15  18
ATOM     18  C   UNL     1      -0.161 -11.239  -0.976  0.00  0.00    +0.138 A 
ATOM     19  C   UNL     1       0.052 -11.944  -2.111  0.00  0.00    +0.031 A 
ATOM     20  C   UNL     1      -0.393 -13.259  -2.247  0.00  0.00    +0.004 A 
ATOM     21  C   UNL     1      -1.058 -13.887  -1.249  0.00  0.00    +0.031 A 
ATOM     22  C   UNL     1      -1.317 -13.209  -0.028  0.00  0.00    +0.102 A 
ATOM     23  C   UNL     1      -0.847 -11.836   0.116  0.00  0.00    +0.126 A 
ATOM     24  N   UNL     1      -1.141 -11.302   1.303  0.00  0.00    -0.189 NA
ATOM     25  S   UNL     1      -1.921 -12.452   2.114  0.00  0.00    +0.117 S 
ATOM     26  N   UNL     1      -1.951 -13.662   1.055  0.00  0.00    -0.191 NA
ENDBRANCH  15  18
ENDBRANCH  14  15
ENDBRANCH   6  14
TORSDOF 5
