REMARK  Name = ZINC13008604
REMARK  12 active torsions:
REMARK  status: ('A' for Active; 'I' for Inactive)
REMARK    1  A    between atoms: C_1  and  C_2
REMARK    2  A    between atoms: C_3  and  N_15
REMARK    3  A    between atoms: N_6  and  C_9
REMARK    4  A    between atoms: N_7  and  C_8
REMARK    5  A    between atoms: C_16  and  C_18
REMARK    6  A    between atoms: C_18  and  O_19
REMARK    7  A    between atoms: O_19  and  C_20
REMARK    8  A    between atoms: C_20  and  C_22
REMARK    9  A    between atoms: C_23  and  C_24
REMARK   10  A    between atoms: C_27  and  O_32
REMARK   11  A    between atoms: C_28  and  O_30
REMARK   12  A    between atoms: O_30  and  C_31
REMARK                            x       y       z     vdW  Elec       q    Type
REMARK                         _______ _______ _______ _____ _____    ______ ____
ROOT
ATOM      1  N   UNL     1       0.122  -0.219  -2.458  0.00  0.00    -0.277 N 
ATOM      2  C   UNL     1       0.643  -0.894  -3.501  0.00  0.00    +0.255 C 
ATOM      3  O   UNL     1       1.158  -1.978  -3.326  0.00  0.00    -0.272 OA
ATOM      4  H   UNL     1      -0.225   0.678  -2.585  0.00  0.00    +0.155 HD
ENDROOT
BRANCH   1   7
ATOM      5  C   UNL     1      -2.433  -0.669  -0.820  0.00  0.00    +0.067 C 
ATOM      6  C   UNL     1      -1.022  -1.031  -0.432  0.00  0.00    +0.059 A 
ATOM      7  C   UNL     1       0.082  -0.816  -1.182  0.00  0.00    +0.121 A 
ATOM      8  C   UNL     1       1.227  -1.319  -0.422  0.00  0.00    +0.293 A 
ATOM      9  O   UNL     1       2.393  -1.300  -0.771  0.00  0.00    -0.264 OA
ATOM     10  N   UNL     1       0.744  -1.806   0.740  0.00  0.00    -0.216 N 
ATOM     11  N   UNL     1      -0.644  -1.627   0.742  0.00  0.00    -0.282 N 
ATOM     12  C   UNL     1      -1.549  -2.016   1.826  0.00  0.00    +0.171 C 
BRANCH  10  13
ATOM     13  C   UNL     1       1.499  -2.385   1.764  0.00  0.00    +0.067 A 
ATOM     14  C   UNL     1       1.100  -3.592   2.325  0.00  0.00    +0.028 A 
ATOM     15  C   UNL     1       1.848  -4.161   3.337  0.00  0.00    +0.002 A 
ATOM     16  C   UNL     1       2.992  -3.531   3.792  0.00  0.00    +0.000 A 
ATOM     17  C   UNL     1       3.391  -2.330   3.235  0.00  0.00    +0.002 A 
ATOM     18  C   UNL     1       2.651  -1.758   2.219  0.00  0.00    +0.028 A 
ENDBRANCH  10  13
ENDBRANCH   1   7
BRANCH   2  19
ATOM     19  C   UNL     1       0.587  -0.301  -4.886  0.00  0.00    +0.328 C 
BRANCH  19  20
ATOM     20  O   UNL     1       1.200  -1.199  -5.814  0.00  0.00    -0.452 OA
BRANCH  20  21
ATOM     21  C   UNL     1       1.232  -0.815  -7.107  0.00  0.00    +0.332 C 
ATOM     22  O   UNL     1       0.753   0.253  -7.437  0.00  0.00    -0.246 OA
BRANCH  21  23
ATOM     23  C   UNL     1       1.825  -1.657  -8.081  0.00  0.00    +0.092 C 
ATOM     24  C   UNL     1       1.858  -1.273  -9.376  0.00  0.00    +0.015 C 
BRANCH  24  25
ATOM     25  C   UNL     1       2.472  -2.146 -10.386  0.00  0.00    -0.021 A 
ATOM     26  C   UNL     1       3.019  -3.378 -10.010  0.00  0.00    +0.012 A 
ATOM     27  C   UNL     1       3.595  -4.194 -10.958  0.00  0.00    +0.050 A 
ATOM     28  C   UNL     1       3.634  -3.798 -12.289  0.00  0.00    +0.158 A 
ATOM     29  C   UNL     1       3.091  -2.572 -12.672  0.00  0.00    +0.162 A 
ATOM     30  C   UNL     1       2.507  -1.750 -11.728  0.00  0.00    +0.057 A 
BRANCH  29  31
ATOM     31  O   UNL     1       3.132  -2.188 -13.976  0.00  0.00    -0.491 OA
ATOM     32  C   UNL     1       2.557  -0.920 -14.297  0.00  0.00    +0.277 C 
ENDBRANCH  29  31
BRANCH  28  33
ATOM     33  O   UNL     1       4.203  -4.607 -13.220  0.00  0.00    -0.503 OA
ATOM     34  H   UNL     1       3.587  -5.231 -13.628  0.00  0.00    +0.292 HD
ENDBRANCH  28  33
ENDBRANCH  24  25
ENDBRANCH  21  23
ENDBRANCH  20  21
ENDBRANCH  19  20
ENDBRANCH   2  19
TORSDOF 9
