REMARK  Name = ZINC61482790
REMARK  8 active torsions:
REMARK  status: ('A' for Active; 'I' for Inactive)
REMARK    1  A    between atoms: C_1  and  C_2
REMARK    2  A    between atoms: C_2  and  C_3
REMARK    3  A    between atoms: C_3  and  C_4
REMARK    4  A    between atoms: C_4  and  N_5
REMARK    5  A    between atoms: N_8  and  C_9
REMARK    6  A    between atoms: C_9  and  C_15
REMARK    7  A    between atoms: N_17  and  N_18
REMARK    8  A    between atoms: C_19  and  C_21
REMARK                            x       y       z     vdW  Elec       q    Type
REMARK                         _______ _______ _______ _____ _____    ______ ____
ROOT
ATOM      1  C   UNL     1      -4.527  -5.802  -0.097  0.00  0.00    +0.113 C 
ATOM      2  C   UNL     1      -3.775  -6.265  -1.346  0.00  0.00    +0.035 C 
ATOM      3  C   UNL     1      -4.336  -5.547  -2.575  0.00  0.00    +0.003 C 
ATOM      4  C   UNL     1      -5.823  -5.875  -2.723  0.00  0.00    +0.000 C 
ATOM      5  C   UNL     1      -6.575  -5.412  -1.474  0.00  0.00    +0.003 C 
ATOM      6  C   UNL     1      -6.014  -6.131  -0.245  0.00  0.00    +0.035 C 
ENDROOT
BRANCH   1  10
ATOM      7  N   UNL     1      -2.965  -2.497   0.286  0.00  0.00    -0.299 N 
ATOM      8  C   UNL     1      -3.130  -3.834   0.236  0.00  0.00    +0.300 C 
ATOM      9  O   UNL     1      -2.167  -4.569   0.346  0.00  0.00    -0.253 OA
ATOM     10  N   UNL     1      -4.360  -4.356   0.065  0.00  0.00    -0.285 N 
ATOM     11  H   UNL     1      -3.732  -1.911   0.199  0.00  0.00    +0.150 HD
ATOM     12  H   UNL     1      -5.136  -3.773   0.049  0.00  0.00    +0.151 HD
BRANCH   7  13
ATOM     13  C   UNL     1      -1.627  -1.930   0.473  0.00  0.00    +0.106 C 
BRANCH  13  14
ATOM     14  C   UNL     1      -1.719  -0.403   0.493  0.00  0.00    +0.018 C 
BRANCH  14  16
ATOM     15  C   UNL     1      -0.413   1.716   0.709  0.00  0.00    +0.004 C 
ATOM     16  C   UNL     1      -0.321   0.189   0.688  0.00  0.00    -0.002 C 
ENDBRANCH  14  16
ENDBRANCH  13  14
ENDBRANCH   7  13
ENDBRANCH   1  10
BRANCH   1  17
ATOM     17  C   UNL     1      -3.974  -6.510   1.113  0.00  0.00    +0.253 C 
ATOM     18  O   UNL     1      -3.413  -7.578   0.988  0.00  0.00    -0.272 OA
ATOM     19  N   UNL     1      -4.103  -5.956   2.335  0.00  0.00    -0.232 N 
ATOM     20  H   UNL     1      -4.489  -5.071   2.428  0.00  0.00    +0.173 HD
BRANCH  19  21
ATOM     21  N   UNL     1      -3.681  -6.659   3.471  0.00  0.00    -0.230 N 
ATOM     22  C   UNL     1      -3.810  -6.106   4.693  0.00  0.00    +0.263 C 
ATOM     23  O   UNL     1      -4.293  -4.996   4.810  0.00  0.00    -0.269 OA
ATOM     24  H   UNL     1      -3.295  -7.545   3.378  0.00  0.00    +0.173 HD
BRANCH  22  25
ATOM     25  C   UNL     1      -3.365  -6.845   5.888  0.00  0.00    +0.076 A 
ATOM     26  C   UNL     1      -3.436  -6.399   7.287  0.00  0.00    +0.054 A 
ATOM     27  C   UNL     1      -2.918  -7.396   8.019  0.00  0.00    +0.195 A 
ATOM     28  O   UNL     1      -2.545  -8.393   7.202  0.00  0.00    -0.470 OA
ATOM     29  C   UNL     1      -2.807  -8.089   5.927  0.00  0.00    +0.208 A 
ENDBRANCH  22  25
ENDBRANCH  19  21
ENDBRANCH   1  17
TORSDOF 7
