REMARK  Name = ZINC39631346
REMARK  11 active torsions:
REMARK  status: ('A' for Active; 'I' for Inactive)
REMARK    1  A    between atoms: C_1  and  C_2
REMARK    2  A    between atoms: C_2  and  C_4
REMARK    3  A    between atoms: C_2  and  N_11
REMARK    4  A    between atoms: C_4  and  C_5
REMARK    5  A    between atoms: C_5  and  C_6
REMARK    6  A    between atoms: C_6  and  C_7
REMARK    7  A    between atoms: C_7  and  C_8
REMARK    8  A    between atoms: C_7  and  C_9
REMARK    9  A    between atoms: C_7  and  O_10
REMARK   10  A    between atoms: C_12  and  C_14
REMARK   11  A    between atoms: C_25  and  C_27
REMARK                            x       y       z     vdW  Elec       q    Type
REMARK                         _______ _______ _______ _____ _____    ______ ____
ROOT
ATOM      1  C   UNL     1       2.776  -1.092   2.395  0.00  0.00    +0.100 C 
ATOM      2  C   UNL     1       2.679  -0.060   3.542  0.00  0.00    +0.121 C 
ATOM      3  N   UNL     1       3.999  -0.120   4.212  0.00  0.00    -0.296 N 
ATOM      4  C   UNL     1       4.970  -0.265   3.102  0.00  0.00    +0.115 C 
ATOM      5  C   UNL     1       4.281  -1.223   2.109  0.00  0.00    -0.004 C 
ATOM      6  C   UNL     1       4.585  -0.802   0.674  0.00  0.00    -0.010 C 
ATOM      7  C   UNL     1       6.078  -0.997   0.395  0.00  0.00    -0.082 C 
ATOM      8  N   UNL     1       6.436  -2.405   0.599  0.00  0.00    +0.379 N 
ATOM      9  C   UNL     1       6.229  -2.776   2.005  0.00  0.00    -0.082 C 
ATOM     10  C   UNL     1       4.742  -2.657   2.352  0.00  0.00    -0.010 C 
ATOM     11  C   UNL     1       4.258  -0.057   5.533  0.00  0.00    +0.249 C 
ATOM     12  O   UNL     1       3.341  -0.036   6.332  0.00  0.00    -0.270 OA
ATOM     13  H   UNL     1       5.859  -2.987   0.011  0.00  0.00    -0.086 HD
ATOM     14  H   UNL     1       7.406  -2.543   0.356  0.00  0.00    -0.086 HD
ENDROOT
BRANCH  11  15
ATOM     15  C   UNL     1       5.654  -0.012   6.010  0.00  0.00    +0.072 A 
ATOM     16  C   UNL     1       6.627   0.664   5.270  0.00  0.00    +0.019 A 
ATOM     17  C   UNL     1       7.928   0.702   5.720  0.00  0.00    +0.039 A 
ATOM     18  C   UNL     1       8.275   0.071   6.905  0.00  0.00    +0.126 A 
ATOM     19  C   UNL     1       7.317  -0.602   7.645  0.00  0.00    +0.077 A 
ATOM     20  C   UNL     1       6.007  -0.643   7.208  0.00  0.00    +0.138 A 
ATOM     21  F   UNL     1       5.071  -1.294   7.933  0.00  0.00    -0.205 F 
ATOM     22  F   UNL     1       9.554   0.112   7.340  0.00  0.00    -0.205 F 
ENDBRANCH  11  15
BRANCH   1  24
ATOM     23  N   UNL     1       1.648  -1.456   0.224  0.00  0.00    -0.312 N 
ATOM     24  C   UNL     1       2.051  -0.588   1.173  0.00  0.00    +0.218 C 
ATOM     25  O   UNL     1       1.831   0.597   1.044  0.00  0.00    -0.275 OA
ATOM     26  H   UNL     1       1.824  -2.404   0.327  0.00  0.00    +0.149 HD
BRANCH  23  28
ATOM     27  C   UNL     1      -0.549  -0.838  -0.654  0.00  0.00    +0.028 C 
ATOM     28  C   UNL     1       0.944  -0.967  -0.964  0.00  0.00    +0.070 C 
BRANCH  28  29
ATOM     29  C   UNL     1       1.142  -1.952  -2.116  0.00  0.00    +0.022 C 
BRANCH  29  30
ATOM     30  C   UNL     1       2.621  -1.987  -2.509  0.00  0.00    +0.005 C 
BRANCH  30  31
ATOM     31  C   UNL     1       2.820  -2.973  -3.662  0.00  0.00    +0.034 C 
BRANCH  31  32
ATOM     32  C   UNL     1       4.298  -3.008  -4.054  0.00  0.00    +0.061 C 
ATOM     33  C   UNL     1       4.478  -3.897  -5.285  0.00  0.00    +0.041 C 
ATOM     34  C   UNL     1       4.774  -1.590  -4.375  0.00  0.00    +0.041 C 
BRANCH  32  35
ATOM     35  O   UNL     1       5.066  -3.534  -2.970  0.00  0.00    -0.389 OA
ATOM     36  H   UNL     1       4.818  -4.433  -2.712  0.00  0.00    +0.210 HD
ENDBRANCH  32  35
ENDBRANCH  31  32
ENDBRANCH  30  31
ENDBRANCH  29  30
ENDBRANCH  28  29
ENDBRANCH  23  28
ENDBRANCH   1  24
TORSDOF 8
