REMARK  Name = ZINC39777395
REMARK  9 active torsions:
REMARK  status: ('A' for Active; 'I' for Inactive)
REMARK    1  A    between atoms: C_1  and  C_2
REMARK    2  A    between atoms: C_4  and  C_12
REMARK    3  A    between atoms: C_12  and  C_14
REMARK    4  A    between atoms: C_14  and  O_15
REMARK    5  A    between atoms: O_15  and  C_16
REMARK    6  A    between atoms: C_16  and  C_18
REMARK    7  A    between atoms: C_22  and  S_24
REMARK    8  A    between atoms: S_24  and  N_27
REMARK    9  A    between atoms: N_27  and  C_28
REMARK                            x       y       z     vdW  Elec       q    Type
REMARK                         _______ _______ _______ _____ _____    ______ ____
ROOT
ATOM      1  O   UNL     1      -4.815  -1.299  -1.295  0.00  0.00    -0.453 OA
ENDROOT
BRANCH   1   2
ATOM      2  C   UNL     1      -6.106  -1.672  -1.400  0.00  0.00    +0.340 C 
ATOM      3  O   UNL     1      -6.594  -2.413  -0.571  0.00  0.00    -0.245 OA
BRANCH   2   4
ATOM      4  C   UNL     1      -6.926  -1.180  -2.525  0.00  0.00    +0.061 A 
ATOM      5  C   UNL     1      -6.366  -0.332  -3.483  0.00  0.00    +0.016 A 
ATOM      6  C   UNL     1      -7.138   0.124  -4.531  0.00  0.00    +0.023 A 
ATOM      7  C   UNL     1      -8.466  -0.256  -4.634  0.00  0.00    +0.067 A 
ATOM      8  C   UNL     1      -9.027  -1.096  -3.686  0.00  0.00    +0.124 A 
ATOM      9  C   UNL     1      -8.264  -1.564  -2.637  0.00  0.00    +0.045 A 
ATOM     10 CL   UNL     1      -9.431   0.323  -5.955  0.00  0.00    -0.082 Cl
BRANCH   8  11
ATOM     11  S   UNL     1     -10.717  -1.574  -3.826  0.00  0.00    +0.060 S 
ATOM     12  O   UNL     1     -10.977  -2.466  -2.750  0.00  0.00    -0.153 OA
ATOM     13  O   UNL     1     -11.462  -0.381  -4.023  0.00  0.00    -0.153 OA
BRANCH  11  14
ATOM     14  N   UNL     1     -10.863  -2.458  -5.219  0.00  0.00    -0.193 NA
ATOM     15  C   UNL     1     -10.174  -3.745  -5.345  0.00  0.00    +0.127 C 
ATOM     16  H   UNL     1     -11.404  -2.124  -5.951  0.00  0.00    +0.148 HD
ENDBRANCH  11  14
ENDBRANCH   8  11
ENDBRANCH   2   4
ENDBRANCH   1   2
BRANCH   1  17
ATOM     17  C   UNL     1      -4.081  -1.813  -0.182  0.00  0.00    +0.311 C 
BRANCH  17  18
ATOM     18  C   UNL     1      -2.667  -1.293  -0.229  0.00  0.00    +0.199 C 
ATOM     19  O   UNL     1      -2.322  -0.553  -1.129  0.00  0.00    -0.289 OA
BRANCH  18  22
ATOM     20  C   UNL     1      -0.201   0.279   1.024  0.00  0.00    +0.035 C 
ATOM     21  C   UNL     1      -0.296  -1.241   0.883  0.00  0.00    +0.111 C 
ATOM     22  C   UNL     1      -1.744  -1.664   0.771  0.00  0.00    +0.029 C 
ATOM     23  C   UNL     1      -1.974  -2.492   1.855  0.00  0.00    +0.007 A 
ATOM     24  C   UNL     1      -3.117  -3.196   2.304  0.00  0.00    +0.010 A 
ATOM     25  C   UNL     1      -3.058  -3.948   3.425  0.00  0.00    +0.001 A 
ATOM     26  C   UNL     1      -1.886  -4.071   4.189  0.00  0.00    +0.002 A 
ATOM     27  C   UNL     1      -0.741  -3.441   3.848  0.00  0.00    +0.026 A 
ATOM     28  C   UNL     1      -0.720  -2.600   2.640  0.00  0.00    +0.043 A 
ATOM     29  N   UNL     1       0.227  -1.893   2.088  0.00  0.00    -0.377 N 
ATOM     30  H   UNL     1       1.134  -1.811   2.421  0.00  0.00    +0.160 HD
ENDBRANCH  18  22
ENDBRANCH  17  18
ENDBRANCH   1  17
TORSDOF 7
