REMARK  Name = ZINC37627149
REMARK  8 active torsions:
REMARK  status: ('A' for Active; 'I' for Inactive)
REMARK    1  A    between atoms: C_3  and  O_17
REMARK    2  A    between atoms: C_6  and  N_7
REMARK    3  A    between atoms: C_8  and  C_10
REMARK    4  A    between atoms: C_10  and  C_12
REMARK    5  A    between atoms: C_10  and  N_16
REMARK    6  A    between atoms: C_12  and  C_13
REMARK    7  A    between atoms: O_17  and  C_18
REMARK    8  A    between atoms: C_18  and  C_19
REMARK                            x       y       z     vdW  Elec       q    Type
REMARK                         _______ _______ _______ _____ _____    ______ ____
ROOT
ATOM      1  N   UNL     1      -1.197  -0.730   0.010  0.00  0.00    -0.286 N 
ATOM      2  C   UNL     1      -1.172  -2.073  -0.099  0.00  0.00    +0.203 C 
ATOM      3  O   UNL     1      -0.111  -2.661  -0.113  0.00  0.00    -0.277 OA
ATOM      4  H   UNL     1      -2.044  -0.266   0.098  0.00  0.00    +0.155 HD
ENDROOT
BRANCH   1  10
ATOM      5  C   UNL     1       1.088  -0.448  -0.755  0.00  0.00    +0.030 A 
ATOM      6  C   UNL     1       2.250   0.302  -0.739  0.00  0.00    +0.069 A 
ATOM      7  C   UNL     1       2.297   1.464   0.020  0.00  0.00    +0.215 A 
ATOM      8  N   UNL     1       1.247   1.855   0.722  0.00  0.00    -0.219 NA
ATOM      9  C   UNL     1       0.122   1.167   0.731  0.00  0.00    +0.138 A 
ATOM     10  C   UNL     1       0.002  -0.004  -0.004  0.00  0.00    +0.052 A 
BRANCH   7  11
ATOM     11  O   UNL     1       3.433   2.206   0.042  0.00  0.00    -0.467 OA
BRANCH  11  12
ATOM     12  C   UNL     1       3.420   3.390   0.842  0.00  0.00    +0.343 C 
BRANCH  12  13
ATOM     13  C   UNL     1       4.777   4.088   0.742  0.00  0.00    +0.424 C 
ATOM     14  F   UNL     1       5.030   4.429  -0.591  0.00  0.00    -0.167 F 
ATOM     15  F   UNL     1       4.764   5.248   1.525  0.00  0.00    -0.167 F 
ATOM     16  F   UNL     1       5.779   3.227   1.201  0.00  0.00    -0.167 F 
ENDBRANCH  12  13
ENDBRANCH  11  12
ENDBRANCH   7  11
ENDBRANCH   1  10
BRANCH   2  17
ATOM     17  C   UNL     1      -2.462  -2.845  -0.204  0.00  0.00    +0.022 C 
BRANCH  17  18
ATOM     18  N   UNL     1      -2.225  -4.247   0.164  0.00  0.00    +0.386 N 
ATOM     19  H   UNL     1      -1.542  -4.648  -0.460  0.00  0.00    -0.089 HD
ATOM     20  H   UNL     1      -1.882  -4.293   1.112  0.00  0.00    -0.089 HD
ATOM     21  H   UNL     1      -3.089  -4.764   0.094  0.00  0.00    -0.089 HD
ENDBRANCH  17  18
BRANCH  17  22
ATOM     22  C   UNL     1      -2.982  -2.776  -1.641  0.00  0.00    +0.088 C 
BRANCH  22  23
ATOM     23  C   UNL     1      -4.332  -3.442  -1.720  0.00  0.00    +0.209 C 
ATOM     24  O   UNL     1      -4.828  -3.924  -0.724  0.00  0.00    -0.276 OA
ATOM     25  N   UNL     1      -4.986  -3.502  -2.896  0.00  0.00    -0.329 N 
ATOM     26  H   UNL     1      -4.589  -3.116  -3.692  0.00  0.00    +0.145 HD
ATOM     27  H   UNL     1      -5.855  -3.930  -2.946  0.00  0.00    +0.145 HD
ENDBRANCH  22  23
ENDBRANCH  17  22
ENDBRANCH   2  17
TORSDOF 8
