REMARK  Name = ZINC46784495
REMARK  5 active torsions:
REMARK  status: ('A' for Active; 'I' for Inactive)
REMARK    1  A    between atoms: C_1  and  C_2
REMARK    2  A    between atoms: C_2  and  C_3
REMARK    3  A    between atoms: C_4  and  C_8
REMARK    4  A    between atoms: C_17  and  C_21
REMARK    5  A    between atoms: C_21  and  C_22
REMARK                            x       y       z     vdW  Elec       q    Type
REMARK                         _______ _______ _______ _____ _____    ______ ____
ROOT
ATOM      1  C   UNL     1      -1.688  -0.639   2.589  0.00  0.00    +0.260 C 
ATOM      2  O   UNL     1      -0.573  -0.229   2.849  0.00  0.00    -0.269 OA
ATOM      3  N   UNL     1      -2.539  -0.956   3.585  0.00  0.00    -0.260 N 
ATOM      4  C   UNL     1      -2.142  -0.816   4.908  0.00  0.00    +0.165 A 
ATOM      5  N   UNL     1      -0.990  -0.387   5.375  0.00  0.00    -0.229 NA
ATOM      6  C   UNL     1      -0.746  -0.304   6.679  0.00  0.00    +0.054 A 
ATOM      7  C   UNL     1      -1.774  -0.693   7.478  0.00  0.00    +0.015 A 
ATOM      8  S   UNL     1      -3.022  -1.146   6.307  0.00  0.00    -0.057 S 
ATOM      9  C   UNL     1      -1.812  -0.714   8.968  0.00  0.00    +0.048 C 
ATOM     10  C   UNL     1      -0.632   0.122   9.491  0.00  0.00    -0.006 C 
ATOM     11  C   UNL     1       0.636  -0.291   8.739  0.00  0.00    +0.010 C 
ATOM     12  C   UNL     1       0.564   0.181   7.285  0.00  0.00    +0.056 C 
ATOM     13  H   UNL     1      -3.428  -1.283   3.377  0.00  0.00    +0.157 HD
ENDROOT
BRANCH   1  15
ATOM     14  C   UNL     1      -1.412  -0.526   0.013  0.00  0.00    +0.084 A 
ATOM     15  C   UNL     1      -2.109  -0.787   1.187  0.00  0.00    +0.117 A 
ATOM     16  S   UNL     1      -3.659  -1.356   0.509  0.00  0.00    +0.041 S 
ATOM     17  N   UNL     1      -3.292  -1.214  -1.064  0.00  0.00    -0.110 NA
ATOM     18  N   UNL     1      -2.088  -0.765  -1.083  0.00  0.00    -0.145 NA
BRANCH  14  20
ATOM     19  C   UNL     1      -0.019   1.526   0.010  0.00  0.00    +0.010 C 
ATOM     20  C   UNL     1       0.002  -0.004   0.002  0.00  0.00    +0.055 C 
ENDBRANCH  14  20
ENDBRANCH   1  15
BRANCH  10  21
ATOM     21  C   UNL     1      -0.449  -0.131  10.988  0.00  0.00    +0.000 C 
ATOM     22  C   UNL     1      -1.674   0.384  11.746  0.00  0.00    +0.004 C 
ENDBRANCH  10  21
TORSDOF 3
