REMARK  Name = ZINC36490669
REMARK  9 active torsions:
REMARK  status: ('A' for Active; 'I' for Inactive)
REMARK    1  A    between atoms: C_2  and  O_36
REMARK    2  A    between atoms: C_4  and  O_35
REMARK    3  A    between atoms: C_5  and  C_8
REMARK    4  A    between atoms: C_6  and  O_7
REMARK    5  A    between atoms: C_8  and  C_10
REMARK    6  A    between atoms: C_8  and  N_19
REMARK    7  A    between atoms: N_12  and  C_13
REMARK    8  A    between atoms: N_19  and  C_20
REMARK    9  A    between atoms: C_26  and  C_28
REMARK                            x       y       z     vdW  Elec       q    Type
REMARK                         _______ _______ _______ _____ _____    ______ ____
ROOT
ATOM      1  C   UNL     1       1.424  -1.893  -0.235  0.00  0.00    +0.199 C 
ENDROOT
BRANCH   1   6
ATOM      2  C   UNL     1       0.781   1.313  -2.136  0.00  0.00    +0.091 A 
ATOM      3  C   UNL     1       0.141   2.081  -1.174  0.00  0.00    +0.124 A 
ATOM      4  C   UNL     1      -0.083   1.561   0.091  0.00  0.00    +0.091 A 
ATOM      5  C   UNL     1       0.332   0.273   0.396  0.00  0.00    +0.129 A 
ATOM      6  C   UNL     1       0.972  -0.494  -0.566  0.00  0.00    +0.065 A 
ATOM      7  C   UNL     1       1.196   0.026  -1.832  0.00  0.00    +0.129 A 
BRANCH   7   8
ATOM      8  O   UNL     1       1.823  -0.726  -2.774  0.00  0.00    -0.506 OA
ATOM      9  H   UNL     1       2.788  -0.688  -2.730  0.00  0.00    +0.292 HD
ENDBRANCH   7   8
BRANCH   5  10
ATOM     10  O   UNL     1       0.113  -0.236   1.636  0.00  0.00    -0.506 OA
ATOM     11  H   UNL     1      -0.764  -0.626   1.752  0.00  0.00    +0.292 HD
ENDBRANCH   5  10
BRANCH   3  12
ATOM     12  O   UNL     1      -0.265   3.343  -1.472  0.00  0.00    -0.507 OA
ATOM     13  H   UNL     1      -1.164   3.393  -1.827  0.00  0.00    +0.292 HD
ENDBRANCH   3  12
ENDBRANCH   1   6
BRANCH   1  14
ATOM     14  C   UNL     1       0.901  -2.282   1.124  0.00  0.00    +0.239 C 
ATOM     15  O   UNL     1      -0.016  -3.070   1.218  0.00  0.00    -0.273 OA
ATOM     16  N   UNL     1       1.453  -1.754   2.234  0.00  0.00    -0.311 N 
ATOM     17  H   UNL     1       2.123  -1.056   2.158  0.00  0.00    +0.149 HD
BRANCH  16  18
ATOM     18  C   UNL     1       1.043  -2.235   3.556  0.00  0.00    +0.073 C 
ATOM     19  C   UNL     1      -0.279  -1.573   3.951  0.00  0.00    +0.022 C 
ATOM     20  C   UNL     1      -0.708  -2.075   5.332  0.00  0.00    +0.002 C 
ATOM     21  C   UNL     1       0.368  -1.720   6.360  0.00  0.00    +0.000 C 
ATOM     22  C   UNL     1       1.690  -2.382   5.965  0.00  0.00    +0.002 C 
ATOM     23  C   UNL     1       2.119  -1.880   4.584  0.00  0.00    +0.022 C 
ENDBRANCH  16  18
ENDBRANCH   1  14
BRANCH   1  24
ATOM     24  N   UNL     1       0.907  -2.824  -1.242  0.00  0.00    -0.281 N 
ATOM     25  C   UNL     1       1.730  -3.730  -1.807  0.00  0.00    +0.237 C 
ATOM     26  O   UNL     1       2.898  -3.773  -1.485  0.00  0.00    -0.274 OA
BRANCH  25  27
ATOM     27  C   UNL     1       1.198  -4.690  -2.839  0.00  0.00    +0.159 C 
ATOM     28  C   UNL     1       0.340  -5.782  -2.162  0.00  0.00    +0.041 C 
ATOM     29  C   UNL     1       1.378  -6.906  -1.940  0.00  0.00    +0.098 C 
ATOM     30  C   UNL     1       2.432  -6.652  -2.995  0.00  0.00    +0.214 C 
ATOM     31  O   UNL     1       3.269  -7.455  -3.349  0.00  0.00    -0.276 OA
ATOM     32  N   UNL     1       2.304  -5.405  -3.487  0.00  0.00    -0.304 N 
ATOM     33  H   UNL     1       2.869  -5.027  -4.178  0.00  0.00    +0.149 HD
ENDBRANCH  25  27
BRANCH  24  34
ATOM     34  C   UNL     1      -0.503  -2.771  -1.633  0.00  0.00    +0.077 C 
ATOM     35  C   UNL     1      -0.612  -2.299  -3.085  0.00  0.00    +0.022 C 
ATOM     36  C   UNL     1      -2.085  -2.243  -3.494  0.00  0.00    +0.002 C 
ATOM     37  C   UNL     1      -2.831  -1.266  -2.583  0.00  0.00    +0.000 C 
ATOM     38  C   UNL     1      -2.722  -1.738  -1.132  0.00  0.00    +0.002 C 
ATOM     39  C   UNL     1      -1.249  -1.794  -0.722  0.00  0.00    +0.022 C 
ENDBRANCH  24  34
ENDBRANCH   1  24
TORSDOF 9
