REMARK  Name = ZINC36266805
REMARK  7 active torsions:
REMARK  status: ('A' for Active; 'I' for Inactive)
REMARK    1  A    between atoms: C_1  and  C_2
REMARK    2  A    between atoms: N_5  and  S_11
REMARK    3  A    between atoms: C_7  and  C_10
REMARK    4  A    between atoms: S_11  and  N_14
REMARK    5  A    between atoms: N_14  and  C_15
REMARK    6  A    between atoms: C_15  and  C_16
REMARK    7  A    between atoms: C_16  and  N_23
REMARK                            x       y       z     vdW  Elec       q    Type
REMARK                         _______ _______ _______ _____ _____    ______ ____
ROOT
ATOM      1  N   UNL     1      -1.442  -4.378  -1.770  0.00  0.00    -0.181 NA
ATOM      2  H   UNL     1      -1.931  -4.599  -2.578  0.00  0.00    +0.149 HD
ENDROOT
BRANCH   1   3
ATOM      3  S   UNL     1      -2.242  -4.254  -0.325  0.00  0.00    +0.097 S 
ATOM      4  O   UNL     1      -1.506  -5.024   0.615  0.00  0.00    -0.141 OA
ATOM      5  O   UNL     1      -3.615  -4.495  -0.600  0.00  0.00    -0.141 OA
BRANCH   3   9
ATOM      6  C   UNL     1      -3.442   0.658  -1.050  0.00  0.00    +0.039 C 
ATOM      7  C   UNL     1      -2.428  -0.463  -0.813  0.00  0.00    +0.131 C 
ATOM      8  C   UNL     1      -3.144  -1.686  -0.228  0.00  0.00    +0.142 C 
ATOM      9  N   UNL     1      -2.128  -2.676   0.164  0.00  0.00    -0.162 NA
ATOM     10  C   UNL     1      -1.008  -2.222   1.003  0.00  0.00    +0.142 C 
ATOM     11  C   UNL     1      -0.395  -0.973   0.358  0.00  0.00    +0.131 C 
ATOM     12  O   UNL     1      -1.429  -0.017   0.107  0.00  0.00    -0.371 OA
ATOM     13  C   UNL     1       0.644  -0.367   1.303  0.00  0.00    +0.039 C 
ENDBRANCH   3   9
ENDBRANCH   1   3
BRANCH   1  14
ATOM     14  C   UNL     1       0.005  -4.155  -1.827  0.00  0.00    +0.094 C 
BRANCH  14  15
ATOM     15  C   UNL     1       0.550  -4.684  -3.155  0.00  0.00    -0.057 C 
ATOM     16  C   UNL     1       1.818  -5.457  -2.909  0.00  0.00    -0.012 C 
ATOM     17  C   UNL     1       2.542  -5.008  -1.625  0.00  0.00    -0.001 C 
ATOM     18  C   UNL     1       2.549  -3.478  -1.446  0.00  0.00    -0.000 C 
ATOM     19  C   UNL     1       2.821  -2.749  -2.734  0.00  0.00    -0.000 C 
ATOM     20  C   UNL     1       1.471  -2.380  -3.383  0.00  0.00    -0.001 C 
ATOM     21  C   UNL     1       0.871  -3.501  -4.091  0.00  0.00    -0.012 C 
BRANCH  15  22
ATOM     22  N   UNL     1      -0.449  -5.556  -3.787  0.00  0.00    +0.383 N 
ATOM     23  H   UNL     1      -1.294  -5.031  -3.957  0.00  0.00    -0.089 HD
ATOM     24  H   UNL     1      -0.087  -5.903  -4.662  0.00  0.00    -0.089 HD
ATOM     25  H   UNL     1      -0.653  -6.332  -3.175  0.00  0.00    -0.089 HD
ENDBRANCH  15  22
ENDBRANCH  14  15
ENDBRANCH   1  14
TORSDOF 5
