REMARK  Name = ZINC36528609
REMARK  11 active torsions:
REMARK  status: ('A' for Active; 'I' for Inactive)
REMARK    1  A    between atoms: C_1  and  C_2
REMARK    2  A    between atoms: C_5  and  S_8
REMARK    3  A    between atoms: S_8  and  C_11
REMARK    4  A    between atoms: C_11  and  N_12
REMARK    5  A    between atoms: C_13  and  C_15
REMARK    6  A    between atoms: C_15  and  C_17
REMARK    7  A    between atoms: C_15  and  N_27
REMARK    8  A    between atoms: C_20  and  C_23
REMARK    9  A    between atoms: N_27  and  C_28
REMARK   10  A    between atoms: C_29  and  C_31
REMARK   11  A    between atoms: C_36  and  O_37
REMARK                            x       y       z     vdW  Elec       q    Type
REMARK                         _______ _______ _______ _____ _____    ______ ____
ROOT
ATOM      1  C   UNL     1       3.562  -4.818   3.756  0.00  0.00    +0.192 C 
ENDROOT
BRANCH   1   2
ATOM      2  C   UNL     1       4.812  -4.015   4.005  0.00  0.00    -0.018 A 
ATOM      3  C   UNL     1       4.725  -2.656   4.247  0.00  0.00    +0.006 A 
ATOM      4  C   UNL     1       5.872  -1.920   4.475  0.00  0.00    +0.013 A 
ATOM      5  C   UNL     1       7.107  -2.542   4.463  0.00  0.00    +0.055 A 
ATOM      6  C   UNL     1       7.194  -3.901   4.223  0.00  0.00    +0.013 A 
ATOM      7  C   UNL     1       6.046  -4.638   3.999  0.00  0.00    +0.006 A 
BRANCH   5   8
ATOM      8  C   UNL     1       8.358  -1.739   4.712  0.00  0.00    +0.417 C 
ATOM      9  F   UNL     1       8.639  -1.726   6.082  0.00  0.00    -0.166 F 
ATOM     10  F   UNL     1       9.428  -2.318   4.022  0.00  0.00    -0.166 F 
ATOM     11  F   UNL     1       8.167  -0.428   4.262  0.00  0.00    -0.166 F 
ENDBRANCH   5   8
ENDBRANCH   1   2
BRANCH   1  13
ATOM     12  N   UNL     1       3.654  -4.531   1.301  0.00  0.00    -0.294 N 
ATOM     13  C   UNL     1       3.590  -5.369   2.354  0.00  0.00    +0.239 C 
ATOM     14  O   UNL     1       3.555  -6.568   2.173  0.00  0.00    -0.273 OA
ATOM     15  H   UNL     1       3.682  -3.572   1.446  0.00  0.00    +0.150 HD
BRANCH  12  16
ATOM     16  C   UNL     1       3.682  -5.067  -0.062  0.00  0.00    +0.278 C 
BRANCH  16  17
ATOM     17  S   UNL     1       1.998  -5.092  -0.736  0.00  0.00    +0.013 S 
ATOM     18  O   UNL     1       1.100  -5.656   0.210  0.00  0.00    -0.168 OA
ATOM     19  O   UNL     1       2.016  -5.551  -2.081  0.00  0.00    -0.168 OA
BRANCH  17  24
ATOM     20  C   UNL     1       0.389   0.711  -1.113  0.00  0.00    +0.044 C 
ATOM     21  C   UNL     1       0.791  -0.739  -1.018  0.00  0.00    -0.050 A 
ATOM     22  C   UNL     1       1.420  -1.352  -2.086  0.00  0.00    +0.005 A 
ATOM     23  C   UNL     1       1.789  -2.681  -1.999  0.00  0.00    +0.027 A 
ATOM     24  C   UNL     1       1.529  -3.397  -0.846  0.00  0.00    +0.090 A 
ATOM     25  C   UNL     1       0.900  -2.784   0.222  0.00  0.00    +0.027 A 
ATOM     26  C   UNL     1       0.535  -1.453   0.137  0.00  0.00    +0.005 A 
ENDBRANCH  17  24
ENDBRANCH  16  17
ENDBRANCH  12  16
ENDBRANCH   1  13
BRANCH   1  27
ATOM     27  N   UNL     1       3.492  -5.923   4.715  0.00  0.00    -0.285 N 
ATOM     28  C   UNL     1       4.505  -6.981   4.688  0.00  0.00    +0.133 C 
ATOM     29  C   UNL     1       2.495  -5.967   5.621  0.00  0.00    +0.251 C 
ATOM     30  O   UNL     1       1.702  -5.050   5.697  0.00  0.00    -0.270 OA
BRANCH  29  31
ATOM     31  C   UNL     1       2.368  -7.129   6.521  0.00  0.00    +0.078 A 
ATOM     32  C   UNL     1       3.480  -7.598   7.226  0.00  0.00    +0.017 A 
ATOM     33  C   UNL     1       3.354  -8.683   8.065  0.00  0.00    +0.001 A 
ATOM     34  C   UNL     1       2.129  -9.313   8.215  0.00  0.00    +0.004 A 
ATOM     35  C   UNL     1       1.022  -8.860   7.525  0.00  0.00    +0.046 A 
ATOM     36  C   UNL     1       1.130  -7.766   6.679  0.00  0.00    +0.129 A 
BRANCH  36  37
ATOM     37  O   UNL     1       0.042  -7.317   6.005  0.00  0.00    -0.506 OA
ATOM     38  H   UNL     1      -0.081  -7.728   5.138  0.00  0.00    +0.292 HD
ENDBRANCH  36  37
ENDBRANCH  29  31
ENDBRANCH   1  27
TORSDOF 9
