REMARK  Name = ZINC66394468
REMARK  4 active torsions:
REMARK  status: ('A' for Active; 'I' for Inactive)
REMARK    1  A    between atoms: C_3  and  C_9
REMARK    2  A    between atoms: C_9  and  C_11
REMARK    3  A    between atoms: C_9  and  N_13
REMARK    4  A    between atoms: C_14  and  C_16
REMARK                            x       y       z     vdW  Elec       q    Type
REMARK                         _______ _______ _______ _____ _____    ______ ____
ROOT
ATOM      1  N   UNL     1       3.443   3.514  -0.598  0.00  0.00    -0.292 N 
ATOM      2  C   UNL     1       4.435   4.142  -1.259  0.00  0.00    +0.245 C 
ATOM      3  O   UNL     1       5.519   3.606  -1.379  0.00  0.00    -0.270 OA
ATOM      4  H   UNL     1       2.577   3.942  -0.502  0.00  0.00    +0.151 HD
ENDROOT
BRANCH   2   5
ATOM      5  C   UNL     1       4.204   5.480  -1.839  0.00  0.00    +0.037 A 
ATOM      6  C   UNL     1       2.955   6.100  -1.695  0.00  0.00    +0.015 A 
ATOM      7  C   UNL     1       2.727   7.335  -2.224  0.00  0.00    +0.027 A 
ATOM      8  C   UNL     1       3.737   8.000  -2.917  0.00  0.00    +0.046 A 
ATOM      9  C   UNL     1       4.997   7.388  -3.068  0.00  0.00    +0.000 A 
ATOM     10  C   UNL     1       5.229   6.128  -2.522  0.00  0.00    +0.023 A 
ATOM     11  C   UNL     1       5.817   8.332  -3.833  0.00  0.00    +0.027 A 
ATOM     12  C   UNL     1       5.047   9.402  -4.085  0.00  0.00    +0.083 A 
ATOM     13  N   UNL     1       3.802   9.220  -3.546  0.00  0.00    -0.361 N 
ATOM     14  H   UNL     1       3.074   9.857  -3.600  0.00  0.00    +0.165 HD
ENDBRANCH   2   5
BRANCH   1  15
ATOM     15  C   UNL     1       3.671   2.186  -0.023  0.00  0.00    +0.208 C 
BRANCH  15  18
ATOM     16  C   UNL     1      -0.024   1.453   0.234  0.00  0.00    +0.002 A 
ATOM     17  C   UNL     1       1.176   2.137   0.165  0.00  0.00    +0.008 A 
ATOM     18  C   UNL     1       2.364   1.440   0.053  0.00  0.00    +0.006 A 
ATOM     19  C   UNL     1       2.354   0.057   0.011  0.00  0.00    +0.065 A 
ATOM     20  C   UNL     1       1.153  -0.628   0.081  0.00  0.00    +0.060 A 
ATOM     21  C   UNL     1      -0.036   0.072   0.192  0.00  0.00    +0.021 A 
ATOM     22 CL   UNL     1       1.138  -2.363   0.027  0.00  0.00    -0.082 Cl
ATOM     23 CL   UNL     1       3.846  -0.819  -0.130  0.00  0.00    -0.082 Cl
ENDBRANCH  15  18
BRANCH  15  24
ATOM     24  C   UNL     1       4.235   2.327   1.330  0.00  0.00    +0.090 C 
ATOM     25  N   UNL     1       4.670   2.436   2.373  0.00  0.00    -0.194 NA
ENDBRANCH  15  24
ENDBRANCH   1  15
TORSDOF 4
