REMARK  Name = ZINC37817527
REMARK  3 active torsions:
REMARK  status: ('A' for Active; 'I' for Inactive)
REMARK    1  A    between atoms: C_4  and  C_7
REMARK    2  A    between atoms: C_4  and  N_21
REMARK    3  A    between atoms: C_12  and  N_15
REMARK                            x       y       z     vdW  Elec       q    Type
REMARK                         _______ _______ _______ _____ _____    ______ ____
ROOT
ATOM      1  C   UNL     1       3.038  -0.520   0.177  0.00  0.00    +0.204 C 
ATOM      2  O   UNL     1       3.136   0.045  -0.891  0.00  0.00    -0.277 OA
ATOM      3  N   UNL     1       3.727  -1.655   0.405  0.00  0.00    -0.302 N 
ATOM      4  C   UNL     1       3.531  -2.414   1.648  0.00  0.00    +0.109 C 
ATOM      5  C   UNL     1       4.893  -2.631   2.314  0.00  0.00    +0.041 C 
ATOM      6  C   UNL     1       5.844  -3.295   1.316  0.00  0.00    +0.081 C 
ATOM      7  C   UNL     1       6.038  -2.379   0.106  0.00  0.00    +0.041 C 
ATOM      8  C   UNL     1       4.685  -2.162  -0.587  0.00  0.00    +0.109 C 
ENDROOT
BRANCH   6   9
ATOM      9  N   UNL     1       7.138  -3.534   1.960  0.00  0.00    -0.281 N 
ATOM     10  C   UNL     1       7.774  -4.849   2.133  0.00  0.00    +0.128 C 
ATOM     11  C   UNL     1       9.095  -4.527   2.858  0.00  0.00    +0.124 C 
ATOM     12  N   UNL     1       9.063  -3.066   3.018  0.00  0.00    -0.298 N 
ATOM     13  C   UNL     1       7.933  -2.589   2.480  0.00  0.00    +0.303 C 
ATOM     14  O   UNL     1       7.651  -1.407   2.469  0.00  0.00    -0.253 OA
ATOM     15  H   UNL     1       9.753  -2.531   3.441  0.00  0.00    +0.150 HD
ENDBRANCH   6   9
BRANCH   1  19
ATOM     16  C   UNL     1      -0.403   0.122  -0.193  0.00  0.00    -0.000 C 
ATOM     17  C   UNL     1       0.719   1.115  -0.501  0.00  0.00    -0.001 C 
ATOM     18  C   UNL     1       1.540   1.367   0.765  0.00  0.00    -0.004 C 
ATOM     19  C   UNL     1       2.145   0.048   1.250  0.00  0.00    +0.007 C 
ATOM     20  C   UNL     1       1.023  -0.946   1.559  0.00  0.00    -0.004 C 
ATOM     21  C   UNL     1       0.202  -1.196   0.293  0.00  0.00    -0.001 C 
BRANCH  19  22
ATOM     22  N   UNL     1       2.934   0.289   2.466  0.00  0.00    +0.388 N 
ATOM     23  H   UNL     1       2.317   0.556   3.219  0.00  0.00    -0.089 HD
ATOM     24  H   UNL     1       3.428  -0.553   2.719  0.00  0.00    -0.089 HD
ATOM     25  H   UNL     1       3.597   1.030   2.296  0.00  0.00    -0.089 HD
ENDBRANCH  19  22
ENDBRANCH   1  19
TORSDOF 3
