REMARK  Name = ZINC54621863
REMARK  6 active torsions:
REMARK  status: ('A' for Active; 'I' for Inactive)
REMARK    1  A    between atoms: C_1  and  C_2
REMARK    2  A    between atoms: C_8  and  C_13
REMARK    3  A    between atoms: C_9  and  O_12
REMARK    4  A    between atoms: C_13  and  C_15
REMARK    5  A    between atoms: C_13  and  N_20
REMARK    6  A    between atoms: N_20  and  C_21
REMARK                            x       y       z     vdW  Elec       q    Type
REMARK                         _______ _______ _______ _____ _____    ______ ____
ROOT
ATOM      1  C   UNL     1       0.086  -4.769   3.747  0.00  0.00    +0.171 C 
ENDROOT
BRANCH   1   9
ATOM      2  C   UNL     1       0.242   1.350  -0.233  0.00  0.00    +0.065 C 
ATOM      3  C   UNL     1       0.301  -0.155  -0.177  0.00  0.00    +0.039 A 
ATOM      4  C   UNL     1       0.458  -0.872  -1.361  0.00  0.00    +0.023 A 
ATOM      5  C   UNL     1       0.513  -2.236  -1.329  0.00  0.00    +0.012 A 
ATOM      6  C   UNL     1       0.409  -2.876  -0.080  0.00  0.00    +0.004 A 
ATOM      7  C   UNL     1       0.458  -4.275   0.032  0.00  0.00    +0.010 A 
ATOM      8  C   UNL     1       0.354  -4.859   1.257  0.00  0.00    +0.010 A 
ATOM      9  C   UNL     1       0.198  -4.089   2.406  0.00  0.00    +0.024 A 
ATOM     10  C   UNL     1       0.146  -2.726   2.338  0.00  0.00    +0.148 A 
ATOM     11  C   UNL     1       0.251  -2.086   1.085  0.00  0.00    +0.113 A 
ATOM     12  N   UNL     1       0.210  -0.754   0.985  0.00  0.00    -0.248 NA
BRANCH  10  13
ATOM     13  O   UNL     1      -0.006  -1.990   3.470  0.00  0.00    -0.504 OA
ATOM     14  H   UNL     1       0.828  -1.739   3.891  0.00  0.00    +0.292 HD
ENDBRANCH  10  13
ENDBRANCH   1   9
BRANCH   1  15
ATOM     15  C   UNL     1       1.453  -4.881   4.370  0.00  0.00    +0.129 A 
ATOM     16  C   UNL     1       1.952  -4.073   5.323  0.00  0.00    +0.047 A 
ATOM     17  C   UNL     1       3.256  -4.537   5.612  0.00  0.00    +0.041 A 
ATOM     18  C   UNL     1       3.476  -5.600   4.818  0.00  0.00    +0.195 A 
ATOM     19  O   UNL     1       2.379  -5.807   4.072  0.00  0.00    -0.466 OA
ENDBRANCH   1  15
BRANCH   1  20
ATOM     20  N   UNL     1      -0.481  -6.108   3.568  0.00  0.00    -0.330 N 
ATOM     21  H   UNL     1      -0.394  -6.562   2.715  0.00  0.00    +0.147 HD
BRANCH  20  22
ATOM     22  C   UNL     1      -1.146  -6.732   4.627  0.00  0.00    +0.029 A 
ATOM     23  C   UNL     1      -1.277  -6.081   5.847  0.00  0.00    +0.024 A 
ATOM     24  C   UNL     1      -1.935  -6.699   6.892  0.00  0.00    +0.023 A 
ATOM     25  C   UNL     1      -2.465  -7.967   6.724  0.00  0.00    +0.059 A 
ATOM     26  C   UNL     1      -2.336  -8.619   5.510  0.00  0.00    +0.061 A 
ATOM     27  C   UNL     1      -1.684  -8.002   4.459  0.00  0.00    +0.044 A 
ATOM     28 CL   UNL     1      -3.000 -10.209   5.304  0.00  0.00    -0.082 Cl
ATOM     29 CL   UNL     1      -3.291  -8.741   8.040  0.00  0.00    -0.082 Cl
ENDBRANCH  20  22
ENDBRANCH   1  20
TORSDOF 5
