REMARK  Name = ZINC48257558
REMARK  12 active torsions:
REMARK  status: ('A' for Active; 'I' for Inactive)
REMARK    1  A    between atoms: C_1  and  C_2
REMARK    2  A    between atoms: C_2  and  C_3
REMARK    3  A    between atoms: N_5  and  C_6
REMARK    4  A    between atoms: C_9  and  C_25
REMARK    5  A    between atoms: C_10  and  N_12
REMARK    6  A    between atoms: N_15  and  C_16
REMARK    7  A    between atoms: N_15  and  C_17
REMARK    8  A    between atoms: C_17  and  C_18
REMARK    9  A    between atoms: N_20  and  C_21
REMARK   10  A    between atoms: C_21  and  C_22
REMARK   11  A    between atoms: C_21  and  C_23
REMARK   12  A    between atoms: C_21  and  C_24
REMARK                            x       y       z     vdW  Elec       q    Type
REMARK                         _______ _______ _______ _____ _____    ______ ____
ROOT
ATOM      1  N   UNL     1      -4.412  -5.700   0.260  0.00  0.00    -0.269 N 
ATOM      2  C   UNL     1      -3.321  -6.487   0.339  0.00  0.00    +0.307 C 
ATOM      3  O   UNL     1      -2.210  -5.996   0.270  0.00  0.00    -0.252 OA
ATOM      4  N   UNL     1      -3.460  -7.819   0.493  0.00  0.00    -0.280 N 
ATOM      5  C   UNL     1      -4.798  -8.410   0.575  0.00  0.00    +0.134 C 
ATOM      6  H   UNL     1      -5.296  -6.097   0.247  0.00  0.00    +0.156 HD
ENDROOT
BRANCH   1  11
ATOM      7  C   UNL     1      -3.048  -2.373  -0.530  0.00  0.00    +0.035 A 
ATOM      8  C   UNL     1      -3.990  -1.554   0.080  0.00  0.00    +0.024 A 
ATOM      9  C   UNL     1      -5.065  -2.112   0.744  0.00  0.00    +0.007 A 
ATOM     10  C   UNL     1      -5.207  -3.485   0.805  0.00  0.00    -0.029 A 
ATOM     11  C   UNL     1      -4.268  -4.309   0.198  0.00  0.00    +0.039 A 
ATOM     12  C   UNL     1      -3.190  -3.752  -0.476  0.00  0.00    +0.047 A 
ATOM     13  C   UNL     1      -6.380  -4.090   1.532  0.00  0.00    +0.045 C 
BRANCH   7  16
ATOM     14  C   UNL     1      -1.394  -0.676  -0.738  0.00  0.00    +0.217 C 
ATOM     15  O   UNL     1      -1.878  -0.103   0.215  0.00  0.00    -0.275 OA
ATOM     16  N   UNL     1      -1.960  -1.807  -1.204  0.00  0.00    -0.285 N 
ATOM     17  H   UNL     1      -1.613  -2.229  -2.005  0.00  0.00    +0.155 HD
BRANCH  14  19
ATOM     18  C   UNL     1       0.276   1.157  -0.685  0.00  0.00    +0.013 C 
ATOM     19  C   UNL     1      -0.159  -0.123  -1.403  0.00  0.00    +0.093 C 
ENDBRANCH  14  19
ENDBRANCH   7  16
ENDBRANCH   1  11
BRANCH   4  20
ATOM     20  C   UNL     1      -2.274  -8.675   0.578  0.00  0.00    +0.204 C 
BRANCH  20  21
ATOM     21  C   UNL     1      -1.852  -8.806   2.019  0.00  0.00    +0.231 C 
ATOM     22  O   UNL     1      -2.480  -8.240   2.889  0.00  0.00    -0.274 OA
ATOM     23  N   UNL     1      -0.777  -9.552   2.341  0.00  0.00    -0.309 N 
ATOM     24  H   UNL     1      -0.275 -10.004   1.645  0.00  0.00    +0.149 HD
BRANCH  23  25
ATOM     25  C   UNL     1      -0.367  -9.680   3.742  0.00  0.00    +0.026 C 
ATOM     26  C   UNL     1      -1.505 -10.303   4.552  0.00  0.00    +0.031 C 
ATOM     27  C   UNL     1       0.872 -10.573   3.831  0.00  0.00    +0.031 C 
ATOM     28  C   UNL     1      -0.039  -8.296   4.305  0.00  0.00    +0.031 C 
ENDBRANCH  23  25
ENDBRANCH  20  21
ENDBRANCH   4  20
TORSDOF 6
