REMARK  Name = ZINC31936211
REMARK  10 active torsions:
REMARK  status: ('A' for Active; 'I' for Inactive)
REMARK    1  A    between atoms: C_1  and  C_2
REMARK    2  A    between atoms: N_5  and  C_8
REMARK    3  A    between atoms: N_13  and  C_15
REMARK    4  A    between atoms: C_15  and  C_16
REMARK    5  A    between atoms: C_16  and  C_17
REMARK    6  A    between atoms: C_16  and  C_18
REMARK    7  A    between atoms: C_16  and  C_19
REMARK    8  A    between atoms: N_21  and  C_22
REMARK    9  A    between atoms: C_22  and  C_23
REMARK   10  A    between atoms: C_23  and  N_24
REMARK                            x       y       z     vdW  Elec       q    Type
REMARK                         _______ _______ _______ _____ _____    ______ ____
ROOT
ATOM      1  C   UNL     1      -0.171   1.030  -2.353  0.00  0.00    +0.046 A 
ATOM      2  C   UNL     1       1.178   1.266  -2.672  0.00  0.00    +0.030 A 
ATOM      3  C   UNL     1       1.696   0.731  -3.814  0.00  0.00    +0.072 A 
ATOM      4  C   UNL     1       0.874  -0.045  -4.647  0.00  0.00    +0.251 A 
ATOM      5  O   UNL     1       1.328  -0.529  -5.672  0.00  0.00    -0.268 OA
ATOM      6  N   UNL     1      -0.415  -0.256  -4.319  0.00  0.00    -0.312 N 
ATOM      7  C   UNL     1      -0.938   0.271  -3.179  0.00  0.00    +0.112 A 
ENDROOT
BRANCH   1  12
ATOM      8  C   UNL     1      -1.532   3.608   2.488  0.00  0.00    +0.007 C 
ATOM      9  C   UNL     1      -0.764   3.110   1.262  0.00  0.00    -0.011 C 
ATOM     10  C   UNL     1      -0.729   1.579   1.267  0.00  0.00    +0.022 C 
ATOM     11  C   UNL     1      -0.013   1.086   0.008  0.00  0.00    +0.105 C 
ATOM     12  N   UNL     1      -0.723   1.572  -1.182  0.00  0.00    -0.329 N 
ATOM     13  C   UNL     1      -0.729   3.040  -1.234  0.00  0.00    +0.105 C 
ATOM     14  C   UNL     1      -1.466   3.591  -0.011  0.00  0.00    +0.022 C 
ENDBRANCH   1  12
BRANCH   6  15
ATOM     15  C   UNL     1      -1.262  -1.067  -5.197  0.00  0.00    +0.140 C 
BRANCH  15  16
ATOM     16  C   UNL     1      -1.177  -2.535  -4.774  0.00  0.00    +0.059 C 
ATOM     17  C   UNL     1       0.272  -3.013  -4.880  0.00  0.00    +0.022 C 
ATOM     18  C   UNL     1      -1.657  -2.678  -3.328  0.00  0.00    +0.022 C 
BRANCH  16  19
ATOM     19  C   UNL     1      -2.049  -3.369  -5.677  0.00  0.00    +0.220 C 
ATOM     20  O   UNL     1      -2.676  -2.841  -6.571  0.00  0.00    -0.275 OA
ATOM     21  N   UNL     1      -2.131  -4.701  -5.491  0.00  0.00    -0.317 N 
ATOM     22  H   UNL     1      -1.562  -5.180  -4.681  0.00  0.00    +0.149 HD
BRANCH  21  23
ATOM     23  C   UNL     1      -2.978  -5.512  -6.369  0.00  0.00    +0.085 C 
BRANCH  23  24
ATOM     24  C   UNL     1      -2.893  -6.980  -5.946  0.00  0.00    -0.067 C 
BRANCH  24  25
ATOM     25  N   UNL     1      -3.743  -7.793  -6.827  0.00  0.00    +0.379 N 
ATOM     26  H   UNL     1      -3.682  -8.849  -6.523  0.00  0.00    -0.090 HD
ATOM     27  H   UNL     1      -3.398  -7.691  -7.866  0.00  0.00    -0.090 HD
ATOM     28  H   UNL     1      -4.785  -7.449  -6.750  0.00  0.00    -0.090 HD
ENDBRANCH  24  25
ENDBRANCH  23  24
ENDBRANCH  21  23
ENDBRANCH  16  19
ENDBRANCH  15  16
ENDBRANCH   6  15
TORSDOF 7
