REMARK  Name = ZINC65689851
REMARK  9 active torsions:
REMARK  status: ('A' for Active; 'I' for Inactive)
REMARK    1  A    between atoms: C_1  and  C_2
REMARK    2  A    between atoms: C_2  and  O_3
REMARK    3  A    between atoms: O_3  and  C_4
REMARK    4  A    between atoms: C_4  and  C_5
REMARK    5  A    between atoms: C_8  and  C_11
REMARK    6  A    between atoms: C_11  and  N_12
REMARK    7  A    between atoms: C_17  and  C_23
REMARK    8  A    between atoms: C_19  and  C_21
REMARK    9  A    between atoms: C_19  and  C_22
REMARK                            x       y       z     vdW  Elec       q    Type
REMARK                         _______ _______ _______ _____ _____    ______ ____
ROOT
ATOM      1  N   UNL     1       4.031  -2.171   6.770  0.00  0.00    -0.295 N 
ATOM      2  C   UNL     1       4.711  -2.272   7.930  0.00  0.00    +0.303 C 
ATOM      3  O   UNL     1       4.913  -3.365   8.422  0.00  0.00    -0.253 OA
ATOM      4  N   UNL     1       5.167  -1.162   8.543  0.00  0.00    -0.280 N 
ATOM      5  C   UNL     1       4.833   0.177   8.032  0.00  0.00    +0.140 C 
ATOM      6  C   UNL     1       4.296   1.019   9.195  0.00  0.00    +0.133 C 
ATOM      7  O   UNL     1       5.224   0.967  10.281  0.00  0.00    -0.368 OA
ATOM      8  C   UNL     1       5.418  -0.342  10.824  0.00  0.00    +0.080 C 
ATOM      9  C   UNL     1       6.007  -1.253   9.747  0.00  0.00    +0.143 C 
ATOM     10  C   UNL     1       4.073  -0.907  11.287  0.00  0.00    +0.043 C 
ATOM     11  C   UNL     1       6.377  -0.265  12.013  0.00  0.00    +0.043 C 
ATOM     12  C   UNL     1       4.123   2.469   8.740  0.00  0.00    +0.039 C 
ATOM     13  H   UNL     1       3.807  -1.297   6.414  0.00  0.00    +0.151 HD
ENDROOT
BRANCH   1  14
ATOM     14  C   UNL     1       3.631  -3.381   6.048  0.00  0.00    +0.141 C 
BRANCH  14  18
ATOM     15  C   UNL     1       1.532  -2.288   2.491  0.00  0.00    -0.022 A 
ATOM     16  C   UNL     1       2.905  -2.445   2.463  0.00  0.00    +0.006 A 
ATOM     17  C   UNL     1       3.584  -2.799   3.614  0.00  0.00    +0.005 A 
ATOM     18  C   UNL     1       2.891  -2.994   4.793  0.00  0.00    -0.030 A 
ATOM     19  C   UNL     1       1.518  -2.837   4.822  0.00  0.00    +0.005 A 
ATOM     20  C   UNL     1       0.839  -2.479   3.672  0.00  0.00    +0.006 A 
BRANCH  15  21
ATOM     21  C   UNL     1       0.791  -1.903   1.236  0.00  0.00    +0.195 C 
BRANCH  21  22
ATOM     22  O   UNL     1       0.718  -0.479   1.145  0.00  0.00    -0.375 OA
BRANCH  22  24
ATOM     23  C   UNL     1       0.014   1.524  -0.010  0.00  0.00    +0.034 C 
ATOM     24  C   UNL     1       0.032  -0.006  -0.016  0.00  0.00    +0.157 C 
ENDBRANCH  22  24
ENDBRANCH  21  22
ENDBRANCH  15  21
ENDBRANCH  14  18
ENDBRANCH   1  14
TORSDOF 5
