REMARK  Name = ZINC16677695
REMARK  8 active torsions:
REMARK  status: ('A' for Active; 'I' for Inactive)
REMARK    1  A    between atoms: C_1  and  C_2
REMARK    2  A    between atoms: C_2  and  C_25
REMARK    3  A    between atoms: N_3  and  N_4
REMARK    4  A    between atoms: C_5  and  S_7
REMARK    5  A    between atoms: S_7  and  C_8
REMARK    6  A    between atoms: N_13  and  C_16
REMARK    7  A    between atoms: C_19  and  C_22
REMARK    8  A    between atoms: C_28  and  O_31
REMARK                            x       y       z     vdW  Elec       q    Type
REMARK                         _______ _______ _______ _____ _____    ______ ____
ROOT
ATOM      1  N   UNL     1      -0.327   0.909   2.604  0.00  0.00    -0.217 N 
ATOM      2  C   UNL     1      -0.245   0.002   3.636  0.00  0.00    +0.146 C 
ATOM      3  N   UNL     1      -0.302  -1.278   3.386  0.00  0.00    -0.380 N 
ATOM      4  H   UNL     1      -0.284   1.860   2.789  0.00  0.00    +0.176 HD
ATOM      5  H   UNL     1      -0.244  -1.917   4.113  0.00  0.00    +0.158 HD
ATOM      6  H   UNL     1      -0.402  -1.589   2.473  0.00  0.00    +0.158 HD
ENDROOT
BRANCH   1   9
ATOM      7  C   UNL     1      -0.483   2.792   0.601  0.00  0.00    +0.068 C 
ATOM      8  C   UNL     1      -0.549   1.314   0.312  0.00  0.00    +0.063 C 
ATOM      9  N   UNL     1      -0.472   0.459   1.285  0.00  0.00    -0.185 NA
BRANCH   8  10
ATOM     10  C   UNL     1      -0.702   0.840  -1.076  0.00  0.00    -0.002 A 
ATOM     11  C   UNL     1      -0.780   1.759  -2.126  0.00  0.00    +0.013 A 
ATOM     12  C   UNL     1      -0.923   1.311  -3.421  0.00  0.00    +0.046 A 
ATOM     13  C   UNL     1      -0.989  -0.051  -3.684  0.00  0.00    +0.117 A 
ATOM     14  C   UNL     1      -0.912  -0.968  -2.644  0.00  0.00    +0.046 A 
ATOM     15  C   UNL     1      -0.764  -0.530  -1.346  0.00  0.00    +0.013 A 
BRANCH  13  16
ATOM     16  O   UNL     1      -1.130  -0.488  -4.963  0.00  0.00    -0.507 OA
ATOM     17  H   UNL     1      -0.293  -0.640  -5.421  0.00  0.00    +0.292 HD
ENDBRANCH  13  16
ENDBRANCH   8  10
ENDBRANCH   1   9
BRANCH   2  18
ATOM     18  S   UNL     1      -0.062   0.568   5.294  0.00  0.00    -0.078 S 
BRANCH  18  19
ATOM     19  C   UNL     1      -0.001  -0.957   6.274  0.00  0.00    +0.149 C 
ATOM     20  C   UNL     1       0.231  -0.635   7.765  0.00  0.00    +0.120 C 
ATOM     21  C   UNL     1      -1.008  -1.181   8.442  0.00  0.00    +0.228 C 
ATOM     22  O   UNL     1      -1.235  -1.135   9.632  0.00  0.00    -0.275 OA
ATOM     23  N   UNL     1      -1.813  -1.720   7.519  0.00  0.00    -0.209 N 
ATOM     24  C   UNL     1      -1.344  -1.652   6.263  0.00  0.00    +0.240 C 
ATOM     25  O   UNL     1      -1.907  -2.078   5.276  0.00  0.00    -0.274 OA
BRANCH  23  26
ATOM     26  C   UNL     1      -3.040  -2.308   7.836  0.00  0.00    +0.044 A 
ATOM     27  C   UNL     1      -4.086  -1.520   8.305  0.00  0.00    +0.025 A 
ATOM     28  C   UNL     1      -5.296  -2.095   8.619  0.00  0.00    +0.017 A 
ATOM     29  C   UNL     1      -5.473  -3.475   8.466  0.00  0.00    +0.063 A 
ATOM     30  C   UNL     1      -4.419  -4.263   7.995  0.00  0.00    +0.017 A 
ATOM     31  C   UNL     1      -3.213  -3.679   7.678  0.00  0.00    +0.025 A 
BRANCH  29  32
ATOM     32  C   UNL     1      -6.767  -4.095   8.802  0.00  0.00    +0.387 C 
ATOM     33  O   UNL     1      -7.688  -3.403   9.214  0.00  0.00    -0.241 OA
ATOM     34  O   UNL     1      -6.920  -5.301   8.668  0.00  0.00    -0.241 OA
ENDBRANCH  29  32
ENDBRANCH  23  26
ENDBRANCH  18  19
ENDBRANCH   2  18
TORSDOF 7
