REMARK  Name = ZINC56077615
REMARK  9 active torsions:
REMARK  status: ('A' for Active; 'I' for Inactive)
REMARK    1  A    between atoms: C_1  and  C_2
REMARK    2  A    between atoms: C_10  and  C_11
REMARK    3  A    between atoms: C_11  and  C_13
REMARK    4  A    between atoms: C_11  and  N_14
REMARK    5  A    between atoms: C_15  and  C_17
REMARK    6  A    between atoms: C_17  and  C_18
REMARK    7  A    between atoms: C_17  and  C_19
REMARK    8  A    between atoms: C_17  and  N_20
REMARK    9  A    between atoms: N_23  and  C_24
REMARK                            x       y       z     vdW  Elec       q    Type
REMARK                         _______ _______ _______ _____ _____    ______ ____
ROOT
ATOM      1  N   UNL     1      -0.928  -1.145   3.277  0.00  0.00    -0.304 N 
ATOM      2  C   UNL     1      -1.473  -0.636   4.399  0.00  0.00    +0.237 C 
ATOM      3  O   UNL     1      -1.170   0.478   4.769  0.00  0.00    -0.273 OA
ATOM      4  H   UNL     1      -1.171  -2.037   2.981  0.00  0.00    +0.149 HD
ENDROOT
BRANCH   2   5
ATOM      5  C   UNL     1      -2.459  -1.452   5.195  0.00  0.00    +0.106 C 
ATOM      6  C   UNL     1      -1.703  -2.372   6.155  0.00  0.00    +0.041 C 
ATOM      7  C   UNL     1      -3.368  -0.516   5.995  0.00  0.00    +0.041 C 
BRANCH   5   8
ATOM      8  N   UNL     1      -3.273  -2.260   4.283  0.00  0.00    -0.286 N 
ATOM      9  C   UNL     1      -4.228  -3.074   4.774  0.00  0.00    +0.300 C 
ATOM     10  O   UNL     1      -4.415  -3.138   5.974  0.00  0.00    -0.253 OA
ATOM     11  N   UNL     1      -4.976  -3.818   3.935  0.00  0.00    -0.302 N 
ATOM     12  C   UNL     1      -6.015  -4.703   4.469  0.00  0.00    +0.129 C 
ATOM     13  H   UNL     1      -3.124  -2.209   3.326  0.00  0.00    +0.151 HD
ATOM     14  H   UNL     1      -4.828  -3.767   2.978  0.00  0.00    +0.150 HD
ENDBRANCH   5   8
ENDBRANCH   2   5
BRANCH   1  15
ATOM     15  C   UNL     1       0.030  -0.352   2.503  0.00  0.00    +0.136 C 
ATOM     16  C   UNL     1       1.432  -0.532   3.090  0.00  0.00    +0.036 C 
BRANCH  15  26
ATOM     17  C   UNL     1      -0.018   1.503   0.010  0.00  0.00    +0.048 C 
ATOM     18  C   UNL     1       0.002  -0.004   0.002  0.00  0.00    +0.000 A 
ATOM     19  C   UNL     1       0.009  -0.879  -1.177  0.00  0.00    +0.023 A 
ATOM     20  C   UNL     1       0.000  -0.660  -2.553  0.00  0.00    +0.012 A 
ATOM     21  C   UNL     1       0.011  -1.726  -3.409  0.00  0.00    +0.001 A 
ATOM     22  C   UNL     1       0.031  -3.023  -2.916  0.00  0.00    +0.004 A 
ATOM     23  C   UNL     1       0.040  -3.259  -1.558  0.00  0.00    +0.047 A 
ATOM     24  C   UNL     1       0.029  -2.190  -0.671  0.00  0.00    +0.136 A 
ATOM     25  O   UNL     1       0.033  -2.100   0.674  0.00  0.00    -0.458 OA
ATOM     26  C   UNL     1       0.023  -0.814   1.069  0.00  0.00    +0.129 A 
ENDBRANCH  15  26
ENDBRANCH   1  15
TORSDOF 4
