REMARK  Name = ZINC34864257
REMARK  13 active torsions:
REMARK  status: ('A' for Active; 'I' for Inactive)
REMARK    1  A    between atoms: C_3  and  O_35
REMARK    2  A    between atoms: C_4  and  C_24
REMARK    3  A    between atoms: C_5  and  O_7
REMARK    4  A    between atoms: O_7  and  C_8
REMARK    5  A    between atoms: C_10  and  O_23
REMARK    6  A    between atoms: C_12  and  O_22
REMARK    7  A    between atoms: C_14  and  O_21
REMARK    8  A    between atoms: C_16  and  C_19
REMARK    9  A    between atoms: C_19  and  O_20
REMARK   10  A    between atoms: C_24  and  C_26
REMARK   11  A    between atoms: C_26  and  C_27
REMARK   12  A    between atoms: C_27  and  C_28
REMARK   13  A    between atoms: C_31  and  O_34
REMARK                            x       y       z     vdW  Elec       q    Type
REMARK                         _______ _______ _______ _____ _____    ______ ____
ROOT
ATOM      1  C   UNL     1      -0.017   1.378   0.010  0.00  0.00    +0.007 A 
ATOM      2  C   UNL     1       1.165   2.098   0.002  0.00  0.00    +0.046 A 
ATOM      3  C   UNL     1       2.383   1.439  -0.013  0.00  0.00    +0.131 A 
ATOM      4  C   UNL     1       2.415   0.034  -0.021  0.00  0.00    +0.100 A 
ATOM      5  C   UNL     1       1.208  -0.686  -0.013  0.00  0.00    +0.138 A 
ATOM      6  C   UNL     1       0.002  -0.004   0.002  0.00  0.00    +0.047 A 
ENDROOT
BRANCH   4   7
ATOM      7  C   UNL     1       3.696  -0.675  -0.038  0.00  0.00    +0.170 C 
ATOM      8  O   UNL     1       3.719  -1.888  -0.045  0.00  0.00    -0.292 OA
BRANCH   7   9
ATOM      9  C   UNL     1       4.987   0.102  -0.048  0.00  0.00    +0.084 C 
BRANCH   9  10
ATOM     10  C   UNL     1       6.168  -0.870  -0.065  0.00  0.00    +0.043 C 
BRANCH  10  11
ATOM     11  C   UNL     1       7.459  -0.093  -0.074  0.00  0.00    -0.047 A 
ATOM     12  C   UNL     1       8.035   0.275  -1.276  0.00  0.00    +0.007 A 
ATOM     13  C   UNL     1       9.219   0.987  -1.287  0.00  0.00    +0.045 A 
ATOM     14  C   UNL     1       9.829   1.334  -0.091  0.00  0.00    +0.117 A 
ATOM     15  C   UNL     1       9.249   0.965   1.114  0.00  0.00    +0.045 A 
ATOM     16  C   UNL     1       8.063   0.257   1.120  0.00  0.00    +0.007 A 
BRANCH  14  17
ATOM     17  O   UNL     1      10.994   2.035  -0.099  0.00  0.00    -0.507 OA
ATOM     18  H   UNL     1      10.876   2.994  -0.089  0.00  0.00    +0.292 HD
ENDBRANCH  14  17
ENDBRANCH  10  11
ENDBRANCH   9  10
ENDBRANCH   7   9
ENDBRANCH   4   7
BRANCH   3  19
ATOM     19  O   UNL     1       3.539   2.147  -0.022  0.00  0.00    -0.506 OA
ATOM     20  H   UNL     1       3.884   2.348   0.859  0.00  0.00    +0.292 HD
ENDBRANCH   3  19
BRANCH   5  21
ATOM     21  O   UNL     1       1.223  -2.042  -0.021  0.00  0.00    -0.460 OA
BRANCH  21  22
ATOM     22  C   UNL     1      -0.043  -2.705  -0.012  0.00  0.00    +0.339 C 
ATOM     23  C   UNL     1       0.167  -4.202   0.227  0.00  0.00    +0.214 C 
ATOM     24  C   UNL     1      -1.188  -4.915   0.176  0.00  0.00    +0.180 C 
ATOM     25  C   UNL     1      -1.852  -4.629  -1.175  0.00  0.00    +0.177 C 
ATOM     26  C   UNL     1      -1.984  -3.115  -1.360  0.00  0.00    +0.179 C 
ATOM     27  O   UNL     1      -0.692  -2.511  -1.271  0.00  0.00    -0.331 OA
BRANCH  25  28
ATOM     28  O   UNL     1      -1.049  -5.172  -2.225  0.00  0.00    -0.386 OA
ATOM     29  H   UNL     1      -0.920  -6.129  -2.168  0.00  0.00    +0.210 HD
ENDBRANCH  25  28
BRANCH  24  30
ATOM     30  O   UNL     1      -0.995  -6.322   0.327  0.00  0.00    -0.386 OA
ATOM     31  H   UNL     1      -0.573  -6.574   1.160  0.00  0.00    +0.210 HD
ENDBRANCH  24  30
BRANCH  23  32
ATOM     32  O   UNL     1       0.764  -4.402   1.510  0.00  0.00    -0.383 OA
ATOM     33  H   UNL     1       1.625  -3.974   1.614  0.00  0.00    +0.210 HD
ENDBRANCH  23  32
BRANCH  26  34
ATOM     34  C   UNL     1      -2.591  -2.820  -2.733  0.00  0.00    +0.190 C 
BRANCH  34  35
ATOM     35  O   UNL     1      -2.821  -1.416  -2.860  0.00  0.00    -0.392 OA
ATOM     36  H   UNL     1      -3.207  -1.155  -3.708  0.00  0.00    +0.210 HD
ENDBRANCH  34  35
ENDBRANCH  26  34
ENDBRANCH  21  22
ENDBRANCH   5  21
TORSDOF 13
