REMARK  Name = ZINC48245360
REMARK  8 active torsions:
REMARK  status: ('A' for Active; 'I' for Inactive)
REMARK    1  A    between atoms: C_4  and  N_24
REMARK    2  A    between atoms: C_5  and  N_7
REMARK    3  A    between atoms: N_7  and  C_8
REMARK    4  A    between atoms: C_8  and  C_9
REMARK    5  A    between atoms: C_9  and  N_10
REMARK    6  A    between atoms: C_11  and  C_13
REMARK    7  A    between atoms: C_17  and  N_20
REMARK    8  A    between atoms: C_18  and  N_19
REMARK                            x       y       z     vdW  Elec       q    Type
REMARK                         _______ _______ _______ _____ _____    ______ ____
ROOT
ATOM      1  N   UNL     1       0.702  -2.968   1.610  0.00  0.00    -0.310 N 
ATOM      2  C   UNL     1       1.060  -4.266   1.669  0.00  0.00    +0.246 C 
ATOM      3  O   UNL     1       2.235  -4.570   1.735  0.00  0.00    -0.270 OA
ATOM      4  H   UNL     1      -0.236  -2.725   1.558  0.00  0.00    +0.149 HD
ENDROOT
BRANCH   2   5
ATOM      5  C   UNL     1       0.026  -5.317   1.655  0.00  0.00    +0.062 A 
ATOM      6  C   UNL     1      -1.320  -4.976   1.493  0.00  0.00    +0.053 A 
ATOM      7  C   UNL     1      -2.283  -5.965   1.480  0.00  0.00    +0.126 A 
ATOM      8  C   UNL     1      -1.921  -7.296   1.627  0.00  0.00    +0.073 A 
ATOM      9  C   UNL     1      -0.596  -7.646   1.787  0.00  0.00    +0.150 A 
ATOM     10  C   UNL     1       0.388  -6.665   1.796  0.00  0.00    +0.068 A 
ATOM     11  F   UNL     1      -3.583  -5.635   1.325  0.00  0.00    -0.205 F 
BRANCH  10  12
ATOM     12  N   UNL     1       1.724  -7.016   1.951  0.00  0.00    -0.356 N 
ATOM     13  H   UNL     1       1.965  -7.771   2.511  0.00  0.00    +0.142 HD
ATOM     14  H   UNL     1       2.414  -6.507   1.499  0.00  0.00    +0.142 HD
ENDBRANCH  10  12
BRANCH   9  15
ATOM     15  N   UNL     1      -0.221  -9.069   1.944  0.00  0.00    +0.058 N 
ATOM     16  O   UNL     1      -1.081  -9.913   2.050  0.00  0.00    -0.126 OA
ATOM     17  O   UNL     1       0.945  -9.389   1.966  0.00  0.00    -0.126 OA
ENDBRANCH   9  15
ENDBRANCH   2   5
BRANCH   1  18
ATOM     18  C   UNL     1       1.729  -1.923   1.625  0.00  0.00    +0.123 C 
BRANCH  18  19
ATOM     19  C   UNL     1       1.061  -0.549   1.549  0.00  0.00    +0.120 C 
BRANCH  19  20
ATOM     20  N   UNL     1       2.088   0.495   1.564  0.00  0.00    -0.341 N 
ATOM     21  H   UNL     1       3.026   0.252   1.616  0.00  0.00    +0.146 HD
BRANCH  20  26
ATOM     22  C   UNL     1       0.013   3.527   1.500  0.00  0.00    +0.002 A 
ATOM     23  C   UNL     1       0.983   4.505   1.380  0.00  0.00    +0.002 A 
ATOM     24  C   UNL     1       2.319   4.155   1.321  0.00  0.00    +0.034 A 
ATOM     25  C   UNL     1       2.689   2.825   1.381  0.00  0.00    +0.147 A 
ATOM     26  C   UNL     1       1.717   1.840   1.502  0.00  0.00    +0.058 A 
ATOM     27  C   UNL     1       0.376   2.196   1.562  0.00  0.00    +0.025 A 
BRANCH  25  28
ATOM     28  N   UNL     1       4.119   2.451   1.317  0.00  0.00    +0.058 N 
ATOM     29  O   UNL     1       4.949   3.135   1.870  0.00  0.00    -0.126 OA
ATOM     30  O   UNL     1       4.459   1.461   0.712  0.00  0.00    -0.126 OA
ENDBRANCH  25  28
ENDBRANCH  20  26
ENDBRANCH  19  20
ENDBRANCH  18  19
ENDBRANCH   1  18
TORSDOF 8
