REMARK  Name = ZINC54552095
REMARK  6 active torsions:
REMARK  status: ('A' for Active; 'I' for Inactive)
REMARK    1  A    between atoms: C_1  and  C_2
REMARK    2  A    between atoms: C_3  and  C_20
REMARK    3  A    between atoms: C_7  and  C_8
REMARK    4  A    between atoms: N_11  and  C_12
REMARK    5  A    between atoms: N_11  and  C_13
REMARK    6  A    between atoms: C_13  and  C_14
REMARK                            x       y       z     vdW  Elec       q    Type
REMARK                         _______ _______ _______ _____ _____    ______ ____
ROOT
ATOM      1  C   UNL     1      -2.354  -0.918  -1.556  0.00  0.00    +0.046 C 
ATOM      2  C   UNL     1      -1.106  -1.162  -0.747  0.00  0.00    -0.013 A 
ATOM      3  C   UNL     1       0.127  -0.707  -1.182  0.00  0.00    +0.035 A 
ATOM      4  N   UNL     1       1.208  -0.929  -0.461  0.00  0.00    -0.280 N 
ATOM      5  N   UNL     1       1.180  -1.563   0.654  0.00  0.00    -0.158 NA
ATOM      6  C   UNL     1       0.053  -2.043   1.165  0.00  0.00    +0.156 A 
ATOM      7  C   UNL     1      -1.158  -1.852   0.472  0.00  0.00    +0.109 A 
ATOM      8  N   UNL     1       0.067  -2.720   2.370  0.00  0.00    -0.314 N 
ATOM      9  C   UNL     1       0.011  -1.975   3.630  0.00  0.00    +0.131 C 
ATOM     10  C   UNL     1       0.234   0.045  -2.483  0.00  0.00    +0.065 C 
ATOM     11  H   UNL     1       2.061  -0.601  -0.787  0.00  0.00    +0.189 HD
ENDROOT
BRANCH   7  12
ATOM     12  C   UNL     1      -2.433  -2.363   1.007  0.00  0.00    +0.390 C 
ATOM     13  O   UNL     1      -2.772  -3.516   0.783  0.00  0.00    -0.240 OA
ATOM     14  O   UNL     1      -3.153  -1.633   1.675  0.00  0.00    -0.240 OA
ENDBRANCH   7  12
BRANCH   8  15
ATOM     15  C   UNL     1       0.139  -4.183   2.387  0.00  0.00    +0.137 C 
BRANCH  15  16
ATOM     16  C   UNL     1       1.605  -4.622   2.416  0.00  0.00    +0.136 C 
ATOM     17  C   UNL     1       1.704  -6.168   2.399  0.00  0.00    +0.035 C 
ATOM     18  C   UNL     1       3.120  -6.365   1.793  0.00  0.00    +0.031 C 
ATOM     19  C   UNL     1       3.224  -5.182   0.808  0.00  0.00    +0.160 C 
ATOM     20  O   UNL     1       2.278  -4.187   1.224  0.00  0.00    -0.375 OA
ENDBRANCH  15  16
ENDBRANCH   8  15
TORSDOF 3
