REMARK  Name = ZINC12792325
REMARK  4 active torsions:
REMARK  status: ('A' for Active; 'I' for Inactive)
REMARK    1  A    between atoms: C_3  and  C_6
REMARK    2  A    between atoms: N_8  and  C_9
REMARK    3  A    between atoms: C_12  and  C_14
REMARK    4  A    between atoms: N_16  and  C_17
REMARK                            x       y       z     vdW  Elec       q    Type
REMARK                         _______ _______ _______ _____ _____    ______ ____
ROOT
ATOM      1  C   UNL     1       3.563   3.477  -0.115  0.00  0.00    +0.255 C 
ATOM      2  O   UNL     1       2.500   4.071  -0.102  0.00  0.00    -0.269 OA
ATOM      3  N   UNL     1       3.585   2.133  -0.021  0.00  0.00    -0.281 N 
ATOM      4  H   UNL     1       4.432   1.665   0.046  0.00  0.00    +0.155 HD
ENDROOT
BRANCH   3   5
ATOM      5  C   UNL     1       2.385   1.412  -0.019  0.00  0.00    +0.036 A 
ATOM      6  C   UNL     1       2.281   0.241   0.724  0.00  0.00    +0.025 A 
ATOM      7  C   UNL     1       1.100  -0.475   0.730  0.00  0.00    +0.029 A 
ATOM      8  C   UNL     1       0.015  -0.025  -0.007  0.00  0.00    +0.067 A 
ATOM      9  C   UNL     1       0.117   1.150  -0.754  0.00  0.00    +0.069 A 
ATOM     10  C   UNL     1       1.303   1.866  -0.758  0.00  0.00    +0.051 A 
ATOM     11  N   UNL     1      -1.115   1.340  -1.377  0.00  0.00    -0.306 N 
ATOM     12  H   UNL     1      -1.347   2.076  -1.963  0.00  0.00    +0.170 HD
ATOM     13  C   UNL     1      -1.929   0.327  -1.025  0.00  0.00    +0.325 A 
ATOM     14  O   UNL     1      -3.080   0.192  -1.397  0.00  0.00    -0.247 OA
ATOM     15  N   UNL     1      -1.277  -0.514  -0.200  0.00  0.00    -0.306 N 
ATOM     16  H   UNL     1      -1.644  -1.321   0.194  0.00  0.00    +0.170 HD
ENDBRANCH   3   5
BRANCH   1  20
ATOM     17  C   UNL     1       7.286   5.094  -0.422  0.00  0.00    +0.073 A 
ATOM     18  C   UNL     1       6.261   6.017  -0.435  0.00  0.00    +0.032 A 
ATOM     19  C   UNL     1       4.971   5.571  -0.337  0.00  0.00    +0.022 A 
ATOM     20  C   UNL     1       4.778   4.200  -0.230  0.00  0.00    +0.076 A 
ATOM     21  S   UNL     1       6.451   3.583  -0.265  0.00  0.00    -0.069 S 
BRANCH  17  24
ATOM     22  C   UNL     1       9.511   4.282  -0.479  0.00  0.00    +0.284 C 
ATOM     23  O   UNL     1       9.087   3.145  -0.376  0.00  0.00    -0.266 OA
ATOM     24  N   UNL     1       8.652   5.320  -0.508  0.00  0.00    -0.273 N 
ATOM     25  H   UNL     1       8.990   6.226  -0.590  0.00  0.00    +0.156 HD
BRANCH  22  28
ATOM     26  C   UNL     1      13.156   4.236  -0.664  0.00  0.00    +0.042 A 
ATOM     27  C   UNL     1      11.929   3.564  -0.552  0.00  0.00    +0.054 A 
ATOM     28  C   UNL     1      10.954   4.521  -0.570  0.00  0.00    +0.189 A 
ATOM     29  O   UNL     1      11.552   5.723  -0.692  0.00  0.00    -0.458 OA
ATOM     30  C   UNL     1      12.880   5.556  -0.744  0.00  0.00    +0.196 A 
ENDBRANCH  22  28
ENDBRANCH  17  24
ENDBRANCH   1  20
TORSDOF 4
