REMARK  Name = ZINC14984363
REMARK  10 active torsions:
REMARK  status: ('A' for Active; 'I' for Inactive)
REMARK    1  A    between atoms: C_1  and  C_2
REMARK    2  A    between atoms: C_2  and  C_4
REMARK    3  A    between atoms: C_2  and  N_25
REMARK    4  A    between atoms: N_11  and  C_14
REMARK    5  A    between atoms: C_14  and  C_15
REMARK    6  A    between atoms: C_18  and  C_21
REMARK    7  A    between atoms: C_21  and  C_22
REMARK    8  A    between atoms: C_22  and  C_23
REMARK    9  A    between atoms: C_22  and  C_24
REMARK   10  A    between atoms: C_26  and  C_28
REMARK                            x       y       z     vdW  Elec       q    Type
REMARK                         _______ _______ _______ _____ _____    ______ ____
ROOT
ATOM      1  C   UNL     1       0.731  -0.503   1.223  0.00  0.00    +0.154 A 
ATOM      2  N   UNL     1       0.274  -0.525   2.450  0.00  0.00    -0.132 NA
ATOM      3  N   UNL     1       1.167  -1.021   3.239  0.00  0.00    -0.134 NA
ATOM      4  C   UNL     1       2.221  -1.334   2.550  0.00  0.00    +0.132 A 
ATOM      5  N   UNL     1       1.973  -1.017   1.261  0.00  0.00    -0.315 N 
ATOM      6  C   UNL     1       2.926  -1.214   0.152  0.00  0.00    +0.106 C 
ATOM      7  C   UNL     1       3.147  -2.730   0.017  0.00  0.00    -0.056 C 
ATOM      8  N   UNL     1       4.090  -3.207   1.002  0.00  0.00    +0.384 N 
ATOM      9  C   UNL     1       3.628  -3.336   2.366  0.00  0.00    -0.071 C 
ATOM     10  C   UNL     1       3.519  -1.950   3.040  0.00  0.00    +0.058 C 
ATOM     11  H   UNL     1       4.881  -2.580   1.001  0.00  0.00    -0.081 HD
ENDROOT
BRANCH   1  13
ATOM     12  C   UNL     1      -0.019   1.526   0.010  0.00  0.00    +0.036 C 
ATOM     13  C   UNL     1       0.002  -0.004   0.002  0.00  0.00    +0.138 C 
BRANCH  13  14
ATOM     14  N   UNL     1      -1.372  -0.511   0.012  0.00  0.00    -0.305 N 
ATOM     15  C   UNL     1      -2.051  -0.643  -1.145  0.00  0.00    +0.217 C 
ATOM     16  O   UNL     1      -1.524  -0.341  -2.194  0.00  0.00    -0.275 OA
ATOM     17  H   UNL     1      -1.794  -0.752   0.852  0.00  0.00    +0.149 HD
BRANCH  15  18
ATOM     18  C   UNL     1      -3.465  -1.164  -1.134  0.00  0.00    +0.079 C 
ATOM     19  C   UNL     1      -3.485  -2.577  -0.541  0.00  0.00    +0.041 C 
ATOM     20  C   UNL     1      -4.912  -3.128  -0.607  0.00  0.00    +0.160 C 
ATOM     21  O   UNL     1      -5.362  -3.120  -1.963  0.00  0.00    -0.380 OA
ATOM     22  C   UNL     1      -5.409  -1.820  -2.555  0.00  0.00    +0.160 C 
ATOM     23  C   UNL     1      -4.003  -1.216  -2.567  0.00  0.00    +0.041 C 
ENDBRANCH  15  18
ENDBRANCH  13  14
ENDBRANCH   1  13
BRANCH   8  24
ATOM     24  C   UNL     1       4.569  -4.525   0.564  0.00  0.00    -0.043 C 
BRANCH  24  25
ATOM     25  C   UNL     1       5.648  -5.004   1.500  0.00  0.00    -0.064 A 
ATOM     26  C   UNL     1       6.971  -4.690   1.250  0.00  0.00    +0.002 A 
ATOM     27  C   UNL     1       7.960  -5.130   2.109  0.00  0.00    +0.004 A 
ATOM     28  C   UNL     1       7.627  -5.883   3.219  0.00  0.00    -0.047 A 
ATOM     29  C   UNL     1       6.304  -6.196   3.470  0.00  0.00    +0.004 A 
ATOM     30  C   UNL     1       5.314  -5.753   2.614  0.00  0.00    +0.002 A 
BRANCH  28  31
ATOM     31  C   UNL     1       8.706  -6.363   4.155  0.00  0.00    +0.038 C 
BRANCH  31  32
ATOM     32  C   UNL     1       8.934  -5.318   5.250  0.00  0.00    -0.013 C 
ATOM     33  C   UNL     1       7.675  -5.199   6.111  0.00  0.00    +0.007 C 
ATOM     34  C   UNL     1      10.112  -5.747   6.127  0.00  0.00    +0.007 C 
ENDBRANCH  31  32
ENDBRANCH  28  31
ENDBRANCH  24  25
ENDBRANCH   8  24
TORSDOF 7
