REMARK  Name = ZINC09508874
REMARK  11 active torsions:
REMARK  status: ('A' for Active; 'I' for Inactive)
REMARK    1  A    between atoms: C_3  and  N_16
REMARK    2  A    between atoms: C_5  and  S_7
REMARK    3  A    between atoms: S_7  and  N_10
REMARK    4  A    between atoms: C_17  and  C_19
REMARK    5  A    between atoms: C_19  and  N_20
REMARK    6  A    between atoms: N_20  and  C_21
REMARK    7  A    between atoms: C_23  and  N_31
REMARK    8  A    between atoms: C_26  and  N_27
REMARK    9  A    between atoms: N_27  and  C_28
REMARK   10  A    between atoms: C_28  and  C_29
REMARK   11  A    between atoms: C_29  and  O_30
REMARK                            x       y       z     vdW  Elec       q    Type
REMARK                         _______ _______ _______ _____ _____    ______ ____
ROOT
ATOM      1  N   UNL     1       3.584   2.123  -0.021  0.00  0.00    -0.284 N 
ATOM      2  C   UNL     1       3.569   3.468  -0.116  0.00  0.00    +0.234 C 
ATOM      3  O   UNL     1       2.513   4.065  -0.103  0.00  0.00    -0.274 OA
ATOM      4  H   UNL     1       4.429   1.652   0.045  0.00  0.00    +0.155 HD
ENDROOT
BRANCH   1   7
ATOM      5  C   UNL     1       0.112   1.159  -0.752  0.00  0.00    +0.004 A 
ATOM      6  C   UNL     1       1.298   1.867  -0.756  0.00  0.00    +0.023 A 
ATOM      7  C   UNL     1       2.381   1.409  -0.019  0.00  0.00    +0.035 A 
ATOM      8  C   UNL     1       2.269   0.238   0.720  0.00  0.00    +0.051 A 
ATOM      9  C   UNL     1       1.081  -0.466   0.720  0.00  0.00    +0.107 A 
ATOM     10  C   UNL     1       0.003  -0.006  -0.015  0.00  0.00    +0.028 A 
BRANCH   9  11
ATOM     11  S   UNL     1       0.937  -1.951   1.657  0.00  0.00    +0.061 S 
ATOM     12  O   UNL     1      -0.102  -2.711   1.056  0.00  0.00    -0.153 OA
ATOM     13  O   UNL     1       2.255  -2.457   1.820  0.00  0.00    -0.153 OA
BRANCH  11  14
ATOM     14  N   UNL     1       0.402  -1.528   3.166  0.00  0.00    -0.177 NA
ATOM     15  C   UNL     1       1.357  -1.202   4.234  0.00  0.00    +0.109 C 
ATOM     16  C   UNL     1       1.001   0.171   4.812  0.00  0.00    +0.017 C 
ATOM     17  C   UNL     1      -0.464   0.169   5.256  0.00  0.00    +0.003 C 
ATOM     18  C   UNL     1      -1.365  -0.096   4.048  0.00  0.00    +0.017 C 
ATOM     19  C   UNL     1      -1.036  -1.466   3.461  0.00  0.00    +0.109 C 
ENDBRANCH  11  14
ENDBRANCH   9  11
ENDBRANCH   1   7
BRANCH   2  20
ATOM     20  C   UNL     1       4.863   4.229  -0.238  0.00  0.00    +0.198 C 
BRANCH  20  21
ATOM     21  N   UNL     1       4.580   5.664  -0.326  0.00  0.00    -0.334 N 
ATOM     22  H   UNL     1       3.663   5.979  -0.300  0.00  0.00    +0.147 HD
BRANCH  21  23
ATOM     23  C   UNL     1       5.632   6.580  -0.446  0.00  0.00    +0.051 A 
ATOM     24  C   UNL     1       6.943   6.130  -0.489  0.00  0.00    +0.057 A 
ATOM     25  C   UNL     1       7.981   7.036  -0.608  0.00  0.00    +0.128 A 
ATOM     26  C   UNL     1       7.716   8.391  -0.685  0.00  0.00    +0.034 A 
ATOM     27  C   UNL     1       6.411   8.848  -0.643  0.00  0.00    +0.027 A 
ATOM     28  C   UNL     1       5.364   7.946  -0.529  0.00  0.00    +0.048 A 
BRANCH  25  29
ATOM     29  N   UNL     1       9.379   6.555  -0.654  0.00  0.00    +0.056 N 
ATOM     30  O   UNL     1       9.613   5.370  -0.587  0.00  0.00    -0.126 OA
ATOM     31  O   UNL     1      10.288   7.345  -0.758  0.00  0.00    -0.126 OA
ENDBRANCH  25  29
BRANCH  28  32
ATOM     32  N   UNL     1       4.042   8.406  -0.492  0.00  0.00    -0.340 N 
ATOM     33  H   UNL     1       3.311   7.774  -0.409  0.00  0.00    +0.146 HD
BRANCH  32  34
ATOM     34  C   UNL     1       3.763   9.841  -0.580  0.00  0.00    +0.129 C 
BRANCH  34  35
ATOM     35  C   UNL     1       2.252  10.072  -0.517  0.00  0.00    +0.174 C 
BRANCH  35  36
ATOM     36  O   UNL     1       1.762   9.669   0.764  0.00  0.00    -0.393 OA
ATOM     37  H   UNL     1       0.808   9.787   0.875  0.00  0.00    +0.209 HD
ENDBRANCH  35  36
ENDBRANCH  34  35
ENDBRANCH  32  34
ENDBRANCH  28  32
ENDBRANCH  21  23
ENDBRANCH  20  21
ENDBRANCH   2  20
TORSDOF 11
