REMARK  Name = ZINC01393283
REMARK  8 active torsions:
REMARK  status: ('A' for Active; 'I' for Inactive)
REMARK    1  A    between atoms: C_4  and  N_7
REMARK    2  A    between atoms: C_19  and  C_21
REMARK    3  A    between atoms: C_21  and  C_22
REMARK    4  A    between atoms: C_22  and  C_24
REMARK    5  A    between atoms: C_22  and  O_36
REMARK    6  A    between atoms: C_24  and  N_25
REMARK    7  A    between atoms: N_25  and  C_26
REMARK    8  A    between atoms: C_29  and  C_31
REMARK                            x       y       z     vdW  Elec       q    Type
REMARK                         _______ _______ _______ _____ _____    ______ ____
ROOT
ATOM      1  N   UNL     1       2.434   1.960  -0.640  0.00  0.00    -0.269 N 
ATOM      2  C   UNL     1       2.856   3.231  -0.490  0.00  0.00    +0.307 C 
ATOM      3  O   UNL     1       2.049   4.121  -0.300  0.00  0.00    -0.252 OA
ATOM      4  N   UNL     1       4.172   3.516  -0.550  0.00  0.00    -0.278 N 
ATOM      5  C   UNL     1       5.171   2.467  -0.816  0.00  0.00    +0.114 C 
ATOM      6  C   UNL     1       5.842   2.785  -2.151  0.00  0.00    +0.054 C 
ATOM      7  C   UNL     1       6.252   4.233  -2.213  0.00  0.00    -0.041 A 
ATOM      8  C   UNL     1       7.221   4.589  -3.144  0.00  0.00    +0.004 A 
ATOM      9  C   UNL     1       7.637   5.899  -3.259  0.00  0.00    +0.000 A 
ATOM     10  C   UNL     1       7.085   6.869  -2.443  0.00  0.00    +0.000 A 
ATOM     11  C   UNL     1       6.125   6.519  -1.517  0.00  0.00    +0.006 A 
ATOM     12  C   UNL     1       5.709   5.200  -1.397  0.00  0.00    -0.024 A 
ATOM     13  C   UNL     1       4.666   4.884  -0.360  0.00  0.00    +0.110 C 
ATOM     14  H   UNL     1       3.079   1.243  -0.741  0.00  0.00    +0.156 HD
ENDROOT
BRANCH   1  18
ATOM     15  C   UNL     1      -1.645   1.110  -0.669  0.00  0.00    +0.000 A 
ATOM     16  C   UNL     1      -1.160   2.136   0.120  0.00  0.00    +0.002 A 
ATOM     17  C   UNL     1       0.192   2.421   0.132  0.00  0.00    +0.023 A 
ATOM     18  C   UNL     1       1.064   1.674  -0.649  0.00  0.00    +0.035 A 
ATOM     19  C   UNL     1       0.574   0.643  -1.440  0.00  0.00    +0.023 A 
ATOM     20  C   UNL     1      -0.779   0.364  -1.448  0.00  0.00    +0.002 A 
ENDBRANCH   1  18
BRANCH  13  21
ATOM     21  C   UNL     1       3.503   5.869  -0.493  0.00  0.00    +0.060 C 
BRANCH  21  22
ATOM     22  C   UNL     1       2.891   5.750  -1.890  0.00  0.00    +0.134 C 
BRANCH  22  23
ATOM     23  O   UNL     1       3.791   6.304  -2.852  0.00  0.00    -0.390 OA
ATOM     24  H   UNL     1       3.901   7.262  -2.782  0.00  0.00    +0.210 HD
ENDBRANCH  22  23
BRANCH  22  25
ATOM     25  C   UNL     1       1.566   6.513  -1.933  0.00  0.00    +0.134 C 
BRANCH  25  26
ATOM     26  N   UNL     1       0.922   6.301  -3.232  0.00  0.00    -0.327 N 
ATOM     27  H   UNL     1       1.350   5.744  -3.900  0.00  0.00    +0.148 HD
BRANCH  26  28
ATOM     28  C   UNL     1      -0.303   6.899  -3.506  0.00  0.00    +0.115 A 
ATOM     29  C   UNL     1      -0.907   6.699  -4.745  0.00  0.00    +0.079 A 
ATOM     30  C   UNL     1      -2.128   7.295  -5.002  0.00  0.00    +0.037 A 
ATOM     31  C   UNL     1      -2.702   8.085  -4.013  0.00  0.00    +0.072 A 
ATOM     32  C   UNL     1      -2.045   8.245  -2.810  0.00  0.00    +0.096 A 
ATOM     33 CL   UNL     1      -0.141   5.708  -5.947  0.00  0.00    -0.080 Cl
ATOM     34  N   UNL     1      -0.847   7.670  -2.520  0.00  0.00    -0.348 N 
ATOM     35  H   UNL     1      -0.381   7.806  -1.616  0.00  0.00    +0.167 HD
BRANCH  31  36
ATOM     36  C   UNL     1      -4.029   8.759  -4.251  0.00  0.00    +0.419 C 
ATOM     37  F   UNL     1      -4.391   9.490  -3.115  0.00  0.00    -0.166 F 
ATOM     38  F   UNL     1      -3.923   9.622  -5.347  0.00  0.00    -0.166 F 
ATOM     39  F   UNL     1      -5.003   7.790  -4.513  0.00  0.00    -0.166 F 
ENDBRANCH  31  36
ENDBRANCH  26  28
ENDBRANCH  25  26
ENDBRANCH  22  25
ENDBRANCH  21  22
ENDBRANCH  13  21
TORSDOF 8
