REMARK  Name = ZINC08997328
REMARK  6 active torsions:
REMARK  status: ('A' for Active; 'I' for Inactive)
REMARK    1  A    between atoms: C_1  and  C_2
REMARK    2  A    between atoms: C_5  and  N_9
REMARK    3  A    between atoms: C_7  and  C_8
REMARK    4  A    between atoms: C_10  and  C_25
REMARK    5  A    between atoms: C_12  and  C_15
REMARK    6  A    between atoms: C_13  and  C_14
REMARK                            x       y       z     vdW  Elec       q    Type
REMARK                         _______ _______ _______ _____ _____    ______ ____
ROOT
ATOM      1  N   UNL     1      -0.845   2.777  -0.426  0.00  0.00    -0.317 N 
ATOM      2  C   UNL     1      -1.016   1.477  -0.817  0.00  0.00    +0.022 A 
ATOM      3  C   UNL     1       0.157   0.830  -0.730  0.00  0.00    +0.031 A 
ATOM      4  C   UNL     1       1.140   1.815  -0.254  0.00  0.00    -0.003 A 
ATOM      5  C   UNL     1       0.439   3.000  -0.088  0.00  0.00    +0.028 A 
ATOM      6  C   UNL     1       1.014   4.310   0.387  0.00  0.00    +0.064 C 
ATOM      7  C   UNL     1      -2.317   0.866  -1.271  0.00  0.00    +0.064 C 
ENDROOT
BRANCH   4   8
ATOM      8  C   UNL     1       2.518   1.598  -0.013  0.00  0.00    +0.028 C 
ATOM      9  C   UNL     1       2.932   0.464   0.666  0.00  0.00    +0.101 C 
ATOM     10  C   UNL     1       1.966  -0.433   1.328  0.00  0.00    +0.274 C 
ATOM     11  O   UNL     1       0.772  -0.199   1.295  0.00  0.00    -0.268 OA
ATOM     12  N   UNL     1       2.441  -1.522   1.966  0.00  0.00    -0.154 NA
ATOM     13  C   UNL     1       3.754  -1.789   2.014  0.00  0.00    +0.164 C 
ATOM     14  S   UNL     1       4.266  -3.190   2.854  0.00  0.00    -0.016 S 
ATOM     15  N   UNL     1       4.688  -1.016   1.441  0.00  0.00    -0.262 N 
ATOM     16  C   UNL     1       4.358   0.103   0.764  0.00  0.00    +0.255 C 
ATOM     17  O   UNL     1       5.215   0.795   0.247  0.00  0.00    -0.270 OA
ATOM     18  H   UNL     1       5.750  -1.290   1.518  0.00  0.00    +0.157 HD
ENDBRANCH   4   8
BRANCH   1  23
ATOM     19  C   UNL     1      -4.962   6.680  -0.274  0.00  0.00    +0.044 C 
ATOM     20  C   UNL     1      -3.869   5.643  -0.315  0.00  0.00    -0.047 A 
ATOM     21  C   UNL     1      -2.812   5.788  -1.196  0.00  0.00    +0.005 A 
ATOM     22  C   UNL     1      -1.809   4.840  -1.235  0.00  0.00    +0.026 A 
ATOM     23  C   UNL     1      -1.861   3.740  -0.389  0.00  0.00    +0.047 A 
ATOM     24  C   UNL     1      -2.925   3.595   0.491  0.00  0.00    +0.029 A 
ATOM     25  C   UNL     1      -3.924   4.549   0.529  0.00  0.00    -0.046 A 
ATOM     26  C   UNL     1      -5.077   4.395   1.487  0.00  0.00    +0.044 C 
ENDBRANCH   1  23
TORSDOF 2
