REMARK  Name = ZINC40798934
REMARK  4 active torsions:
REMARK  status: ('A' for Active; 'I' for Inactive)
REMARK    1  A    between atoms: C_1  and  C_2
REMARK    2  A    between atoms: C_10  and  N_27
REMARK    3  A    between atoms: C_11  and  N_15
REMARK    4  A    between atoms: C_19  and  C_22
REMARK                            x       y       z     vdW  Elec       q    Type
REMARK                         _______ _______ _______ _____ _____    ______ ____
ROOT
ATOM      1  C   UNL     1      -0.465   1.474  -0.133  0.00  0.00    +0.045 C 
ATOM      2  C   UNL     1      -0.316  -0.022  -0.028  0.00  0.00    -0.032 A 
ATOM      3  C   UNL     1       0.038  -0.608   1.180  0.00  0.00    +0.008 A 
ATOM      4  C   UNL     1       0.164  -1.985   1.233  0.00  0.00    +0.044 A 
ATOM      5  C   UNL     1      -0.066  -2.730   0.082  0.00  0.00    +0.124 A 
ATOM      6  N   UNL     1      -0.402  -2.134  -1.052  0.00  0.00    -0.240 NA
ATOM      7  C   UNL     1      -0.535  -0.823  -1.131  0.00  0.00    +0.116 A 
ATOM      8  N   UNL     1       0.058  -4.116   0.121  0.00  0.00    -0.284 N 
ATOM      9  C   UNL     1      -0.043  -4.857  -1.052  0.00  0.00    +0.127 A 
ATOM     10  C   UNL     1      -0.136  -6.249  -1.005  0.00  0.00    +0.104 A 
ATOM     11  C   UNL     1      -0.235  -6.944  -2.212  0.00  0.00    +0.150 A 
ATOM     12  N   UNL     1      -0.237  -6.258  -3.353  0.00  0.00    -0.221 NA
ATOM     13  C   UNL     1      -0.148  -4.943  -3.352  0.00  0.00    +0.200 A 
ATOM     14  N   UNL     1      -0.058  -4.249  -2.236  0.00  0.00    -0.333 N 
ATOM     15  H   UNL     1       0.215  -4.565   0.966  0.00  0.00    +0.155 HD
ATOM     16  H   UNL     1       0.002  -3.282  -2.278  0.00  0.00    +0.168 HD
ENDROOT
BRANCH  11  17
ATOM     17  N   UNL     1      -0.330  -8.332  -2.223  0.00  0.00    -0.282 N 
ATOM     18  C   UNL     1      -0.428  -9.013  -3.432  0.00  0.00    +0.142 A 
ATOM     19  C   UNL     1      -0.528 -10.402  -3.435  0.00  0.00    +0.081 A 
ATOM     20  C   UNL     1      -0.625 -11.067  -4.645  0.00  0.00    +0.037 A 
ATOM     21  C   UNL     1      -0.619 -10.318  -5.815  0.00  0.00    +0.074 A 
ATOM     22  C   UNL     1      -0.517  -8.943  -5.737  0.00  0.00    +0.125 A 
ATOM     23  N   UNL     1      -0.431  -8.335  -4.569  0.00  0.00    -0.238 NA
ATOM     24 CL   UNL     1      -0.530 -11.288  -1.942  0.00  0.00    -0.080 Cl
ATOM     25  H   UNL     1      -0.327  -8.824  -1.387  0.00  0.00    +0.155 HD
BRANCH  21  26
ATOM     26  C   UNL     1      -0.722 -10.999  -7.155  0.00  0.00    +0.419 C 
ATOM     27  F   UNL     1      -2.069 -11.115  -7.516  0.00  0.00    -0.166 F 
ATOM     28  F   UNL     1      -0.045 -10.241  -8.117  0.00  0.00    -0.166 F 
ATOM     29  F   UNL     1      -0.148 -12.272  -7.076  0.00  0.00    -0.166 F 
ENDBRANCH  21  26
ENDBRANCH  11  17
BRANCH  10  30
ATOM     30  N   UNL     1      -0.129  -6.931   0.221  0.00  0.00    -0.353 N 
ATOM     31  H   UNL     1      -0.059  -6.435   1.052  0.00  0.00    +0.143 HD
ATOM     32  H   UNL     1      -0.195  -7.899   0.238  0.00  0.00    +0.143 HD
ENDBRANCH  10  30
TORSDOF 3
