REMARK  Name = ZINC59719888
REMARK  11 active torsions:
REMARK  status: ('A' for Active; 'I' for Inactive)
REMARK    1  A    between atoms: C_1  and  C_2
REMARK    2  A    between atoms: C_5  and  N_8
REMARK    3  A    between atoms: C_9  and  C_29
REMARK    4  A    between atoms: N_11  and  C_17
REMARK    5  A    between atoms: C_12  and  C_14
REMARK    6  A    between atoms: C_14  and  C_16
REMARK    7  A    between atoms: C_32  and  O_37
REMARK    8  A    between atoms: C_33  and  O_35
REMARK    9  A    between atoms: O_35  and  C_36
REMARK   10  A    between atoms: O_37  and  C_38
REMARK   11  A    between atoms: C_38  and  C_39
REMARK                            x       y       z     vdW  Elec       q    Type
REMARK                         _______ _______ _______ _____ _____    ______ ____
ROOT
ATOM      1  N   UNL     1      -0.251  -4.401  -0.214  0.00  0.00    -0.197 N 
ATOM      2  C   UNL     1      -0.325  -5.113   1.072  0.00  0.00    +0.221 C 
ATOM      3  N   UNL     1       0.301  -6.417   0.799  0.00  0.00    -0.256 N 
ATOM      4  C   UNL     1       0.684  -6.400  -0.546  0.00  0.00    +0.188 C 
ATOM      5  N   UNL     1       0.370  -5.273  -1.116  0.00  0.00    -0.158 NA
ENDROOT
BRANCH   3   6
ATOM      6  C   UNL     1       0.479  -7.466   1.706  0.00  0.00    +0.040 A 
ATOM      7  C   UNL     1       1.531  -7.428   2.615  0.00  0.00    +0.026 A 
ATOM      8  C   UNL     1       1.711  -8.460   3.513  0.00  0.00    +0.029 A 
ATOM      9  C   UNL     1       0.841  -9.540   3.510  0.00  0.00    +0.067 A 
ATOM     10  C   UNL     1      -0.216  -9.582   2.599  0.00  0.00    +0.069 A 
ATOM     11  C   UNL     1      -0.398  -8.541   1.702  0.00  0.00    +0.051 A 
ATOM     12  N   UNL     1      -0.905 -10.770   2.836  0.00  0.00    -0.306 N 
ATOM     13  H   UNL     1      -1.690 -11.076   2.355  0.00  0.00    +0.170 HD
ATOM     14  C   UNL     1      -0.295 -11.421   3.844  0.00  0.00    +0.325 A 
ATOM     15  O   UNL     1      -0.646 -12.494   4.298  0.00  0.00    -0.247 OA
ATOM     16  N   UNL     1       0.762 -10.706   4.272  0.00  0.00    -0.306 N 
ATOM     17  H   UNL     1       1.365 -10.958   4.989  0.00  0.00    +0.170 HD
ENDBRANCH   3   6
BRANCH   1  22
ATOM     18  C   UNL     1      -2.132   0.834  -1.309  0.00  0.00    +0.044 C 
ATOM     19  C   UNL     1      -1.632  -0.558  -1.018  0.00  0.00    -0.050 A 
ATOM     20  C   UNL     1      -1.178  -1.357  -2.051  0.00  0.00    +0.005 A 
ATOM     21  C   UNL     1      -0.719  -2.633  -1.788  0.00  0.00    +0.025 A 
ATOM     22  C   UNL     1      -0.713  -3.113  -0.484  0.00  0.00    +0.054 A 
ATOM     23  C   UNL     1      -1.170  -2.306   0.552  0.00  0.00    +0.025 A 
ATOM     24  C   UNL     1      -1.623  -1.030   0.282  0.00  0.00    +0.005 A 
ENDBRANCH   1  22
BRANCH   2  25
ATOM     25  C   UNL     1      -1.761  -5.292   1.494  0.00  0.00    -0.003 A 
ATOM     26  C   UNL     1      -2.655  -5.918   0.647  0.00  0.00    +0.011 A 
ATOM     27  C   UNL     1      -3.973  -6.085   1.029  0.00  0.00    +0.050 A 
ATOM     28  C   UNL     1      -4.400  -5.624   2.264  0.00  0.00    +0.163 A 
ATOM     29  C   UNL     1      -3.499  -4.993   3.117  0.00  0.00    +0.162 A 
ATOM     30  C   UNL     1      -2.179  -4.834   2.730  0.00  0.00    +0.056 A 
BRANCH  29  31
ATOM     31  O   UNL     1      -3.913  -4.539   4.330  0.00  0.00    -0.491 OA
ATOM     32  C   UNL     1      -2.934  -3.902   5.153  0.00  0.00    +0.277 C 
ENDBRANCH  29  31
BRANCH  28  33
ATOM     33  O   UNL     1      -5.697  -5.786   2.641  0.00  0.00    -0.479 OA
BRANCH  33  34
ATOM     34  C   UNL     1      -6.565  -6.442   1.714  0.00  0.00    +0.324 C 
BRANCH  34  35
ATOM     35  C   UNL     1      -7.950  -6.531   2.301  0.00  0.00    +0.248 C 
ATOM     36  O   UNL     1      -8.172  -6.078   3.404  0.00  0.00    -0.272 OA
ATOM     37  N   UNL     1      -8.942  -7.114   1.599  0.00  0.00    -0.327 N 
ATOM     38  H   UNL     1      -8.765  -7.477   0.718  0.00  0.00    +0.145 HD
ATOM     39  H   UNL     1      -9.834  -7.171   1.977  0.00  0.00    +0.145 HD
ENDBRANCH  34  35
ENDBRANCH  33  34
ENDBRANCH  28  33
ENDBRANCH   2  25
BRANCH   4  40
ATOM     40  C   UNL     1       1.327  -7.475  -1.206  0.00  0.00    +0.194 C 
ATOM     41  O   UNL     1       1.617  -8.480  -0.589  0.00  0.00    -0.289 OA
ATOM     42  C   UNL     1       1.652  -7.372  -2.674  0.00  0.00    +0.095 C 
ENDBRANCH   4  40
TORSDOF 8
