REMARK  Name = ZINC59303731
REMARK  8 active torsions:
REMARK  status: ('A' for Active; 'I' for Inactive)
REMARK    1  A    between atoms: C_1  and  C_2
REMARK    2  A    between atoms: C_6  and  C_29
REMARK    3  A    between atoms: C_7  and  N_8
REMARK    4  A    between atoms: C_9  and  C_28
REMARK    5  A    between atoms: C_11  and  C_14
REMARK    6  A    between atoms: C_12  and  C_13
REMARK    7  A    between atoms: N_15  and  N_16
REMARK    8  A    between atoms: C_17  and  C_19
REMARK                            x       y       z     vdW  Elec       q    Type
REMARK                         _______ _______ _______ _____ _____    ______ ____
ROOT
ATOM      1  N   UNL     1       0.025  -0.013   2.419  0.00  0.00    -0.317 N 
ATOM      2  C   UNL     1       1.145   0.394   3.087  0.00  0.00    +0.022 A 
ATOM      3  C   UNL     1       0.773   1.026   4.215  0.00  0.00    +0.032 A 
ATOM      4  C   UNL     1      -0.693   1.005   4.243  0.00  0.00    +0.016 A 
ATOM      5  C   UNL     1      -1.088   0.357   3.108  0.00  0.00    +0.030 A 
ATOM      6  C   UNL     1      -2.513   0.093   2.692  0.00  0.00    +0.064 C 
ATOM      7  C   UNL     1       2.565   0.171   2.634  0.00  0.00    +0.064 C 
ENDROOT
BRANCH   1  14
ATOM      8  C   UNL     1      -0.018   1.503   0.010  0.00  0.00    +0.046 C 
ATOM      9  C   UNL     1       0.002  -0.004   0.002  0.00  0.00    -0.026 A 
ATOM     10  C   UNL     1       0.006  -0.689  -1.198  0.00  0.00    +0.005 A 
ATOM     11  C   UNL     1       0.025  -2.071  -1.206  0.00  0.00    +0.001 A 
ATOM     12  C   UNL     1       0.041  -2.773  -0.014  0.00  0.00    +0.005 A 
ATOM     13  C   UNL     1       0.037  -2.094   1.188  0.00  0.00    -0.026 A 
ATOM     14  C   UNL     1       0.023  -0.705   1.200  0.00  0.00    +0.052 A 
ATOM     15  C   UNL     1       0.053  -2.859   2.487  0.00  0.00    +0.046 C 
ENDBRANCH   1  14
BRANCH   4  16
ATOM     16  C   UNL     1      -1.565   1.576   5.285  0.00  0.00    +0.140 C 
ATOM     17  N   UNL     1      -2.855   1.481   5.176  0.00  0.00    -0.187 NA
BRANCH  17  18
ATOM     18  N   UNL     1      -3.684   2.023   6.166  0.00  0.00    -0.200 N 
ATOM     19  C   UNL     1      -5.024   1.924   6.052  0.00  0.00    +0.299 C 
ATOM     20  O   UNL     1      -5.513   1.364   5.088  0.00  0.00    -0.265 OA
ATOM     21  H   UNL     1      -3.295   2.469   6.934  0.00  0.00    +0.178 HD
BRANCH  19  22
ATOM     22  C   UNL     1      -5.893   2.493   7.091  0.00  0.00    +0.192 A 
ATOM     23  C   UNL     1      -7.251   2.449   7.084  0.00  0.00    +0.063 A 
ATOM     24  C   UNL     1      -7.684   3.132   8.303  0.00  0.00    +0.021 A 
ATOM     25  C   UNL     1      -8.929   3.418   8.868  0.00  0.00    +0.011 A 
ATOM     26  C   UNL     1      -8.995   4.094  10.054  0.00  0.00    +0.001 A 
ATOM     27  C   UNL     1      -7.834   4.497  10.699  0.00  0.00    +0.004 A 
ATOM     28  C   UNL     1      -6.596   4.225  10.158  0.00  0.00    +0.047 A 
ATOM     29  C   UNL     1      -6.504   3.539   8.952  0.00  0.00    +0.136 A 
ATOM     30  O   UNL     1      -5.463   3.133   8.198  0.00  0.00    -0.450 OA
ENDBRANCH  19  22
ENDBRANCH  17  18
ENDBRANCH   4  16
TORSDOF 4
