REMARK  Name = ZINC29603549
REMARK  8 active torsions:
REMARK  status: ('A' for Active; 'I' for Inactive)
REMARK    1  A    between atoms: C_1  and  C_2
REMARK    2  A    between atoms: C_6  and  N_11
REMARK    3  A    between atoms: N_11  and  C_12
REMARK    4  A    between atoms: C_12  and  C_14
REMARK    5  A    between atoms: C_12  and  C_15
REMARK    6  A    between atoms: N_20  and  C_21
REMARK    7  A    between atoms: C_21  and  C_22
REMARK    8  A    between atoms: C_22  and  C_23
REMARK                            x       y       z     vdW  Elec       q    Type
REMARK                         _______ _______ _______ _____ _____    ______ ____
ROOT
ATOM      1  C   UNL     1      -4.814   3.888   0.673  0.00  0.00    +0.240 C 
ATOM      2  O   UNL     1      -4.571   5.009   1.066  0.00  0.00    -0.273 OA
ATOM      3  N   UNL     1      -6.061   3.390   0.787  0.00  0.00    -0.239 N 
ATOM      4  C   UNL     1      -7.038   4.138   1.338  0.00  0.00    +0.306 C 
ATOM      5  O   UNL     1      -6.794   5.261   1.732  0.00  0.00    -0.252 OA
ATOM      6  N   UNL     1      -8.285   3.639   1.452  0.00  0.00    -0.299 N 
ATOM      7  H   UNL     1      -6.282   2.373   0.430  0.00  0.00    +0.159 HD
ATOM      8  H   UNL     1      -8.506   2.623   1.095  0.00  0.00    +0.150 HD
ENDROOT
BRANCH   1   9
ATOM      9  C   UNL     1      -3.722   3.052   0.057  0.00  0.00    +0.154 C 
ATOM     10  C   UNL     1      -4.107   2.688  -1.378  0.00  0.00    +0.038 C 
BRANCH   9  11
ATOM     11  N   UNL     1      -2.471   3.813   0.048  0.00  0.00    -0.333 N 
ATOM     12  H   UNL     1      -2.495   4.913   0.054  0.00  0.00    +0.147 HD
BRANCH  11  18
ATOM     13  C   UNL     1       4.730   2.581  -0.029  0.00  0.00    +0.109 C 
ATOM     14  C   UNL     1       3.224   2.546  -0.015  0.00  0.00    +0.194 A 
ATOM     15  N   UNL     1       2.457   3.595  -0.002  0.00  0.00    -0.213 NA
ATOM     16  C   UNL     1       1.158   3.189   0.008  0.00  0.00    +0.111 A 
ATOM     17  C   UNL     1      -0.064   3.863   0.024  0.00  0.00    +0.054 A 
ATOM     18  C   UNL     1      -1.244   3.142   0.032  0.00  0.00    +0.030 A 
ATOM     19  C   UNL     1      -1.215   1.749   0.017  0.00  0.00    +0.026 A 
ATOM     20  C   UNL     1      -0.013   1.076   0.008  0.00  0.00    +0.050 A 
ATOM     21  C   UNL     1       1.179   1.786   0.000  0.00  0.00    +0.155 A 
ATOM     22  O   UNL     1       2.482   1.427  -0.014  0.00  0.00    -0.440 OA
ENDBRANCH  11  18
ENDBRANCH   9  11
ENDBRANCH   1   9
BRANCH   6  23
ATOM     23  C   UNL     1      -9.347   4.452   2.051  0.00  0.00    +0.111 C 
BRANCH  23  24
ATOM     24  C   UNL     1     -10.654   3.657   2.060  0.00  0.00    +0.061 C 
BRANCH  24  25
ATOM     25  C   UNL     1     -11.746   4.493   2.676  0.00  0.00    -0.009 A 
ATOM     26  C   UNL     1     -12.602   5.356   2.076  0.00  0.00    +0.011 A 
ATOM     27  C   UNL     1     -13.537   6.020   2.849  0.00  0.00    +0.008 A 
ATOM     28  C   UNL     1     -13.563   5.795   4.185  0.00  0.00    +0.045 A 
ATOM     29  S   UNL     1     -12.243   4.610   4.387  0.00  0.00    -0.102 S 
ENDBRANCH  24  25
ENDBRANCH  23  24
ENDBRANCH   6  23
TORSDOF 6
