REMARK  Name = ZINC02395991
REMARK  5 active torsions:
REMARK  status: ('A' for Active; 'I' for Inactive)
REMARK    1  A    between atoms: C_1  and  C_2
REMARK    2  A    between atoms: C_2  and  O_3
REMARK    3  A    between atoms: O_3  and  C_4
REMARK    4  A    between atoms: C_7  and  C_10
REMARK    5  A    between atoms: C_13  and  C_22
REMARK                            x       y       z     vdW  Elec       q    Type
REMARK                         _______ _______ _______ _____ _____    ______ ____
ROOT
ATOM      1  C   UNL     1       1.109  -6.040  -1.847  0.00  0.00    +0.106 C 
ATOM      2  C   UNL     1       0.043  -6.524  -2.836  0.00  0.00    +0.059 C 
ATOM      3  C   UNL     1       0.124  -8.049  -2.980  0.00  0.00    +0.147 C 
ATOM      4  N   UNL     1       1.517  -8.426  -3.222  0.00  0.00    -0.224 N 
ATOM      5  C   UNL     1       2.581  -7.635  -2.946  0.00  0.00    +0.216 A 
ATOM      6  N   UNL     1       3.666  -8.278  -3.287  0.00  0.00    -0.180 NA
ATOM      7  C   UNL     1       3.336  -9.480  -3.781  0.00  0.00    +0.233 A 
ATOM      8  N   UNL     1       2.028  -9.609  -3.758  0.00  0.00    -0.132 NA
ATOM      9  N   UNL     1       4.236 -10.440  -4.246  0.00  0.00    -0.326 N 
ATOM     10  N   UNL     1       2.442  -6.370  -2.387  0.00  0.00    -0.307 N 
ATOM     11  H   UNL     1       5.189 -10.261  -4.226  0.00  0.00    +0.145 HD
ATOM     12  H   UNL     1       3.909 -11.287  -4.589  0.00  0.00    +0.145 HD
ATOM     13  H   UNL     1       3.178  -5.739  -2.357  0.00  0.00    +0.149 HD
ENDROOT
BRANCH   3  14
ATOM     14  C   UNL     1      -0.731  -8.493  -4.138  0.00  0.00    +0.031 A 
ATOM     15  C   UNL     1      -0.464  -8.029  -5.415  0.00  0.00    +0.130 A 
ATOM     16  C   UNL     1      -1.250  -8.438  -6.479  0.00  0.00    +0.039 A 
ATOM     17  C   UNL     1      -2.301  -9.310  -6.265  0.00  0.00    +0.004 A 
ATOM     18  C   UNL     1      -2.568  -9.773  -4.991  0.00  0.00    +0.020 A 
ATOM     19  C   UNL     1      -1.780  -9.370  -3.928  0.00  0.00    +0.049 A 
ATOM     20 CL   UNL     1      -2.111  -9.958  -2.329  0.00  0.00    -0.083 Cl
ATOM     21  F   UNL     1       0.564  -7.177  -5.623  0.00  0.00    -0.205 F 
ENDBRANCH   3  14
BRANCH   1  25
ATOM     22  C   UNL     1       0.777  -1.810  -1.336  0.00  0.00    +0.121 A 
ATOM     23  C   UNL     1       0.243  -2.669  -0.386  0.00  0.00    +0.046 A 
ATOM     24  C   UNL     1       0.351  -4.036  -0.554  0.00  0.00    +0.009 A 
ATOM     25  C   UNL     1       0.992  -4.548  -1.667  0.00  0.00    -0.027 A 
ATOM     26  C   UNL     1       1.525  -3.694  -2.615  0.00  0.00    +0.009 A 
ATOM     27  C   UNL     1       1.414  -2.327  -2.455  0.00  0.00    +0.046 A 
BRANCH  22  28
ATOM     28  O   UNL     1       0.671  -0.465  -1.174  0.00  0.00    -0.492 OA
BRANCH  28  30
ATOM     29  C   UNL     1      -0.019   1.526   0.010  0.00  0.00    +0.048 C 
ATOM     30  C   UNL     1       0.002  -0.004   0.002  0.00  0.00    +0.225 C 
ENDBRANCH  28  30
ENDBRANCH  22  28
ENDBRANCH   1  25
TORSDOF 4
