REMARK  Name = ZINC67536160
REMARK  9 active torsions:
REMARK  status: ('A' for Active; 'I' for Inactive)
REMARK    1  A    between atoms: C_1  and  C_2
REMARK    2  A    between atoms: C_3  and  C_9
REMARK    3  A    between atoms: C_4  and  C_8
REMARK    4  A    between atoms: N_5  and  C_7
REMARK    5  A    between atoms: C_9  and  C_11
REMARK    6  A    between atoms: C_9  and  N_12
REMARK    7  A    between atoms: N_15  and  C_16
REMARK    8  A    between atoms: C_16  and  C_17
REMARK    9  A    between atoms: C_17  and  C_22
REMARK                            x       y       z     vdW  Elec       q    Type
REMARK                         _______ _______ _______ _____ _____    ______ ____
ROOT
ATOM      1  N   UNL     1       2.122   0.486  -2.075  0.00  0.00    -0.293 N 
ATOM      2  C   UNL     1       2.293   0.766  -3.382  0.00  0.00    +0.300 C 
ATOM      3  O   UNL     1       1.932  -0.031  -4.227  0.00  0.00    -0.253 OA
ATOM      4  N   UNL     1       2.865   1.929  -3.754  0.00  0.00    -0.299 N 
ATOM      5  H   UNL     1       2.410   1.122  -1.401  0.00  0.00    +0.151 HD
ATOM      6  H   UNL     1       3.153   2.564  -3.080  0.00  0.00    +0.150 HD
ENDROOT
BRANCH   1   7
ATOM      7  C   UNL     1       1.501  -0.777  -1.671  0.00  0.00    +0.105 C 
ATOM      8  C   UNL     1      -0.021  -0.625  -1.688  0.00  0.00    +0.033 C 
BRANCH   7  11
ATOM      9  C   UNL     1       1.667   1.193   0.804  0.00  0.00    +0.068 C 
ATOM     10  C   UNL     1       2.028  -0.270   0.813  0.00  0.00    +0.065 A 
ATOM     11  C   UNL     1       1.955  -1.139  -0.281  0.00  0.00    +0.016 A 
ATOM     12  C   UNL     1       2.363  -2.361   0.131  0.00  0.00    +0.041 A 
ATOM     13  N   UNL     1       2.683  -2.269   1.439  0.00  0.00    -0.271 N 
ATOM     14  N   UNL     1       2.469  -0.945   1.843  0.00  0.00    -0.176 NA
ATOM     15  C   UNL     1       3.173  -3.360   2.285  0.00  0.00    +0.172 C 
ATOM     16  C   UNL     1       2.446  -3.603  -0.719  0.00  0.00    +0.065 C 
ENDBRANCH   7  11
ENDBRANCH   1   7
BRANCH   4  17
ATOM     17  C   UNL     1       3.051   2.233  -5.175  0.00  0.00    +0.117 C 
BRANCH  17  18
ATOM     18  C   UNL     1       3.829   3.542  -5.319  0.00  0.00    +0.011 C 
ATOM     19  C   UNL     1       5.186   3.432  -4.594  0.00  0.00    +0.013 C 
ATOM     20  C   UNL     1       6.182   3.033  -5.711  0.00  0.00    +0.001 C 
ATOM     21  C   UNL     1       5.679   3.852  -6.926  0.00  0.00    +0.001 C 
ATOM     22  C   UNL     1       4.143   3.809  -6.801  0.00  0.00    +0.013 C 
BRANCH  18  23
ATOM     23  C   UNL     1       3.028   4.684  -4.747  0.00  0.00    -0.040 A 
ATOM     24  C   UNL     1       3.578   5.950  -4.685  0.00  0.00    +0.004 A 
ATOM     25  C   UNL     1       2.843   6.998  -4.161  0.00  0.00    +0.000 A 
ATOM     26  C   UNL     1       1.559   6.778  -3.699  0.00  0.00    +0.000 A 
ATOM     27  C   UNL     1       1.009   5.511  -3.761  0.00  0.00    +0.000 A 
ATOM     28  C   UNL     1       1.742   4.465  -4.290  0.00  0.00    +0.004 A 
ENDBRANCH  18  23
ENDBRANCH  17  18
ENDBRANCH   4  17
TORSDOF 5
