REMARK  Name = ZINC61606847
REMARK  9 active torsions:
REMARK  status: ('A' for Active; 'I' for Inactive)
REMARK    1  A    between atoms: C_1  and  C_2
REMARK    2  A    between atoms: C_2  and  C_3
REMARK    3  A    between atoms: C_2  and  N_4
REMARK    4  A    between atoms: C_10  and  S_11
REMARK    5  A    between atoms: S_11  and  C_12
REMARK    6  A    between atoms: C_12  and  C_13
REMARK    7  A    between atoms: C_16  and  C_19
REMARK    8  A    between atoms: C_20  and  C_21
REMARK    9  A    between atoms: C_21  and  N_22
REMARK                            x       y       z     vdW  Elec       q    Type
REMARK                         _______ _______ _______ _____ _____    ______ ____
ROOT
ATOM      1  C   UNL     1      -2.904  -3.498   3.891  0.00  0.00    -0.037 A 
ATOM      2  C   UNL     1      -3.887  -2.797   4.567  0.00  0.00    +0.005 A 
ATOM      3  C   UNL     1      -5.147  -3.339   4.713  0.00  0.00    +0.017 A 
ATOM      4  C   UNL     1      -5.429  -4.596   4.178  0.00  0.00    +0.025 A 
ATOM      5  C   UNL     1      -4.433  -5.298   3.498  0.00  0.00    +0.017 A 
ATOM      6  C   UNL     1      -3.179  -4.743   3.354  0.00  0.00    +0.005 A 
ENDROOT
BRANCH   4   7
ATOM      7  C   UNL     1      -6.735  -5.165   4.327  0.00  0.00    -0.068 C 
ATOM      8  C   UNL     1      -7.806  -5.631   4.450  0.00  0.00    -0.117 C 
BRANCH   8   9
ATOM      9  C   UNL     1      -9.148  -6.215   4.603  0.00  0.00    +0.005 C 
BRANCH   9  10
ATOM     10  N   UNL     1      -9.185  -7.534   3.956  0.00  0.00    +0.385 N 
ATOM     11  H   UNL     1      -8.972  -7.433   2.975  0.00  0.00    -0.089 HD
ATOM     12  H   UNL     1      -8.503  -8.139   4.388  0.00  0.00    -0.089 HD
ATOM     13  H   UNL     1     -10.105  -7.934   4.061  0.00  0.00    -0.089 HD
ENDBRANCH   9  10
ENDBRANCH   8   9
ENDBRANCH   4   7
BRANCH   1  14
ATOM     14  C   UNL     1      -1.530  -2.899   3.735  0.00  0.00    +0.112 C 
BRANCH  14  15
ATOM     15  S   UNL     1      -1.467  -1.920   2.208  0.00  0.00    -0.081 S 
BRANCH  15  22
ATOM     16  N   UNL     1       0.711  -0.489   1.189  0.00  0.00    -0.268 N 
ATOM     17  C   UNL     1       1.991  -0.217   1.510  0.00  0.00    +0.345 A 
ATOM     18  O   UNL     1       2.763   0.474   0.868  0.00  0.00    -0.245 OA
ATOM     19  N   UNL     1       2.263  -0.848   2.671  0.00  0.00    -0.226 N 
ATOM     20  H   UNL     1       3.108  -0.834   3.147  0.00  0.00    +0.194 HD
ATOM     21  N   UNL     1       1.100  -1.526   3.062  0.00  0.00    -0.145 NA
ATOM     22  C   UNL     1       0.181  -1.297   2.170  0.00  0.00    +0.193 A 
BRANCH  16  24
ATOM     23  C   UNL     1      -0.019   1.526   0.010  0.00  0.00    +0.031 C 
ATOM     24  C   UNL     1       0.002  -0.004   0.002  0.00  0.00    +0.088 C 
ATOM     25  C   UNL     1       0.718  -0.497  -1.257  0.00  0.00    +0.031 C 
ENDBRANCH  16  24
ENDBRANCH  15  22
ENDBRANCH  14  15
ENDBRANCH   1  14
TORSDOF 7
