REMARK  Name = ZINC53855404
REMARK  7 active torsions:
REMARK  status: ('A' for Active; 'I' for Inactive)
REMARK    1  A    between atoms: C_1  and  C_2
REMARK    2  A    between atoms: C_2  and  C_4
REMARK    3  A    between atoms: C_2  and  N_16
REMARK    4  A    between atoms: C_17  and  C_19
REMARK    5  A    between atoms: C_19  and  C_21
REMARK    6  A    between atoms: C_19  and  N_22
REMARK    7  A    between atoms: C_23  and  C_25
REMARK                            x       y       z     vdW  Elec       q    Type
REMARK                         _______ _______ _______ _____ _____    ______ ____
ROOT
ATOM      1  N   UNL     1      -1.372  -0.511   0.012  0.00  0.00    -0.307 N 
ATOM      2  C   UNL     1      -2.029  -0.655   1.181  0.00  0.00    +0.234 C 
ATOM      3  O   UNL     1      -1.481  -0.365   2.224  0.00  0.00    -0.274 OA
ATOM      4  H   UNL     1      -1.810  -0.743  -0.822  0.00  0.00    +0.149 HD
ENDROOT
BRANCH   1   6
ATOM      5  C   UNL     1      -0.019   1.526   0.010  0.00  0.00    +0.033 C 
ATOM      6  C   UNL     1       0.002  -0.004   0.002  0.00  0.00    +0.100 C 
BRANCH   6   7
ATOM      7  C   UNL     1       0.707  -0.490  -1.238  0.00  0.00    -0.025 A 
ATOM      8  C   UNL     1       0.034  -0.520  -2.447  0.00  0.00    +0.007 A 
ATOM      9  C   UNL     1       0.672  -0.964  -3.589  0.00  0.00    +0.028 A 
ATOM     10  C   UNL     1       1.993  -1.381  -3.523  0.00  0.00    +0.067 A 
ATOM     11  C   UNL     1       2.672  -1.350  -2.304  0.00  0.00    +0.067 A 
ATOM     12  C   UNL     1       2.025  -0.898  -1.164  0.00  0.00    +0.033 A 
ATOM     13  N   UNL     1       3.960  -1.820  -2.549  0.00  0.00    -0.306 N 
ATOM     14  H   UNL     1       4.665  -1.913  -1.890  0.00  0.00    +0.170 HD
ATOM     15  C   UNL     1       4.060  -2.122  -3.857  0.00  0.00    +0.325 A 
ATOM     16  O   UNL     1       5.057  -2.559  -4.402  0.00  0.00    -0.247 OA
ATOM     17  N   UNL     1       2.889  -1.868  -4.472  0.00  0.00    -0.306 N 
ATOM     18  H   UNL     1       2.702  -2.002  -5.414  0.00  0.00    +0.170 HD
ENDBRANCH   6   7
ENDBRANCH   1   6
BRANCH   2  19
ATOM     19  C   UNL     1      -3.442  -1.177   1.191  0.00  0.00    +0.156 C 
ATOM     20  C   UNL     1      -4.338  -0.240   0.378  0.00  0.00    +0.038 C 
BRANCH  19  21
ATOM     21  N   UNL     1      -3.929  -1.240   2.572  0.00  0.00    -0.300 N 
ATOM     22  C   UNL     1      -4.911  -2.103   2.901  0.00  0.00    +0.248 C 
ATOM     23  O   UNL     1      -5.393  -2.829   2.053  0.00  0.00    -0.270 OA
ATOM     24  H   UNL     1      -3.545  -0.661   3.249  0.00  0.00    +0.150 HD
BRANCH  22  25
ATOM     25  C   UNL     1      -5.400  -2.167   4.290  0.00  0.00    +0.074 A 
ATOM     26  C   UNL     1      -6.452  -3.046   4.822  0.00  0.00    +0.054 A 
ATOM     27  C   UNL     1      -6.553  -2.752   6.127  0.00  0.00    +0.195 A 
ATOM     28  O   UNL     1      -5.670  -1.787   6.430  0.00  0.00    -0.470 OA
ATOM     29  C   UNL     1      -4.968  -1.427   5.351  0.00  0.00    +0.207 A 
ENDBRANCH  22  25
ENDBRANCH  19  21
ENDBRANCH   2  19
TORSDOF 5
