REMARK  Name = ZINC09100955
REMARK  5 active torsions:
REMARK  status: ('A' for Active; 'I' for Inactive)
REMARK    1  A    between atoms: C_1  and  C_2
REMARK    2  A    between atoms: C_2  and  C_3
REMARK    3  A    between atoms: N_5  and  C_6
REMARK    4  A    between atoms: C_6  and  C_7
REMARK    5  A    between atoms: N_10  and  C_14
REMARK                            x       y       z     vdW  Elec       q    Type
REMARK                         _______ _______ _______ _____ _____    ______ ____
ROOT
ATOM      1  C   UNL     1       5.924  -1.217  -0.060  0.00  0.00    +0.213 C 
ATOM      2  C   UNL     1       4.953  -0.021  -0.045  0.00  0.00    +0.163 C 
ATOM      3  N   UNL     1       3.623  -0.650  -0.035  0.00  0.00    -0.234 N 
ATOM      4  C   UNL     1       3.773  -1.982  -0.038  0.00  0.00    +0.408 C 
ATOM      5  O   UNL     1       2.836  -2.755  -0.028  0.00  0.00    -0.226 OA
ATOM      6  O   UNL     1       5.049  -2.382  -0.058  0.00  0.00    -0.444 OA
ENDROOT
BRANCH   3   7
ATOM      7  C   UNL     1       2.400   0.032  -0.020  0.00  0.00    +0.041 A 
ATOM      8  C   UNL     1       2.378   1.420  -0.013  0.00  0.00    +0.025 A 
ATOM      9  C   UNL     1       1.171   2.091   0.002  0.00  0.00    +0.023 A 
ATOM     10  C   UNL     1      -0.017   1.381   0.010  0.00  0.00    +0.059 A 
ATOM     11  C   UNL     1       0.002  -0.004   0.002  0.00  0.00    +0.061 A 
ATOM     12  C   UNL     1       1.208  -0.680  -0.013  0.00  0.00    +0.045 A 
ATOM     13 CL   UNL     1      -1.490  -0.892   0.011  0.00  0.00    -0.082 Cl
ATOM     14 CL   UNL     1      -1.532   2.227   0.021  0.00  0.00    -0.082 Cl
ENDBRANCH   3   7
BRANCH   1  15
ATOM     15  C   UNL     1       6.786  -1.192  -1.324  0.00  0.00    +0.150 C 
BRANCH  15  18
ATOM     16  C   UNL     1       8.560  -2.522  -2.336  0.00  0.00    +0.213 C 
ATOM     17  O   UNL     1       8.577  -1.739  -3.262  0.00  0.00    -0.276 OA
ATOM     18  N   UNL     1       7.700  -2.337  -1.315  0.00  0.00    -0.312 N 
ATOM     19  H   UNL     1       7.686  -2.963  -0.574  0.00  0.00    +0.149 HD
BRANCH  16  21
ATOM     20  C   UNL     1      10.361  -3.675  -3.590  0.00  0.00    +0.013 C 
ATOM     21  C   UNL     1       9.500  -3.700  -2.326  0.00  0.00    +0.092 C 
ENDBRANCH  16  21
ENDBRANCH  15  18
ENDBRANCH   1  15
TORSDOF 4
