REMARK  Name = ZINC17093591
REMARK  10 active torsions:
REMARK  status: ('A' for Active; 'I' for Inactive)
REMARK    1  A    between atoms: C_1  and  C_2
REMARK    2  A    between atoms: C_3  and  C_30
REMARK    3  A    between atoms: C_6  and  C_7
REMARK    4  A    between atoms: N_9  and  C_10
REMARK    5  A    between atoms: C_14  and  C_16
REMARK    6  A    between atoms: C_16  and  C_29
REMARK    7  A    between atoms: N_17  and  N_18
REMARK    8  A    between atoms: C_19  and  C_21
REMARK    9  A    between atoms: C_23  and  O_28
REMARK   10  A    between atoms: C_25  and  O_27
REMARK                            x       y       z     vdW  Elec       q    Type
REMARK                         _______ _______ _______ _____ _____    ______ ____
ROOT
ATOM      1  C   UNL     1       1.111   5.734   0.463  0.00  0.00    +0.034 A 
ATOM      2  C   UNL     1       0.910   7.101   0.304  0.00  0.00    +0.023 A 
ATOM      3  C   UNL     1       1.978   7.934   0.030  0.00  0.00    +0.002 A 
ATOM      4  C   UNL     1       3.253   7.416  -0.083  0.00  0.00    +0.010 A 
ATOM      5  C   UNL     1       3.464   6.043   0.070  0.00  0.00    -0.001 A 
ATOM      6  C   UNL     1       2.385   5.202   0.347  0.00  0.00    +0.033 A 
ENDROOT
BRANCH   1   9
ATOM      7  C   UNL     1       0.190   3.822   1.538  0.00  0.00    +0.249 C 
ATOM      8  O   UNL     1       1.252   3.642   2.104  0.00  0.00    -0.270 OA
ATOM      9  N   UNL     1       0.026   4.896   0.740  0.00  0.00    -0.281 N 
ATOM     10  H   UNL     1      -0.845   5.087   0.358  0.00  0.00    +0.155 HD
BRANCH   7  16
ATOM     11  C   UNL     1       0.438   1.539   3.464  0.00  0.00    +0.045 C 
ATOM     12  C   UNL     1      -0.809   1.766   2.649  0.00  0.00    -0.028 A 
ATOM     13  C   UNL     1      -1.874   0.947   2.750  0.00  0.00    -0.010 A 
ATOM     14  S   UNL     1      -3.036   1.652   1.600  0.00  0.00    -0.101 S 
ATOM     15  C   UNL     1      -2.099   2.993   1.030  0.00  0.00    +0.058 A 
ATOM     16  C   UNL     1      -0.914   2.868   1.726  0.00  0.00    +0.047 A 
ATOM     17  C   UNL     1      -2.041  -0.270   3.624  0.00  0.00    +0.052 C 
ENDBRANCH   7  16
ENDBRANCH   1   9
BRANCH   5  18
ATOM     18  C   UNL     1       4.824   5.486  -0.055  0.00  0.00    +0.063 C 
ATOM     19  N   UNL     1       5.093   4.638  -1.000  0.00  0.00    -0.184 NA
ATOM     20  C   UNL     1       5.901   5.901   0.915  0.00  0.00    +0.068 C 
BRANCH  19  21
ATOM     21  N   UNL     1       4.127   4.338  -1.968  0.00  0.00    -0.203 N 
ATOM     22  C   UNL     1       4.438   3.536  -3.006  0.00  0.00    +0.263 C 
ATOM     23  O   UNL     1       5.527   2.998  -3.052  0.00  0.00    -0.268 OA
ATOM     24  H   UNL     1       3.233   4.708  -1.893  0.00  0.00    +0.178 HD
BRANCH  22  25
ATOM     25  C   UNL     1       3.455   3.309  -4.086  0.00  0.00    +0.045 A 
ATOM     26  C   UNL     1       2.246   4.007  -4.090  0.00  0.00    +0.058 A 
ATOM     27  C   UNL     1       1.328   3.792  -5.104  0.00  0.00    +0.121 A 
ATOM     28  C   UNL     1       1.608   2.883  -6.115  0.00  0.00    +0.090 A 
ATOM     29  C   UNL     1       2.808   2.187  -6.114  0.00  0.00    +0.121 A 
ATOM     30  C   UNL     1       3.732   2.396  -5.104  0.00  0.00    +0.058 A 
BRANCH  29  31
ATOM     31  O   UNL     1       3.077   1.298  -7.107  0.00  0.00    -0.507 OA
ATOM     32  H   UNL     1       3.529   1.685  -7.869  0.00  0.00    +0.292 HD
ENDBRANCH  29  31
BRANCH  27  33
ATOM     33  O   UNL     1       0.153   4.475  -5.112  0.00  0.00    -0.507 OA
ATOM     34  H   UNL     1      -0.583   3.996  -4.707  0.00  0.00    +0.292 HD
ENDBRANCH  27  33
ENDBRANCH  22  25
ENDBRANCH  19  21
ENDBRANCH   5  18
TORSDOF 7
