REMARK  Name = ZINC08443383
REMARK  12 active torsions:
REMARK  status: ('A' for Active; 'I' for Inactive)
REMARK    1  A    between atoms: C_1  and  C_2
REMARK    2  A    between atoms: C_2  and  O_3
REMARK    3  A    between atoms: O_3  and  C_4
REMARK    4  A    between atoms: C_4  and  C_6
REMARK    5  A    between atoms: C_7  and  C_26
REMARK    6  A    between atoms: N_8  and  C_20
REMARK    7  A    between atoms: C_11  and  C_17
REMARK    8  A    between atoms: C_12  and  O_16
REMARK    9  A    between atoms: C_17  and  N_62
REMARK   10  A    between atoms: C_18  and  N_62
REMARK   11  A    between atoms: C_19  and  N_62
REMARK   12  A    between atoms: C_26  and  N_64
REMARK                            x       y       z     vdW  Elec       q    Type
REMARK                         _______ _______ _______ _____ _____    ______ ____
ROOT
ATOM      1  C   UNL     1      -1.295   1.928   0.019  0.00  0.00    +0.086 A 
ATOM      2  C   UNL     1      -2.010   2.337  -1.069  0.00  0.00    +0.022 A 
ATOM      3  N   UNL     1      -3.142   2.964  -0.665  0.00  0.00    -0.314 N 
ATOM      4  C   UNL     1      -3.207   2.997   0.717  0.00  0.00    +0.056 A 
ATOM      5  C   UNL     1      -2.059   2.353   1.207  0.00  0.00    +0.019 A 
ATOM      6  C   UNL     1      -1.855   2.235   2.579  0.00  0.00    -0.011 A 
ATOM      7  C   UNL     1      -2.788   2.757   3.456  0.00  0.00    +0.133 A 
ATOM      8  C   UNL     1      -3.926   3.394   2.970  0.00  0.00    +0.061 A 
ATOM      9  C   UNL     1      -4.135   3.515   1.613  0.00  0.00    +0.045 A 
ATOM     10 BR   UNL     1      -5.194   4.102   4.181  0.00  0.00    -0.046 Br
ENDROOT
BRANCH   3  11
ATOM     11  C   UNL     1      -4.107   3.506  -1.523  0.00  0.00    +0.047 A 
ATOM     12  C   UNL     1      -4.842   2.674  -2.357  0.00  0.00    +0.026 A 
ATOM     13  C   UNL     1      -5.796   3.212  -3.199  0.00  0.00    +0.002 A 
ATOM     14  C   UNL     1      -6.012   4.577  -3.220  0.00  0.00    +0.000 A 
ATOM     15  C   UNL     1      -5.277   5.409  -2.394  0.00  0.00    +0.002 A 
ATOM     16  C   UNL     1      -4.326   4.877  -1.546  0.00  0.00    +0.026 A 
ENDBRANCH   3  11
BRANCH   1  17
ATOM     17  C   UNL     1      -0.014   1.212   0.009  0.00  0.00    +0.341 C 
ATOM     18  O   UNL     1       0.002  -0.004   0.002  0.00  0.00    -0.245 OA
BRANCH  17  19
ATOM     19  O   UNL     1       1.144   1.902   0.001  0.00  0.00    -0.461 OA
BRANCH  19  21
ATOM     20  C   UNL     1       3.573   2.076  -0.021  0.00  0.00    +0.048 C 
ATOM     21  C   UNL     1       2.372   1.128  -0.015  0.00  0.00    +0.229 C 
ENDBRANCH  19  21
ENDBRANCH  17  19
ENDBRANCH   1  17
BRANCH   7  22
ATOM     22  O   UNL     1      -2.594   2.646   4.797  0.00  0.00    -0.505 OA
ATOM     23  H   UNL     1      -2.969   1.843   5.184  0.00  0.00    +0.292 HD
ENDBRANCH   7  22
BRANCH   6  24
ATOM     24  C   UNL     1      -0.624   1.544   3.105  0.00  0.00    -0.039 C 
BRANCH  24  27
ATOM     25  C   UNL     1       0.118   3.495   4.333  0.00  0.00    -0.096 C 
ATOM     26  C   UNL     1       1.732   1.863   3.562  0.00  0.00    -0.096 C 
ATOM     27  N   UNL     1       0.456   2.542   3.255  0.00  0.00    +0.379 N 
ATOM     28  H   UNL     1       0.557   3.059   2.373  0.00  0.00    -0.082 HD
ENDBRANCH  24  27
ENDBRANCH   6  24
BRANCH   2  29
ATOM     29  C   UNL     1      -1.604   2.122  -2.505  0.00  0.00    -0.023 C 
BRANCH  29  35
ATOM     30  C   UNL     1      -1.598   4.491  -3.012  0.00  0.00    -0.050 C 
ATOM     31  C   UNL     1      -0.705   5.660  -3.433  0.00  0.00    +0.141 C 
ATOM     32  O   UNL     1      -0.095   5.359  -4.692  0.00  0.00    -0.383 OA
ATOM     33  C   UNL     1       0.695   4.167  -4.678  0.00  0.00    +0.141 C 
ATOM     34  C   UNL     1      -0.184   2.982  -4.269  0.00  0.00    -0.050 C 
ATOM     35  N   UNL     1      -0.774   3.265  -2.944  0.00  0.00    +0.386 N 
ATOM     36  H   UNL     1      -0.018   3.409  -2.265  0.00  0.00    -0.081 HD
ENDBRANCH  29  35
ENDBRANCH   2  29
TORSDOF 9
