REMARK  Name = ZINC45059855
REMARK  5 active torsions:
REMARK  status: ('A' for Active; 'I' for Inactive)
REMARK    1  A    between atoms: C_1  and  N_2
REMARK    2  A    between atoms: N_2  and  C_3
REMARK    3  A    between atoms: C_3  and  C_4
REMARK    4  A    between atoms: N_5  and  O_6
REMARK    5  A    between atoms: C_8  and  C_10
REMARK                            x       y       z     vdW  Elec       q    Type
REMARK                         _______ _______ _______ _____ _____    ______ ____
ROOT
ATOM      1  C   UNL     1      -0.018   1.461   0.010  0.00  0.00    +0.132 C 
ATOM      2  N   UNL     1       0.002  -0.004   0.002  0.00  0.00    -0.294 N 
ATOM      3  C   UNL     1       0.000  -0.672  -1.169  0.00  0.00    +0.257 C 
ATOM      4  O   UNL     1       0.017  -1.884  -1.175  0.00  0.00    -0.272 OA
ENDROOT
BRANCH   3   5
ATOM      5  C   UNL     1      -0.023   0.089  -2.470  0.00  0.00    +0.263 C 
ATOM      6  C   UNL     1       1.302   0.861  -2.676  0.00  0.00    +0.093 C 
ATOM      7  C   UNL     1       2.119  -0.129  -3.483  0.00  0.00    -0.002 A 
ATOM      8  C   UNL     1       3.465  -0.201  -3.770  0.00  0.00    +0.007 A 
ATOM      9  C   UNL     1       3.953  -1.240  -4.542  0.00  0.00    +0.000 A 
ATOM     10  C   UNL     1       3.085  -2.203  -5.024  0.00  0.00    +0.004 A 
ATOM     11  C   UNL     1       1.737  -2.131  -4.741  0.00  0.00    +0.046 A 
ATOM     12  C   UNL     1       1.237  -1.086  -3.967  0.00  0.00    +0.125 A 
ATOM     13  O   UNL     1      -0.046  -0.815  -3.588  0.00  0.00    -0.479 OA
ENDBRANCH   3   5
BRANCH   2  14
ATOM     14  C   UNL     1       0.024  -0.743   1.267  0.00  0.00    +0.182 C 
BRANCH  14  15
ATOM     15  C   UNL     1      -1.389  -1.016   1.714  0.00  0.00    +0.149 C 
ATOM     16  N   UNL     1      -2.383  -0.606   0.998  0.00  0.00    -0.075 NA
ATOM     17  N   UNL     1      -1.620  -1.703   2.885  0.00  0.00    -0.343 N 
ATOM     18  H   UNL     1      -0.874  -2.011   3.422  0.00  0.00    +0.144 HD
ATOM     19  H   UNL     1      -2.530  -1.878   3.173  0.00  0.00    +0.144 HD
BRANCH  16  20
ATOM     20  O   UNL     1      -3.711  -0.862   1.419  0.00  0.00    -0.408 OA
ATOM     21  H   UNL     1      -4.387  -0.517   0.819  0.00  0.00    +0.328 HD
ENDBRANCH  16  20
ENDBRANCH  14  15
ENDBRANCH   2  14
TORSDOF 4
