REMARK  Name = ZINC50406656
REMARK  10 active torsions:
REMARK  status: ('A' for Active; 'I' for Inactive)
REMARK    1  A    between atoms: C_1  and  C_2
REMARK    2  A    between atoms: C_2  and  C_3
REMARK    3  A    between atoms: C_3  and  C_4
REMARK    4  A    between atoms: C_4  and  C_6
REMARK    5  A    between atoms: C_4  and  N_8
REMARK    6  A    between atoms: C_6  and  C_7
REMARK    7  A    between atoms: N_8  and  S_9
REMARK    8  A    between atoms: S_9  and  C_12
REMARK    9  A    between atoms: C_17  and  N_18
REMARK   10  A    between atoms: N_18  and  N_19
REMARK                            x       y       z     vdW  Elec       q    Type
REMARK                         _______ _______ _______ _____ _____    ______ ____
ROOT
ATOM      1  C   UNL     1      -0.711  -3.578  -1.503  0.00  0.00    +0.147 A 
ATOM      2  C   UNL     1      -1.868  -4.162  -1.018  0.00  0.00    +0.048 A 
ATOM      3  C   UNL     1      -3.088  -3.740  -1.531  0.00  0.00    +0.038 A 
ATOM      4  C   UNL     1      -3.111  -2.758  -2.503  0.00  0.00    +0.128 A 
ATOM      5  N   UNL     1      -1.990  -2.220  -2.946  0.00  0.00    -0.236 NA
ATOM      6  C   UNL     1      -0.809  -2.590  -2.478  0.00  0.00    +0.159 A 
ATOM      7 BR   UNL     1      -4.702  -4.503  -0.907  0.00  0.00    -0.049 Br
ENDROOT
BRANCH   1   8
ATOM      8  S   UNL     1       0.864  -4.074  -0.889  0.00  0.00    +0.062 S 
ATOM      9  O   UNL     1       1.695  -4.282  -2.022  0.00  0.00    -0.153 OA
ATOM     10  O   UNL     1       0.623  -5.089   0.076  0.00  0.00    -0.153 OA
BRANCH   8  11
ATOM     11  N   UNL     1       1.498  -2.783  -0.068  0.00  0.00    -0.187 NA
ATOM     12  H   UNL     1       2.276  -2.321  -0.417  0.00  0.00    +0.148 HD
BRANCH  11  13
ATOM     13  C   UNL     1       0.884  -2.338   1.186  0.00  0.00    +0.076 C 
BRANCH  13  14
ATOM     14  C   UNL     1       1.848  -2.596   2.345  0.00  0.00    +0.017 C 
ATOM     15  C   UNL     1       2.053  -4.103   2.513  0.00  0.00    +0.005 C 
ENDBRANCH  13  14
BRANCH  13  16
ATOM     16  C   UNL     1       0.576  -0.842   1.101  0.00  0.00    +0.020 C 
BRANCH  16  18
ATOM     17  C   UNL     1      -0.790   0.897  -0.062  0.00  0.00    +0.004 C 
ATOM     18  C   UNL     1      -0.482  -0.599   0.023  0.00  0.00    -0.002 C 
ENDBRANCH  16  18
ENDBRANCH  13  16
ENDBRANCH  11  13
ENDBRANCH   8  11
ENDBRANCH   1   8
BRANCH   6  19
ATOM     19  N   UNL     1       0.346  -1.991  -2.969  0.00  0.00    -0.266 N 
ATOM     20  H   UNL     1       1.216  -2.296  -2.668  0.00  0.00    +0.167 HD
BRANCH  19  21
ATOM     21  N   UNL     1       0.254  -0.973  -3.876  0.00  0.00    -0.255 NA
ATOM     22  H   UNL     1      -0.315  -0.221  -3.518  0.00  0.00    +0.140 HD
ATOM     23  H   UNL     1       1.170  -0.640  -4.139  0.00  0.00    +0.140 HD
ENDBRANCH  19  21
ENDBRANCH   6  19
TORSDOF 8
