REMARK  Name = ZINC02863742
REMARK  8 active torsions:
REMARK  status: ('A' for Active; 'I' for Inactive)
REMARK    1  A    between atoms: C_1  and  C_2
REMARK    2  A    between atoms: C_2  and  O_3
REMARK    3  A    between atoms: O_3  and  C_4
REMARK    4  A    between atoms: C_6  and  C_13
REMARK    5  A    between atoms: C_9  and  O_10
REMARK    6  A    between atoms: C_15  and  C_27
REMARK    7  A    between atoms: C_16  and  C_21
REMARK    8  A    between atoms: C_27  and  C_29
REMARK                            x       y       z     vdW  Elec       q    Type
REMARK                         _______ _______ _______ _____ _____    ______ ____
ROOT
ATOM      1  C   UNL     1       4.753   3.375   0.187  0.00  0.00    +0.139 C 
ATOM      2  C   UNL     1       4.713   4.842  -0.191  0.00  0.00    +0.041 C 
ATOM      3  C   UNL     1       5.543   5.702   0.502  0.00  0.00    +0.048 C 
ATOM      4  N   UNL     1       6.366   5.228   1.493  0.00  0.00    -0.296 N 
ATOM      5  C   UNL     1       6.426   3.940   1.852  0.00  0.00    +0.135 C 
ATOM      6  S   UNL     1       7.499   3.485   3.106  0.00  0.00    -0.019 S 
ATOM      7  N   UNL     1       5.676   2.989   1.266  0.00  0.00    -0.315 N 
ATOM      8  H   UNL     1       6.935   5.861   1.958  0.00  0.00    +0.154 HD
ATOM      9  H   UNL     1       5.742   2.064   1.551  0.00  0.00    +0.149 HD
ENDROOT
BRANCH   1  12
ATOM     10  C   UNL     1       1.702   2.665   2.300  0.00  0.00    +0.163 A 
ATOM     11  C   UNL     1       2.982   3.038   1.923  0.00  0.00    +0.056 A 
ATOM     12  C   UNL     1       3.362   2.964   0.596  0.00  0.00    +0.000 A 
ATOM     13  C   UNL     1       2.467   2.512  -0.358  0.00  0.00    +0.064 A 
ATOM     14  C   UNL     1       1.189   2.133   0.013  0.00  0.00    +0.081 A 
ATOM     15  C   UNL     1       0.804   2.205   1.343  0.00  0.00    +0.174 A 
ATOM     16 BR   UNL     1      -0.032   1.515  -1.293  0.00  0.00    -0.045 Br
ATOM     17 CL   UNL     1       2.949   2.421  -2.023  0.00  0.00    -0.082 Cl
BRANCH  15  18
ATOM     18  O   UNL     1      -0.452   1.833   1.710  0.00  0.00    -0.503 OA
ATOM     19  H   UNL     1      -0.533   0.898   1.943  0.00  0.00    +0.292 HD
ENDBRANCH  15  18
BRANCH  10  20
ATOM     20  O   UNL     1       1.327   2.743   3.605  0.00  0.00    -0.489 OA
BRANCH  20  22
ATOM     21  C   UNL     1       1.701   3.241   5.940  0.00  0.00    +0.048 C 
ATOM     22  C   UNL     1       2.301   3.224   4.533  0.00  0.00    +0.226 C 
ENDBRANCH  20  22
ENDBRANCH  10  20
ENDBRANCH   1  12
BRANCH   3  23
ATOM     23  C   UNL     1       5.546   7.140   0.175  0.00  0.00    -0.003 A 
ATOM     24  C   UNL     1       5.433   8.092   1.192  0.00  0.00    +0.010 A 
ATOM     25  C   UNL     1       5.441   9.435   0.879  0.00  0.00    +0.001 A 
ATOM     26  C   UNL     1       5.549   9.841  -0.439  0.00  0.00    +0.000 A 
ATOM     27  C   UNL     1       5.655   8.904  -1.452  0.00  0.00    +0.001 A 
ATOM     28  C   UNL     1       5.654   7.558  -1.154  0.00  0.00    +0.010 A 
ENDBRANCH   3  23
BRANCH   2  29
ATOM     29  C   UNL     1       3.870   5.309  -1.204  0.00  0.00    +0.160 C 
ATOM     30  O   UNL     1       4.159   5.123  -2.370  0.00  0.00    -0.293 OA
ATOM     31  C   UNL     1       2.601   6.041  -0.850  0.00  0.00    +0.091 C 
ENDBRANCH   2  29
TORSDOF 6
