REMARK  Name = ZINC18750104
REMARK  9 active torsions:
REMARK  status: ('A' for Active; 'I' for Inactive)
REMARK    1  A    between atoms: C_1  and  C_2
REMARK    2  A    between atoms: C_2  and  C_4
REMARK    3  A    between atoms: C_2  and  O_20
REMARK    4  A    between atoms: N_6  and  C_7
REMARK    5  A    between atoms: C_7  and  C_8
REMARK    6  A    between atoms: N_10  and  C_11
REMARK    7  A    between atoms: O_20  and  C_21
REMARK    8  A    between atoms: C_21  and  C_23
REMARK    9  A    between atoms: C_28  and  N_29
REMARK                            x       y       z     vdW  Elec       q    Type
REMARK                         _______ _______ _______ _____ _____    ______ ____
ROOT
ATOM      1  C   UNL     1       3.902   7.509   0.408  0.00  0.00    +0.254 C 
ATOM      2  O   UNL     1       2.969   8.283   0.438  0.00  0.00    -0.272 OA
ATOM      3  N   UNL     1       3.676   6.186   0.290  0.00  0.00    -0.304 N 
ATOM      4  H   UNL     1       4.423   5.567   0.267  0.00  0.00    +0.149 HD
ENDROOT
BRANCH   1   6
ATOM      5  C   UNL     1       6.052   7.740  -0.804  0.00  0.00    +0.062 C 
ATOM      6  C   UNL     1       5.314   8.027   0.504  0.00  0.00    +0.259 C 
BRANCH   6   7
ATOM      7  O   UNL     1       5.288   9.460   0.742  0.00  0.00    -0.449 OA
BRANCH   7   8
ATOM      8  C   UNL     1       6.314   9.982   1.444  0.00  0.00    +0.342 C 
ATOM      9  O   UNL     1       7.204   9.259   1.847  0.00  0.00    -0.245 OA
BRANCH   8  10
ATOM     10  C   UNL     1       6.354  11.426   1.723  0.00  0.00    +0.080 A 
ATOM     11  C   UNL     1       5.281  12.244   1.357  0.00  0.00    +0.019 A 
ATOM     12  C   UNL     1       5.324  13.594   1.620  0.00  0.00    +0.039 A 
ATOM     13  C   UNL     1       6.430  14.150   2.251  0.00  0.00    +0.125 A 
ATOM     14  C   UNL     1       7.499  13.355   2.619  0.00  0.00    +0.061 A 
ATOM     15  C   UNL     1       7.470  11.990   2.365  0.00  0.00    +0.041 A 
ATOM     16  F   UNL     1       6.461  15.477   2.504  0.00  0.00    -0.205 F 
BRANCH  15  17
ATOM     17  N   UNL     1       8.539  11.188   2.739  0.00  0.00    -0.357 N 
ATOM     18  H   UNL     1       8.487  10.226   2.626  0.00  0.00    +0.142 HD
ATOM     19  H   UNL     1       9.338  11.589   3.115  0.00  0.00    +0.142 HD
ENDBRANCH  15  17
ENDBRANCH   8  10
ENDBRANCH   7   8
ENDBRANCH   6   7
ENDBRANCH   1   6
BRANCH   3  20
ATOM     20  C   UNL     1       2.304   5.682   0.197  0.00  0.00    +0.200 C 
BRANCH  20  21
ATOM     21  C   UNL     1       2.327   4.180   0.074  0.00  0.00    +0.234 C 
ATOM     22  O   UNL     1       3.386   3.589   0.064  0.00  0.00    -0.274 OA
ATOM     23  N   UNL     1       1.171   3.494  -0.027  0.00  0.00    -0.282 N 
ATOM     24  H   UNL     1       0.330   3.970  -0.101  0.00  0.00    +0.155 HD
BRANCH  23  25
ATOM     25  C   UNL     1       1.186   2.093  -0.024  0.00  0.00    +0.072 A 
ATOM     26  C   UNL     1       2.236   1.410   0.575  0.00  0.00    +0.029 A 
ATOM     27  C   UNL     1       2.250   0.028   0.577  0.00  0.00    +0.043 A 
ATOM     28  C   UNL     1       1.218  -0.677  -0.017  0.00  0.00    +0.161 A 
ATOM     29  C   UNL     1       0.167   0.000  -0.617  0.00  0.00    +0.195 A 
ATOM     30  C   UNL     1       0.149   1.385  -0.621  0.00  0.00    +0.182 A 
ATOM     31  F   UNL     1      -0.871   2.047  -1.209  0.00  0.00    -0.200 F 
ATOM     32  F   UNL     1      -0.839  -0.690  -1.197  0.00  0.00    -0.199 F 
ATOM     33  F   UNL     1       1.234  -2.028  -0.014  0.00  0.00    -0.202 F 
ENDBRANCH  23  25
ENDBRANCH  20  21
ENDBRANCH   3  20
TORSDOF 8
