REMARK  Name = ZINC18284347
REMARK  3 active torsions:
REMARK  status: ('A' for Active; 'I' for Inactive)
REMARK    1  A    between atoms: C_1  and  N_45
REMARK    2  A    between atoms: C_12  and  C_15
REMARK    3  A    between atoms: C_18  and  C_20
REMARK                            x       y       z     vdW  Elec       q    Type
REMARK                         _______ _______ _______ _____ _____    ______ ____
ROOT
ATOM      1  C   UNL     1      -6.530   5.070   0.295  0.00  0.00    -0.096 C 
ATOM      2  C   UNL     1      -4.461   5.117  -0.962  0.00  0.00    -0.074 C 
ATOM      3  C   UNL     1      -2.941   5.006  -0.815  0.00  0.00    +0.018 C 
ATOM      4  C   UNL     1      -2.608   3.590  -0.359  0.00  0.00    -0.027 A 
ATOM      5  C   UNL     1      -3.575   2.809   0.161  0.00  0.00    -0.021 A 
ATOM      6  S   UNL     1      -2.768   1.278   0.544  0.00  0.00    -0.080 S 
ATOM      7  C   UNL     1      -1.187   1.670   0.017  0.00  0.00    +0.080 A 
ATOM      8  C   UNL     1      -1.292   2.986  -0.457  0.00  0.00    +0.068 A 
ATOM      9  C   UNL     1      -0.066   3.611  -1.007  0.00  0.00    +0.248 C 
ATOM     10  O   UNL     1      -0.107   4.676  -1.595  0.00  0.00    -0.270 OA
ATOM     11  N   UNL     1       1.097   2.950  -0.830  0.00  0.00    -0.287 N 
ATOM     12  C   UNL     1       1.233   1.758  -0.000  0.00  0.00    +0.227 C 
ATOM     13  N   UNL     1      -0.011   0.966   0.007  0.00  0.00    -0.314 N 
ATOM     14  C   UNL     1      -5.008   3.186   0.369  0.00  0.00    -0.036 C 
ATOM     15  H   UNL     1       1.888   3.287  -1.280  0.00  0.00    +0.151 HD
ATOM     16  H   UNL     1       0.002  -0.004   0.002  0.00  0.00    +0.149 HD
ATOM     17  N   UNL     1      -5.108   4.655   0.280  0.00  0.00    +0.381 N 
ATOM     18  H   UNL     1      -4.628   5.075   1.085  0.00  0.00    -0.082 HD
ENDROOT
BRANCH  12  19
ATOM     19  C   UNL     1       1.561   2.174   1.410  0.00  0.00    +0.144 A 
ATOM     20  C   UNL     1       2.215   3.297   1.766  0.00  0.00    +0.049 A 
ATOM     21  C   UNL     1       2.306   3.294   3.172  0.00  0.00    +0.050 A 
ATOM     22  C   UNL     1       1.697   2.157   3.602  0.00  0.00    +0.135 A 
ATOM     23  O   UNL     1       1.245   1.490   2.522  0.00  0.00    -0.456 OA
BRANCH  22  24
ATOM     24  C   UNL     1       1.552   1.730   5.009  0.00  0.00    +0.017 A 
ATOM     25  C   UNL     1       2.070   2.518   6.038  0.00  0.00    +0.013 A 
ATOM     26  C   UNL     1       1.928   2.116   7.349  0.00  0.00    +0.021 A 
ATOM     27  C   UNL     1       1.281   0.928   7.646  0.00  0.00    +0.041 A 
ATOM     28  C   UNL     1       0.769   0.139   6.629  0.00  0.00    +0.021 A 
ATOM     29  C   UNL     1       0.901   0.533   5.314  0.00  0.00    +0.013 A 
ATOM     30 CL   UNL     1       1.111   0.425   9.299  0.00  0.00    -0.084 Cl
ENDBRANCH  22  24
ENDBRANCH  12  19
TORSDOF 2
