REMARK  Name = ZINC20589027
REMARK  5 active torsions:
REMARK  status: ('A' for Active; 'I' for Inactive)
REMARK    1  A    between atoms: C_6  and  C_21
REMARK    2  A    between atoms: C_7  and  N_9
REMARK    3  A    between atoms: N_12  and  C_13
REMARK    4  A    between atoms: C_13  and  C_14
REMARK    5  A    between atoms: C_14  and  N_15
REMARK                            x       y       z     vdW  Elec       q    Type
REMARK                         _______ _______ _______ _____ _____    ______ ____
ROOT
ATOM      1  C   UNL     1       8.188   3.008  -0.518  0.00  0.00    +0.005 C 
ATOM      2  C   UNL     1       7.827   4.231   0.330  0.00  0.00    +0.005 C 
ATOM      3  C   UNL     1       6.404   4.680  -0.032  0.00  0.00    +0.043 C 
ATOM      4  C   UNL     1       5.514   3.476  -0.032  0.00  0.00    -0.004 A 
ATOM      5  C   UNL     1       5.897   2.181  -0.043  0.00  0.00    -0.023 A 
ATOM      6  C   UNL     1       4.811   1.214  -0.032  0.00  0.00    +0.068 A 
ATOM      7  C   UNL     1       3.514   1.707  -0.022  0.00  0.00    +0.086 A 
ATOM      8  S   UNL     1       3.745   3.424  -0.015  0.00  0.00    -0.077 S 
ATOM      9  C   UNL     1       7.372   1.798  -0.060  0.00  0.00    +0.037 C 
ENDROOT
BRANCH   7  10
ATOM     10  N   UNL     1       2.323   0.998  -0.015  0.00  0.00    -0.263 N 
ATOM     11  C   UNL     1       1.147   1.655   0.000  0.00  0.00    +0.304 C 
ATOM     12  O   UNL     1       1.130   2.871   0.007  0.00  0.00    -0.252 OA
ATOM     13  N   UNL     1      -0.011   0.966   0.007  0.00  0.00    -0.298 N 
ATOM     14  H   UNL     1       2.338  -0.102  -0.021  0.00  0.00    +0.157 HD
ATOM     15  H   UNL     1       0.004  -0.134   0.006  0.00  0.00    +0.150 HD
BRANCH  13  16
ATOM     16  C   UNL     1      -1.290   1.681   0.017  0.00  0.00    +0.121 C 
BRANCH  16  17
ATOM     17  C   UNL     1      -2.439   0.671   0.017  0.00  0.00    +0.103 C 
BRANCH  17  18
ATOM     18  N   UNL     1      -3.721   1.388   0.027  0.00  0.00    -0.297 NA
ATOM     19  C   UNL     1      -3.906   2.119   1.290  0.00  0.00    +0.112 C 
ATOM     20  C   UNL     1      -5.223   2.898   1.234  0.00  0.00    +0.175 C 
ATOM     21  O   UNL     1      -6.297   1.990   0.971  0.00  0.00    -0.377 OA
ATOM     22  C   UNL     1      -6.149   1.263  -0.252  0.00  0.00    +0.175 C 
ATOM     23  C   UNL     1      -4.842   0.467  -0.211  0.00  0.00    +0.112 C 
ENDBRANCH  17  18
ENDBRANCH  16  17
ENDBRANCH  13  16
ENDBRANCH   7  10
BRANCH   6  24
ATOM     24  C   UNL     1       5.077  -0.227  -0.034  0.00  0.00    +0.244 C 
ATOM     25  O   UNL     1       5.180  -0.825  -1.089  0.00  0.00    -0.270 OA
ATOM     26  N   UNL     1       5.207  -0.891   1.132  0.00  0.00    -0.325 N 
ATOM     27  H   UNL     1       5.406  -1.972   1.130  0.00  0.00    +0.145 HD
ATOM     28  H   UNL     1       5.114  -0.350   2.085  0.00  0.00    +0.145 HD
ENDBRANCH   6  24
TORSDOF 5
