REMARK  Name = ZINC02977480
REMARK  6 active torsions:
REMARK  status: ('A' for Active; 'I' for Inactive)
REMARK    1  A    between atoms: C_2  and  C_3
REMARK    2  A    between atoms: C_3  and  S_4
REMARK    3  A    between atoms: S_4  and  C_5
REMARK    4  A    between atoms: C_18  and  C_21
REMARK    5  A    between atoms: C_24  and  O_28
REMARK    6  A    between atoms: C_25  and  O_27
REMARK                            x       y       z     vdW  Elec       q    Type
REMARK                         _______ _______ _______ _____ _____    ______ ____
ROOT
ATOM      1  C   UNL     1       4.219   5.266  -6.159  0.00  0.00    +0.213 A 
ATOM      2  N   UNL     1       3.506   4.664  -5.212  0.00  0.00    -0.184 NA
ATOM      3  C   UNL     1       3.994   4.587  -3.986  0.00  0.00    +0.248 A 
ATOM      4  C   UNL     1       5.266   5.145  -3.725  0.00  0.00    +0.156 A 
ATOM      5  N   UNL     1       5.924   5.733  -4.713  0.00  0.00    -0.141 NA
ATOM      6  N   UNL     1       5.409   5.789  -5.893  0.00  0.00    -0.122 NA
ATOM      7  C   UNL     1       5.835   5.062  -2.364  0.00  0.00    +0.028 A 
ATOM      8  C   UNL     1       6.404   6.168  -1.744  0.00  0.00    +0.012 A 
ATOM      9  C   UNL     1       6.953   6.041  -0.483  0.00  0.00    +0.001 A 
ATOM     10  C   UNL     1       6.941   4.819   0.167  0.00  0.00    +0.002 A 
ATOM     11  C   UNL     1       6.372   3.711  -0.435  0.00  0.00    +0.024 A 
ATOM     12  C   UNL     1       5.813   3.824  -1.695  0.00  0.00    +0.039 A 
ATOM     13  N   UNL     1       5.216   2.729  -2.328  0.00  0.00    -0.305 N 
ATOM     14  C   UNL     1       3.770   2.732  -2.522  0.00  0.00    +0.294 C 
ATOM     15  O   UNL     1       3.302   3.994  -2.984  0.00  0.00    -0.449 OA
ATOM     16  H   UNL     1       5.754   1.981  -2.632  0.00  0.00    +0.150 HD
ENDROOT
BRANCH  14  17
ATOM     17  C   UNL     1       3.098   2.410  -1.212  0.00  0.00    +0.015 A 
ATOM     18  C   UNL     1       3.646   1.458  -0.372  0.00  0.00    +0.013 A 
ATOM     19  C   UNL     1       3.033   1.159   0.831  0.00  0.00    +0.049 A 
ATOM     20  C   UNL     1       1.870   1.817   1.199  0.00  0.00    +0.158 A 
ATOM     21  C   UNL     1       1.315   2.770   0.350  0.00  0.00    +0.159 A 
ATOM     22  C   UNL     1       1.935   3.066  -0.854  0.00  0.00    +0.058 A 
BRANCH  21  23
ATOM     23  O   UNL     1       0.171   3.414   0.704  0.00  0.00    -0.503 OA
ATOM     24  H   UNL     1      -0.636   2.973   0.407  0.00  0.00    +0.292 HD
ENDBRANCH  21  23
BRANCH  20  25
ATOM     25  O   UNL     1       1.269   1.527   2.384  0.00  0.00    -0.503 OA
ATOM     26  H   UNL     1       0.618   0.814   2.331  0.00  0.00    +0.292 HD
ENDBRANCH  20  25
ENDBRANCH  14  17
BRANCH   1  27
ATOM     27  S   UNL     1       3.573   5.371  -7.795  0.00  0.00    -0.080 S 
BRANCH  27  28
ATOM     28  C   UNL     1       4.924   6.257  -8.611  0.00  0.00    +0.104 C 
BRANCH  28  30
ATOM     29  C   UNL     1       4.407   7.679 -10.527  0.00  0.00    +0.005 C 
ATOM     30  C   UNL     1       4.583   6.466 -10.063  0.00  0.00    -0.023 C 
ENDBRANCH  28  30
ENDBRANCH  27  28
ENDBRANCH   1  27
TORSDOF 6
