REMARK  Name = ZINC06934847
REMARK  5 active torsions:
REMARK  status: ('A' for Active; 'I' for Inactive)
REMARK    1  A    between atoms: C_1  and  C_2
REMARK    2  A    between atoms: C_4  and  C_12
REMARK    3  A    between atoms: C_12  and  O_14
REMARK    4  A    between atoms: O_14  and  C_15
REMARK    5  A    between atoms: C_15  and  C_16
REMARK                            x       y       z     vdW  Elec       q    Type
REMARK                         _______ _______ _______ _____ _____    ______ ____
ROOT
ATOM      1  O   UNL     1      -4.912   2.337   1.189  0.00  0.00    -0.453 OA
ENDROOT
BRANCH   1   2
ATOM      2  C   UNL     1      -4.216   2.457   2.336  0.00  0.00    +0.340 C 
ATOM      3  O   UNL     1      -4.788   2.756   3.365  0.00  0.00    -0.245 OA
BRANCH   2   7
ATOM      4  C   UNL     1      -0.018   1.052   0.018  0.00  0.00    +0.065 C 
ATOM      5  C   UNL     1      -0.721   1.556   1.253  0.00  0.00    +0.040 A 
ATOM      6  C   UNL     1      -2.097   1.768   1.209  0.00  0.00    +0.038 A 
ATOM      7  C   UNL     1      -2.756   2.226   2.342  0.00  0.00    +0.070 A 
ATOM      8  C   UNL     1      -1.980   2.472   3.505  0.00  0.00    +0.014 A 
ATOM      9  C   UNL     1      -2.567   2.940   4.687  0.00  0.00    +0.011 A 
ATOM     10  C   UNL     1      -1.788   3.165   5.783  0.00  0.00    +0.001 A 
ATOM     11  C   UNL     1      -0.414   2.933   5.742  0.00  0.00    +0.002 A 
ATOM     12  C   UNL     1       0.187   2.477   4.610  0.00  0.00    +0.028 A 
ATOM     13  C   UNL     1      -0.584   2.234   3.459  0.00  0.00    +0.072 A 
ATOM     14  N   UNL     1      -0.019   1.787   2.334  0.00  0.00    -0.252 NA
ENDBRANCH   2   7
ENDBRANCH   1   2
BRANCH   1  15
ATOM     15  C   UNL     1      -6.342   2.578   1.257  0.00  0.00    +0.308 C 
BRANCH  15  16
ATOM     16  C   UNL     1      -6.947   2.399  -0.111  0.00  0.00    +0.173 A 
ATOM     17  N   UNL     1      -7.041   3.431  -0.931  0.00  0.00    -0.196 NA
ATOM     18  C   UNL     1      -7.571   3.275  -2.142  0.00  0.00    +0.217 A 
ATOM     19  N   UNL     1      -8.015   2.082  -2.522  0.00  0.00    -0.181 NA
ATOM     20  C   UNL     1      -7.925   1.048  -1.693  0.00  0.00    +0.217 A 
ATOM     21  N   UNL     1      -7.389   1.211  -0.486  0.00  0.00    -0.196 NA
ATOM     22  N   UNL     1      -8.386  -0.192  -2.083  0.00  0.00    -0.327 N 
ATOM     23  N   UNL     1      -7.663   4.352  -3.000  0.00  0.00    -0.327 N 
ATOM     24  H   UNL     1      -8.319  -0.947  -1.478  0.00  0.00    +0.145 HD
ATOM     25  H   UNL     1      -8.776  -0.310  -2.964  0.00  0.00    +0.145 HD
ATOM     26  H   UNL     1      -8.052   4.239  -3.881  0.00  0.00    +0.145 HD
ATOM     27  H   UNL     1      -7.338   5.223  -2.722  0.00  0.00    +0.145 HD
ENDBRANCH  15  16
ENDBRANCH   1  15
TORSDOF 4
