REMARK  Name = ZINC03830516
REMARK  6 active torsions:
REMARK  status: ('A' for Active; 'I' for Inactive)
REMARK    1  A    between atoms: C_1  and  C_2
REMARK    2  A    between atoms: CA_3  and  C_25
REMARK    3  A    between atoms: CA_7  and  N_11
REMARK    4  A    between atoms: C_12  and  CA_14
REMARK    5  A    between atoms: CA_14  and  C_16
REMARK    6  A    between atoms: CA_14  and  N_22
REMARK                            x       y       z     vdW  Elec       q    Type
REMARK                         _______ _______ _______ _____ _____    ______ ____
ROOT
ATOM      1  N   UNL     1      -1.266  -5.241  -0.149  0.00  0.00    -0.303 N 
ATOM      2  C   UNL     1      -1.515  -6.361   0.558  0.00  0.00    +0.203 C 
ATOM      3  O   UNL     1      -1.538  -6.320   1.770  0.00  0.00    -0.277 OA
ATOM      4  H   UNL     1      -1.248  -5.274  -1.119  0.00  0.00    +0.149 HD
ENDROOT
BRANCH   1  10
ATOM      5  C   UNL     1      -0.018   1.503   0.010  0.00  0.00    +0.042 C 
ATOM      6  C   UNL     1       0.002  -0.004   0.002  0.00  0.00    -0.034 C 
ATOM      7  CA  UNL     1      -1.181  -0.600   0.005  0.00  0.00    +0.126 C 
ATOM      8  N   UNL     1      -1.279  -2.002   0.045  0.00  0.00    -0.249 N 
ATOM      9  C   UNL     1      -0.202  -2.982  -0.250  0.00  0.00    +0.169 C 
ATOM     10  CA  UNL     1      -1.024  -3.975   0.545  0.00  0.00    +0.191 C 
ATOM     11  C   UNL     1      -2.125  -2.963   0.386  0.00  0.00    +0.244 C 
ATOM     12  O   UNL     1      -3.330  -3.009   0.517  0.00  0.00    -0.273 OA
ATOM     13  S   UNL     1       1.301  -2.351   0.572  0.00  0.00    -0.131 S 
ATOM     14  C   UNL     1       1.355  -0.640  -0.014  0.00  0.00    +0.103 C 
BRANCH   7  15
ATOM     15  C   UNL     1      -2.407   0.214  -0.035  0.00  0.00    +0.401 C 
ATOM     16  O   UNL     1      -2.329   1.435  -0.070  0.00  0.00    -0.239 OA
ATOM     17  OXT UNL     1      -3.503  -0.330  -0.032  0.00  0.00    -0.239 OA
ENDBRANCH   7  15
ENDBRANCH   1  10
BRANCH   2  18
ATOM     18  CA  UNL     1      -1.765  -7.664  -0.156  0.00  0.00    +0.039 C 
BRANCH  18  19
ATOM     19  C   UNL     1      -0.449  -8.267  -0.576  0.00  0.00    -0.075 C 
ATOM     20  C   UNL     1      -0.194  -8.380  -1.843  0.00  0.00    -0.024 C 
ATOM     21  C   UNL     1       1.084  -8.965  -2.366  0.00  0.00    +0.054 C 
ATOM     22  C   UNL     1       1.767  -9.796  -1.322  0.00  0.00    -0.027 C 
ATOM     23  C   UNL     1       1.512  -9.683  -0.055  0.00  0.00    -0.026 C 
ATOM     24  C   UNL     1       0.511  -8.705   0.489  0.00  0.00    +0.056 C 
ENDBRANCH  18  19
BRANCH  18  25
ATOM     25  N   UNL     1      -2.463  -8.591   0.745  0.00  0.00    +0.388 N 
ATOM     26  H1  UNL     1      -1.894  -8.758   1.562  0.00  0.00    -0.088 HD
ATOM     27  H2  UNL     1      -3.344  -8.187   1.026  0.00  0.00    -0.088 HD
ATOM     28  H3  UNL     1      -2.630  -9.463   0.267  0.00  0.00    -0.088 HD
ENDBRANCH  18  25
ENDBRANCH   2  18
TORSDOF 5
