REMARK  Name = ZINC36357940
REMARK  4 active torsions:
REMARK  status: ('A' for Active; 'I' for Inactive)
REMARK    1  A    between atoms: C_2  and  C_3
REMARK    2  A    between atoms: C_3  and  N_4
REMARK    3  A    between atoms: C_21  and  C_29
REMARK    4  A    between atoms: C_22  and  C_23
REMARK                            x       y       z     vdW  Elec       q    Type
REMARK                         _______ _______ _______ _____ _____    ______ ____
ROOT
ATOM      1  N   UNL     1      -1.318  -1.700  -1.126  0.00  0.00    -0.266 N 
ATOM      2  C   UNL     1      -1.813  -1.375  -2.377  0.00  0.00    +0.041 A 
ATOM      3  C   UNL     1      -2.364  -0.174  -2.827  0.00  0.00    +0.025 A 
ATOM      4  C   UNL     1      -2.785  -0.124  -4.146  0.00  0.00    +0.022 A 
ATOM      5  C   UNL     1      -2.671  -1.210  -4.991  0.00  0.00    +0.041 A 
ATOM      6  C   UNL     1      -2.123  -2.413  -4.555  0.00  0.00    +0.026 A 
ATOM      7  C   UNL     1      -1.701  -2.469  -3.244  0.00  0.00    -0.004 A 
ATOM      8  C   UNL     1      -1.073  -3.570  -2.450  0.00  0.00    +0.115 C 
ATOM      9  C   UNL     1      -0.855  -2.966  -1.078  0.00  0.00    +0.236 C 
ATOM     10  O   UNL     1      -0.360  -3.518  -0.118  0.00  0.00    -0.274 OA
ATOM     11  C   UNL     1       0.271  -3.981  -3.052  0.00  0.00    +0.122 C 
ATOM     12  C   UNL     1       0.075  -4.931  -4.198  0.00  0.00    +0.219 C 
ATOM     13  O   UNL     1       0.837  -4.865  -5.139  0.00  0.00    -0.275 OA
ATOM     14  N   UNL     1      -0.905  -5.851  -4.232  0.00  0.00    -0.284 N 
ATOM     15  C   UNL     1      -1.884  -5.855  -3.199  0.00  0.00    +0.054 A 
ATOM     16  C   UNL     1      -1.961  -4.769  -2.364  0.00  0.00    +0.032 A 
ATOM     17  S   UNL     1      -3.202  -5.092  -1.302  0.00  0.00    -0.083 S 
ATOM     18  C   UNL     1      -3.677  -6.703  -1.902  0.00  0.00    +0.110 A 
ATOM     19  C   UNL     1      -2.784  -6.893  -2.964  0.00  0.00    +0.025 A 
ATOM     20 CL   UNL     1      -3.223  -1.073  -6.631  0.00  0.00    -0.084 Cl
ATOM     21  H   UNL     1      -0.944  -6.502  -4.950  0.00  0.00    +0.155 HD
ENDROOT
BRANCH  19  22
ATOM     22  C   UNL     1      -2.794  -8.122  -3.789  0.00  0.00    -0.015 A 
ATOM     23  C   UNL     1      -3.123  -8.055  -5.143  0.00  0.00    +0.008 A 
ATOM     24  C   UNL     1      -3.131  -9.204  -5.906  0.00  0.00    +0.001 A 
ATOM     25  C   UNL     1      -2.814 -10.422  -5.331  0.00  0.00    +0.000 A 
ATOM     26  C   UNL     1      -2.487 -10.496  -3.989  0.00  0.00    +0.001 A 
ATOM     27  C   UNL     1      -2.470  -9.352  -3.216  0.00  0.00    +0.008 A 
ENDBRANCH  19  22
BRANCH  18  28
ATOM     28  C   UNL     1      -4.691  -7.566  -1.428  0.00  0.00    +0.394 C 
ATOM     29  O   UNL     1      -5.385  -7.231  -0.475  0.00  0.00    -0.240 OA
ATOM     30  O   UNL     1      -4.877  -8.649  -1.970  0.00  0.00    -0.240 OA
ENDBRANCH  18  28
BRANCH   1  31
ATOM     31  C   UNL     1      -1.293  -0.775   0.010  0.00  0.00    +0.140 C 
BRANCH  31  33
ATOM     32  C   UNL     1      -0.016   1.306   0.009  0.00  0.00    +0.005 C 
ATOM     33  C   UNL     1       0.002  -0.004   0.002  0.00  0.00    -0.015 C 
ENDBRANCH  31  33
ENDBRANCH   1  31
TORSDOF 4
