REMARK  Name = ZINC67486761
REMARK  9 active torsions:
REMARK  status: ('A' for Active; 'I' for Inactive)
REMARK    1  A    between atoms: C_1  and  C_2
REMARK    2  A    between atoms: C_5  and  N_8
REMARK    3  A    between atoms: N_11  and  C_12
REMARK    4  A    between atoms: N_20  and  C_22
REMARK    5  A    between atoms: C_22  and  C_24
REMARK    6  A    between atoms: C_22  and  C_25
REMARK    7  A    between atoms: N_27  and  C_28
REMARK    8  A    between atoms: C_28  and  C_29
REMARK    9  A    between atoms: C_28  and  C_30
REMARK                            x       y       z     vdW  Elec       q    Type
REMARK                         _______ _______ _______ _____ _____    ______ ____
ROOT
ATOM      1  C   UNL     1       2.065  -7.356   2.088  0.00  0.00    +0.038 A 
ATOM      2  C   UNL     1       2.016  -6.566   3.228  0.00  0.00    +0.023 A 
ATOM      3  C   UNL     1       1.540  -7.098   4.410  0.00  0.00    +0.002 A 
ATOM      4  C   UNL     1       1.117  -8.412   4.454  0.00  0.00    +0.002 A 
ATOM      5  C   UNL     1       1.164  -9.206   3.318  0.00  0.00    -0.059 A 
ATOM      6  C   UNL     1       1.631  -8.678   2.134  0.00  0.00    -0.027 A 
ATOM      7  C   UNL     1       1.686  -9.501   0.872  0.00  0.00    +0.019 C 
ATOM      8  C   UNL     1       1.558 -10.985   1.217  0.00  0.00    -0.073 C 
ATOM      9  N   UNL     1       0.384 -11.166   2.084  0.00  0.00    +0.390 N 
ATOM     10  C   UNL     1       0.695 -10.634   3.417  0.00  0.00    -0.042 C 
ATOM     11  H   UNL     1      -0.405 -10.673   1.692  0.00  0.00    -0.080 HD
ENDROOT
BRANCH   1  15
ATOM     12  N   UNL     1       3.719  -5.153  -0.250  0.00  0.00    -0.269 N 
ATOM     13  C   UNL     1       3.343  -5.733   0.907  0.00  0.00    +0.308 C 
ATOM     14  O   UNL     1       3.722  -5.276   1.968  0.00  0.00    -0.252 OA
ATOM     15  N   UNL     1       2.546  -6.820   0.888  0.00  0.00    -0.269 N 
ATOM     16  H   UNL     1       3.356  -5.470  -1.092  0.00  0.00    +0.156 HD
ATOM     17  H   UNL     1       2.307  -7.231   0.043  0.00  0.00    +0.156 HD
BRANCH  12  22
ATOM     18  C   UNL     1       7.425  -0.858  -0.197  0.00  0.00    +0.044 C 
ATOM     19  C   UNL     1       6.440  -1.999  -0.211  0.00  0.00    -0.050 A 
ATOM     20  C   UNL     1       6.587  -3.047   0.679  0.00  0.00    +0.005 A 
ATOM     21  C   UNL     1       5.686  -4.094   0.668  0.00  0.00    +0.023 A 
ATOM     22  C   UNL     1       4.633  -4.093  -0.236  0.00  0.00    +0.035 A 
ATOM     23  C   UNL     1       4.489  -3.039  -1.129  0.00  0.00    +0.023 A 
ATOM     24  C   UNL     1       5.389  -1.992  -1.109  0.00  0.00    +0.005 A 
ENDBRANCH  12  22
ENDBRANCH   1  15
BRANCH   9  25
ATOM     25  C   UNL     1       0.067 -12.597   2.190  0.00  0.00    +0.017 C 
ATOM     26  C   UNL     1      -1.141 -12.784   3.110  0.00  0.00    -0.004 C 
BRANCH  25  27
ATOM     27  C   UNL     1      -0.254 -13.143   0.823  0.00  0.00    +0.199 C 
ATOM     28  O   UNL     1      -0.503 -12.385  -0.090  0.00  0.00    -0.278 OA
ATOM     29  N   UNL     1      -0.263 -14.475   0.614  0.00  0.00    -0.314 N 
ATOM     30  H   UNL     1      -0.063 -15.081   1.344  0.00  0.00    +0.149 HD
BRANCH  29  31
ATOM     31  C   UNL     1      -0.574 -15.006  -0.715  0.00  0.00    +0.067 C 
ATOM     32  C   UNL     1       0.697 -15.029  -1.566  0.00  0.00    +0.027 C 
ATOM     33  C   UNL     1      -1.124 -16.427  -0.581  0.00  0.00    +0.027 C 
ENDBRANCH  29  31
ENDBRANCH  25  27
ENDBRANCH   9  25
TORSDOF 5
