REMARK  Name = ZINC09316267
REMARK  4 active torsions:
REMARK  status: ('A' for Active; 'I' for Inactive)
REMARK    1  A    between atoms: C_1  and  C_2
REMARK    2  A    between atoms: C_5  and  C_7
REMARK    3  A    between atoms: C_7  and  S_8
REMARK    4  A    between atoms: S_8  and  C_9
REMARK                            x       y       z     vdW  Elec       q    Type
REMARK                         _______ _______ _______ _____ _____    ______ ____
ROOT
ATOM      1  C   UNL     1       1.638  -5.377   2.600  0.00  0.00    +0.191 A 
ATOM      2  N   UNL     1       0.431  -5.842   2.902  0.00  0.00    -0.207 NA
ATOM      3  C   UNL     1       0.254  -6.830   3.763  0.00  0.00    +0.129 A 
ATOM      4  C   UNL     1       1.389  -7.419   4.389  0.00  0.00    +0.051 A 
ATOM      5  C   UNL     1       1.433  -8.511   5.364  0.00  0.00    -0.025 A 
ATOM      6  C   UNL     1       2.648  -8.886   5.808  0.00  0.00    -0.004 A 
ATOM      7  S   UNL     1       3.795  -7.826   4.969  0.00  0.00    -0.073 S 
ATOM      8  C   UNL     1       2.636  -6.876   4.021  0.00  0.00    +0.115 A 
ATOM      9  N   UNL     1       2.730  -5.891   3.149  0.00  0.00    -0.214 NA
ATOM     10  C   UNL     1       2.959  -9.967   6.798  0.00  0.00    +0.043 C 
ATOM     11  C   UNL     1       1.661 -10.348   7.524  0.00  0.00    +0.005 C 
ATOM     12  C   UNL     1       0.558 -10.551   6.482  0.00  0.00    +0.005 C 
ATOM     13  C   UNL     1       0.170  -9.206   5.867  0.00  0.00    +0.037 C 
ATOM     14  N   UNL     1      -1.019  -7.287   4.051  0.00  0.00    -0.343 N 
ATOM     15  H   UNL     1      -1.759  -7.060   3.467  0.00  0.00    +0.144 HD
ATOM     16  H   UNL     1      -1.171  -7.834   4.838  0.00  0.00    +0.144 HD
ENDROOT
BRANCH   1  17
ATOM     17  S   UNL     1       1.790  -4.056   1.444  0.00  0.00    -0.076 S 
BRANCH  17  18
ATOM     18  C   UNL     1       0.078  -3.687   0.971  0.00  0.00    +0.175 C 
BRANCH  18  23
ATOM     19  C   UNL     1      -0.056   0.886  -1.132  0.00  0.00    +0.111 C 
ATOM     20  C   UNL     1       0.007  -0.606  -0.927  0.00  0.00    +0.214 A 
ATOM     21  N   UNL     1       0.090  -1.509  -1.862  0.00  0.00    -0.113 NA
ATOM     22  N   UNL     1       0.124  -2.678  -1.325  0.00  0.00    -0.112 NA
ATOM     23  C   UNL     1       0.065  -2.559  -0.029  0.00  0.00    +0.227 A 
ATOM     24  O   UNL     1      -0.006  -1.248   0.253  0.00  0.00    -0.424 OA
ENDBRANCH  18  23
ENDBRANCH  17  18
ENDBRANCH   1  17
TORSDOF 3
