REMARK  Name = ZINC01438778
REMARK  7 active torsions:
REMARK  status: ('A' for Active; 'I' for Inactive)
REMARK    1  A    between atoms: C_1  and  C_2
REMARK    2  A    between atoms: C_2  and  C_3
REMARK    3  A    between atoms: C_2  and  C_4
REMARK    4  A    between atoms: C_7  and  C_10
REMARK    5  A    between atoms: C_10  and  C_11
REMARK    6  A    between atoms: N_18  and  C_21
REMARK    7  A    between atoms: C_21  and  C_22
REMARK                            x       y       z     vdW  Elec       q    Type
REMARK                         _______ _______ _______ _____ _____    ______ ____
ROOT
ATOM      1  C   UNL     1       4.047   3.595  -3.443  0.00  0.00    +0.166 C 
ATOM      2  C   UNL     1       3.518   4.891  -4.030  0.00  0.00    +0.233 C 
ATOM      3  O   UNL     1       3.784   5.221  -5.166  0.00  0.00    -0.275 OA
ATOM      4  N   UNL     1       2.742   5.663  -3.240  0.00  0.00    -0.239 N 
ATOM      5  C   UNL     1       2.440   5.313  -1.985  0.00  0.00    +0.315 C 
ATOM      6  O   UNL     1       1.735   6.067  -1.344  0.00  0.00    -0.252 OA
ATOM      7  N   UNL     1       2.858   4.194  -1.383  0.00  0.00    -0.221 N 
ATOM      8  C   UNL     1       3.649   3.297  -2.010  0.00  0.00    +0.236 C 
ATOM      9  O   UNL     1       4.024   2.290  -1.450  0.00  0.00    -0.274 OA
ATOM     10  H   UNL     1       2.392   6.495  -3.594  0.00  0.00    +0.159 HD
ENDROOT
BRANCH   1  11
ATOM     11  C   UNL     1       5.575   3.633  -3.506  0.00  0.00    +0.057 C 
BRANCH  11  15
ATOM     12  C   UNL     1       6.832   3.671  -7.589  0.00  0.00    -0.045 A 
ATOM     13  C   UNL     1       6.599   4.861  -6.926  0.00  0.00    +0.004 A 
ATOM     14  C   UNL     1       6.192   4.849  -5.605  0.00  0.00    +0.004 A 
ATOM     15  C   UNL     1       6.018   3.646  -4.947  0.00  0.00    -0.046 A 
ATOM     16  C   UNL     1       6.256   2.456  -5.608  0.00  0.00    +0.004 A 
ATOM     17  C   UNL     1       6.658   2.468  -6.930  0.00  0.00    +0.004 A 
BRANCH  12  19
ATOM     18  C   UNL     1       8.637   2.996  -9.149  0.00  0.00    +0.012 C 
ATOM     19  C   UNL     1       7.276   3.684  -9.029  0.00  0.00    +0.013 C 
ATOM     20  C   UNL     1       6.250   2.939  -9.886  0.00  0.00    +0.012 C 
ENDBRANCH  12  19
ENDBRANCH  11  15
ENDBRANCH   1  11
BRANCH   7  21
ATOM     21  C   UNL     1       2.451   3.937   0.001  0.00  0.00    +0.153 C 
BRANCH  21  22
ATOM     22  C   UNL     1       1.156   3.165   0.008  0.00  0.00    -0.030 A 
ATOM     23  C   UNL     1       1.175   1.783   0.000  0.00  0.00    +0.005 A 
ATOM     24  C   UNL     1      -0.013   1.076   0.008  0.00  0.00    +0.000 A 
ATOM     25  C   UNL     1      -1.219   1.751   0.017  0.00  0.00    +0.000 A 
ATOM     26  C   UNL     1      -1.238   3.133   0.029  0.00  0.00    +0.000 A 
ATOM     27  C   UNL     1      -0.050   3.840   0.023  0.00  0.00    +0.005 A 
ENDBRANCH  21  22
ENDBRANCH   7  21
TORSDOF 5
