REMARK  Name = ZINC61890898
REMARK  5 active torsions:
REMARK  status: ('A' for Active; 'I' for Inactive)
REMARK    1  A    between atoms: C_1  and  C_2
REMARK    2  A    between atoms: C_7  and  S_8
REMARK    3  A    between atoms: S_8  and  N_11
REMARK    4  A    between atoms: N_11  and  C_12
REMARK    5  A    between atoms: C_17  and  C_19
REMARK                            x       y       z     vdW  Elec       q    Type
REMARK                         _______ _______ _______ _____ _____    ______ ____
ROOT
ATOM      1  S   UNL     1      -0.251   0.215   3.118  0.00  0.00    +0.059 S 
ATOM      2  O   UNL     1      -1.223   1.184   3.486  0.00  0.00    -0.153 OA
ATOM      3  O   UNL     1       0.039  -0.918   3.925  0.00  0.00    -0.153 OA
ENDROOT
BRANCH   1  10
ATOM      4  C   UNL     1       1.323  -1.837   1.550  0.00  0.00    +0.046 C 
ATOM      5  C   UNL     1       0.059  -1.341   0.897  0.00  0.00    -0.024 A 
ATOM      6  C   UNL     1      -0.317  -1.829  -0.341  0.00  0.00    +0.006 A 
ATOM      7  C   UNL     1      -1.476  -1.375  -0.940  0.00  0.00    +0.015 A 
ATOM      8  C   UNL     1      -2.260  -0.431  -0.302  0.00  0.00    +0.020 A 
ATOM      9  C   UNL     1      -1.884   0.058   0.936  0.00  0.00    +0.044 A 
ATOM     10  C   UNL     1      -0.727  -0.402   1.538  0.00  0.00    +0.109 A 
ATOM     11 BR   UNL     1      -3.846   0.192  -1.122  0.00  0.00    -0.050 Br
ENDBRANCH   1  10
BRANCH   1  12
ATOM     12  N   UNL     1       1.177   1.030   2.916  0.00  0.00    -0.186 NA
ATOM     13  H   UNL     1       1.986   0.703   3.340  0.00  0.00    +0.148 HD
BRANCH  12  14
ATOM     14  C   UNL     1       1.217   2.244   2.098  0.00  0.00    +0.093 C 
ATOM     15  C   UNL     1       2.153   2.036   0.889  0.00  0.00    +0.022 C 
ATOM     16  C   UNL     1       2.853   3.406   0.710  0.00  0.00    +0.003 C 
ATOM     17  C   UNL     1       3.077   3.869   2.171  0.00  0.00    +0.020 C 
ATOM     18  C   UNL     1       1.803   3.410   2.913  0.00  0.00    +0.110 C 
BRANCH  18  19
ATOM     19  C   UNL     1       2.146   2.954   4.270  0.00  0.00    +0.067 C 
ATOM     20  N   UNL     1       2.411   2.602   5.317  0.00  0.00    -0.196 NA
ENDBRANCH  18  19
ENDBRANCH  12  14
ENDBRANCH   1  12
TORSDOF 4
