REMARK  Name = ZINC36537543
REMARK  17 active torsions:
REMARK  status: ('A' for Active; 'I' for Inactive)
REMARK    1  A    between atoms: C_1  and  C_2
REMARK    2  A    between atoms: C_2  and  C_3
REMARK    3  A    between atoms: C_2  and  C_4
REMARK    4  A    between atoms: C_2  and  C_5
REMARK    5  A    between atoms: C_5  and  C_6
REMARK    6  A    between atoms: C_6  and  C_7
REMARK    7  A    between atoms: C_6  and  C_8
REMARK    8  A    between atoms: C_6  and  N_9
REMARK    9  A    between atoms: C_10  and  C_12
REMARK   10  A    between atoms: C_12  and  C_14
REMARK   11  A    between atoms: C_12  and  N_23
REMARK   12  A    between atoms: C_15  and  O_22
REMARK   13  A    between atoms: C_17  and  O_21
REMARK   14  A    between atoms: C_19  and  O_20
REMARK   15  A    between atoms: N_23  and  C_24
REMARK   16  A    between atoms: C_25  and  C_27
REMARK   17  A    between atoms: C_31  and  N_33
REMARK                            x       y       z     vdW  Elec       q    Type
REMARK                         _______ _______ _______ _____ _____    ______ ____
ROOT
ATOM      1  C   UNL     1       5.541  -1.189  -3.478  0.00  0.00    +0.199 C 
ENDROOT
BRANCH   1   2
ATOM      2  C   UNL     1       5.487  -2.596  -4.015  0.00  0.00    +0.065 A 
ATOM      3  C   UNL     1       5.738  -3.669  -3.173  0.00  0.00    +0.129 A 
ATOM      4  C   UNL     1       5.689  -4.964  -3.667  0.00  0.00    +0.091 A 
ATOM      5  C   UNL     1       5.388  -5.186  -5.002  0.00  0.00    +0.124 A 
ATOM      6  C   UNL     1       5.137  -4.113  -5.844  0.00  0.00    +0.091 A 
ATOM      7  C   UNL     1       5.182  -2.818  -5.349  0.00  0.00    +0.129 A 
BRANCH   7   8
ATOM      8  O   UNL     1       4.930  -1.767  -6.173  0.00  0.00    -0.506 OA
ATOM      9  H   UNL     1       5.716  -1.417  -6.615  0.00  0.00    +0.292 HD
ENDBRANCH   7   8
BRANCH   5  10
ATOM     10  O   UNL     1       5.341  -6.455  -5.487  0.00  0.00    -0.507 OA
ATOM     11  H   UNL     1       4.468  -6.867  -5.426  0.00  0.00    +0.292 HD
ENDBRANCH   5  10
BRANCH   3  12
ATOM     12  O   UNL     1       6.032  -3.452  -1.864  0.00  0.00    -0.506 OA
ATOM     13  H   UNL     1       5.269  -3.514  -1.274  0.00  0.00    +0.292 HD
ENDBRANCH   3  12
ENDBRANCH   1   2
BRANCH   1  15
ATOM     14  N   UNL     1       3.451  -1.417  -2.174  0.00  0.00    -0.308 N 
ATOM     15  C   UNL     1       4.764  -1.113  -2.189  0.00  0.00    +0.239 C 
ATOM     16  O   UNL     1       5.321  -0.778  -1.165  0.00  0.00    -0.273 OA
ATOM     17  H   UNL     1       3.006  -1.685  -2.993  0.00  0.00    +0.149 HD
BRANCH  14  18
ATOM     18  C   UNL     1       2.696  -1.344  -0.921  0.00  0.00    +0.030 C 
ATOM     19  C   UNL     1       2.780   0.076  -0.358  0.00  0.00    +0.031 C 
ATOM     20  C   UNL     1       3.288  -2.329   0.090  0.00  0.00    +0.031 C 
BRANCH  18  21
ATOM     21  C   UNL     1       1.233  -1.702  -1.185  0.00  0.00    +0.031 C 
BRANCH  21  23
ATOM     22  C   UNL     1       0.908  -1.960  -3.649  0.00  0.00    +0.010 C 
ATOM     23  C   UNL     1       0.760  -1.006  -2.462  0.00  0.00    -0.036 C 
ATOM     24  C   UNL     1       1.607   0.245  -2.705  0.00  0.00    +0.010 C 
ATOM     25  C   UNL     1      -0.709  -0.605  -2.310  0.00  0.00    +0.010 C 
ENDBRANCH  21  23
ENDBRANCH  18  21
ENDBRANCH  14  18
ENDBRANCH   1  15
BRANCH   1  26
ATOM     26  N   UNL     1       6.935  -0.813  -3.232  0.00  0.00    -0.285 N 
ATOM     27  C   UNL     1       7.675  -1.429  -2.128  0.00  0.00    +0.133 C 
ATOM     28  C   UNL     1       7.536   0.100  -4.020  0.00  0.00    +0.247 C 
ATOM     29  O   UNL     1       6.930   0.593  -4.951  0.00  0.00    -0.270 OA
BRANCH  28  30
ATOM     30  C   UNL     1       8.934   0.501  -3.753  0.00  0.00    +0.039 A 
ATOM     31  C   UNL     1       9.879  -0.456  -3.380  0.00  0.00    +0.013 A 
ATOM     32  C   UNL     1      11.181  -0.075  -3.132  0.00  0.00    +0.003 A 
ATOM     33  C   UNL     1      11.552   1.253  -3.253  0.00  0.00    +0.033 A 
ATOM     34  C   UNL     1      10.620   2.207  -3.622  0.00  0.00    +0.127 A 
ATOM     35  C   UNL     1       9.316   1.838  -3.878  0.00  0.00    +0.045 A 
BRANCH  34  36
ATOM     36  N   UNL     1      11.025   3.625  -3.748  0.00  0.00    +0.056 N 
ATOM     37  O   UNL     1      12.169   3.948  -3.528  0.00  0.00    -0.126 OA
ATOM     38  O   UNL     1      10.212   4.459  -4.070  0.00  0.00    -0.126 OA
ENDBRANCH  34  36
ENDBRANCH  28  30
ENDBRANCH   1  26
TORSDOF 11
