REMARK  Name = ZINC62388228
REMARK  8 active torsions:
REMARK  status: ('A' for Active; 'I' for Inactive)
REMARK    1  A    between atoms: C_1  and  C_2
REMARK    2  A    between atoms: N_5  and  C_11
REMARK    3  A    between atoms: C_7  and  C_10
REMARK    4  A    between atoms: C_11  and  C_12
REMARK    5  A    between atoms: C_16  and  O_22
REMARK    6  A    between atoms: N_18  and  C_19
REMARK    7  A    between atoms: C_19  and  C_20
REMARK    8  A    between atoms: C_20  and  O_21
REMARK                            x       y       z     vdW  Elec       q    Type
REMARK                         _______ _______ _______ _____ _____    ______ ____
ROOT
ATOM      1  C   UNL     1       4.150   0.228  -2.991  0.00  0.00    +0.037 A 
ATOM      2  C   UNL     1       5.272  -0.514  -3.127  0.00  0.00    +0.077 A 
ATOM      3  C   UNL     1       6.533   0.112  -3.009  0.00  0.00    +0.223 A 
ATOM      4  O   UNL     1       7.564  -0.535  -3.127  0.00  0.00    -0.284 OA
ATOM      5  C   UNL     1       6.579   1.506  -2.752  0.00  0.00    +0.180 A 
ATOM      6  C   UNL     1       5.419   2.193  -2.627  0.00  0.00    +0.135 A 
ATOM      7  N   UNL     1       4.223   1.559  -2.751  0.00  0.00    -0.344 N 
ENDROOT
BRANCH   5   8
ATOM      8  O   UNL     1       7.775   2.145  -2.631  0.00  0.00    -0.502 OA
ATOM      9  H   UNL     1       8.543   1.567  -2.736  0.00  0.00    +0.292 HD
ENDBRANCH   5   8
BRANCH   1  10
ATOM     10  C   UNL     1       2.801  -0.433  -3.115  0.00  0.00    +0.138 C 
BRANCH  10  14
ATOM     11  C   UNL     1      -0.036   0.622  -0.131  0.00  0.00    +0.039 C 
ATOM     12  C   UNL     1       0.070  -0.845  -0.555  0.00  0.00    +0.130 C 
ATOM     13  C   UNL     1       0.755  -0.934  -1.921  0.00  0.00    +0.116 C 
ATOM     14  N   UNL     1       2.127  -0.418  -1.811  0.00  0.00    -0.292 NA
ATOM     15  C   UNL     1       2.891  -1.180  -0.813  0.00  0.00    +0.116 C 
ATOM     16  C   UNL     1       2.185  -1.088   0.542  0.00  0.00    +0.130 C 
ATOM     17  O   UNL     1       0.843  -1.565   0.409  0.00  0.00    -0.371 OA
ATOM     18  C   UNL     1       2.933  -1.944   1.567  0.00  0.00    +0.039 C 
ENDBRANCH  10  14
ENDBRANCH   1  10
BRANCH   7  19
ATOM     19  C   UNL     1       2.986   2.332  -2.617  0.00  0.00    +0.149 C 
BRANCH  19  20
ATOM     20  C   UNL     1       2.636   2.481  -1.135  0.00  0.00    +0.177 C 
BRANCH  20  21
ATOM     21  O   UNL     1       3.637   3.268  -0.486  0.00  0.00    -0.393 OA
ATOM     22  H   UNL     1       3.479   3.404   0.459  0.00  0.00    +0.209 HD
ENDBRANCH  20  21
ENDBRANCH  19  20
ENDBRANCH   7  19
TORSDOF 6
