REMARK  Name = ZINC04872732
REMARK  10 active torsions:
REMARK  status: ('A' for Active; 'I' for Inactive)
REMARK    1  A    between atoms: C_1  and  C_2
REMARK    2  A    between atoms: C_2  and  C_3
REMARK    3  A    between atoms: C_2  and  C_4
REMARK    4  A    between atoms: C_4  and  C_6
REMARK    5  A    between atoms: C_4  and  N_17
REMARK    6  A    between atoms: N_8  and  C_9
REMARK    7  A    between atoms: C_18  and  C_20
REMARK    8  A    between atoms: C_22  and  C_32
REMARK    9  A    between atoms: C_24  and  C_31
REMARK   10  A    between atoms: C_27  and  C_30
REMARK                            x       y       z     vdW  Elec       q    Type
REMARK                         _______ _______ _______ _____ _____    ______ ____
ROOT
ATOM      1  N   UNL     1      -0.006   0.974   0.032  0.00  0.00    -0.303 N 
ATOM      2  C   UNL     1       1.151   1.665   0.036  0.00  0.00    +0.220 C 
ATOM      3  O   UNL     1       1.133   2.878   0.048  0.00  0.00    -0.275 OA
ATOM      4  H   UNL     1       0.009   0.004   0.023  0.00  0.00    +0.149 HD
ENDROOT
BRANCH   2   5
ATOM      5  C   UNL     1       2.468   0.931   0.026  0.00  0.00    +0.048 C 
ATOM      6  C   UNL     1       2.559   0.065  -1.232  0.00  0.00    +0.023 C 
ATOM      7  C   UNL     1       3.895  -0.680  -1.242  0.00  0.00    -0.030 C 
ATOM      8  C   UNL     1       5.043   0.332  -1.236  0.00  0.00    +0.013 C 
ATOM      9  C   UNL     1       4.952   1.198   0.022  0.00  0.00    -0.030 C 
ATOM     10  C   UNL     1       3.615   1.943   0.033  0.00  0.00    +0.023 C 
ATOM     11  C   UNL     1       5.049   0.308   1.263  0.00  0.00    +0.013 C 
ATOM     12  C   UNL     1       3.901  -0.704   1.256  0.00  0.00    -0.030 C 
ATOM     13  C   UNL     1       3.992  -1.570  -0.002  0.00  0.00    +0.013 C 
ATOM     14  C   UNL     1       2.565   0.041   1.266  0.00  0.00    +0.023 C 
ATOM     15  C   UNL     1       3.998  -1.594   2.497  0.00  0.00    +0.011 C 
ATOM     16  C   UNL     1       6.100   2.209   0.029  0.00  0.00    +0.011 C 
ATOM     17  C   UNL     1       3.986  -1.546  -2.500  0.00  0.00    +0.011 C 
ENDBRANCH   2   5
BRANCH   1  18
ATOM     18  C   UNL     1      -1.285   1.687   0.036  0.00  0.00    +0.162 C 
BRANCH  18  19
ATOM     19  C   UNL     1      -2.352   0.801   0.625  0.00  0.00    +0.238 C 
ATOM     20  O   UNL     1      -2.072  -0.316   1.005  0.00  0.00    -0.273 OA
ATOM     21  N   UNL     1      -3.619   1.251   0.731  0.00  0.00    -0.282 N 
ATOM     22  H   UNL     1      -3.830   2.166   0.487  0.00  0.00    +0.155 HD
BRANCH  21  23
ATOM     23  C   UNL     1      -4.629   0.396   1.191  0.00  0.00    +0.069 A 
ATOM     24  C   UNL     1      -4.346  -0.557   2.159  0.00  0.00    +0.029 A 
ATOM     25  C   UNL     1      -5.343  -1.399   2.612  0.00  0.00    +0.040 A 
ATOM     26  C   UNL     1      -6.626  -1.293   2.102  0.00  0.00    +0.126 A 
ATOM     27  C   UNL     1      -6.913  -0.343   1.136  0.00  0.00    +0.078 A 
ATOM     28  C   UNL     1      -5.919   0.506   0.684  0.00  0.00    +0.147 A 
ATOM     29  F   UNL     1      -6.200   1.437  -0.254  0.00  0.00    -0.203 F 
ATOM     30  F   UNL     1      -7.599  -2.117   2.547  0.00  0.00    -0.205 F 
ENDBRANCH  21  23
ENDBRANCH  18  19
BRANCH  18  32
ATOM     31  C   UNL     1      -0.582   2.958  -1.997  0.00  0.00    +0.009 C 
ATOM     32  C   UNL     1      -1.666   2.059  -1.399  0.00  0.00    +0.012 C 
ATOM     33  C   UNL     1      -1.794   0.787  -2.239  0.00  0.00    +0.009 C 
ENDBRANCH  18  32
ENDBRANCH   1  18
TORSDOF 5
