REMARK  Name = ZINC30343372
REMARK  7 active torsions:
REMARK  status: ('A' for Active; 'I' for Inactive)
REMARK    1  A    between atoms: C_1  and  C_2
REMARK    2  A    between atoms: C_2  and  C_4
REMARK    3  A    between atoms: C_2  and  N_11
REMARK    4  A    between atoms: C_12  and  C_14
REMARK    5  A    between atoms: C_14  and  N_15
REMARK    6  A    between atoms: C_18  and  C_22
REMARK    7  A    between atoms: C_18  and  C_23
REMARK                            x       y       z     vdW  Elec       q    Type
REMARK                         _______ _______ _______ _____ _____    ______ ____
ROOT
ATOM      1  C   UNL     1       2.880  -1.158  -2.243  0.00  0.00    +0.213 C 
ENDROOT
BRANCH   1   2
ATOM      2  N   UNL     1       4.296  -1.267  -1.883  0.00  0.00    -0.215 N 
ATOM      3  C   UNL     1       5.191  -0.269  -2.022  0.00  0.00    +0.254 C 
ATOM      4  O   UNL     1       4.985   0.846  -2.451  0.00  0.00    -0.272 OA
ATOM      5  C   UNL     1       6.510  -0.830  -1.527  0.00  0.00    +0.168 C 
ATOM      6  N   UNL     1       6.173  -2.208  -1.130  0.00  0.00    -0.279 N 
ATOM      7  C   UNL     1       4.859  -2.367  -1.371  0.00  0.00    +0.310 C 
ATOM      8  O   UNL     1       4.252  -3.396  -1.150  0.00  0.00    -0.252 OA
ATOM      9  C   UNL     1       7.018  -0.032  -0.325  0.00  0.00    +0.050 C 
ATOM     10  H   UNL     1       6.780  -2.870  -0.764  0.00  0.00    +0.152 HD
BRANCH   5  11
ATOM     11  C   UNL     1       7.533  -0.832  -2.634  0.00  0.00    +0.137 A 
ATOM     12  C   UNL     1       8.543  -1.711  -2.770  0.00  0.00    +0.047 A 
ATOM     13  C   UNL     1       9.251  -1.343  -3.937  0.00  0.00    +0.041 A 
ATOM     14  C   UNL     1       8.632  -0.262  -4.445  0.00  0.00    +0.195 A 
ATOM     15  O   UNL     1       7.589   0.040  -3.654  0.00  0.00    -0.465 OA
ENDBRANCH   5  11
ENDBRANCH   1   2
BRANCH   1  17
ATOM     16  N   UNL     1       0.764  -0.485  -1.153  0.00  0.00    -0.307 N 
ATOM     17  C   UNL     1       2.096  -0.663  -1.055  0.00  0.00    +0.231 C 
ATOM     18  O   UNL     1       2.665  -0.425  -0.010  0.00  0.00    -0.274 OA
ATOM     19  H   UNL     1       0.310  -0.676  -1.989  0.00  0.00    +0.149 HD
BRANCH  16  21
ATOM     20  C   UNL     1       0.009   1.526   0.016  0.00  0.00    +0.033 C 
ATOM     21  C   UNL     1       0.002  -0.004   0.002  0.00  0.00    +0.102 C 
BRANCH  21  22
ATOM     22  C   UNL     1      -1.418  -0.499  -0.092  0.00  0.00    -0.009 A 
ATOM     23  C   UNL     1      -1.976  -0.770  -1.327  0.00  0.00    +0.007 A 
ATOM     24  C   UNL     1      -3.279  -1.224  -1.413  0.00  0.00    +0.000 A 
ATOM     25  C   UNL     1      -4.025  -1.407  -0.264  0.00  0.00    +0.001 A 
ATOM     26  C   UNL     1      -3.468  -1.137   0.972  0.00  0.00    +0.020 A 
ATOM     27  C   UNL     1      -2.162  -0.688   1.059  0.00  0.00    +0.046 A 
ATOM     28 CL   UNL     1      -1.461  -0.354   2.611  0.00  0.00    -0.083 Cl
ENDBRANCH  21  22
ENDBRANCH  16  21
ENDBRANCH   1  17
TORSDOF 5
