REMARK  Name = ZINC03528291
REMARK  9 active torsions:
REMARK  status: ('A' for Active; 'I' for Inactive)
REMARK    1  A    between atoms: C_1  and  C_2
REMARK    2  A    between atoms: C_2  and  C_3
REMARK    3  A    between atoms: C_3  and  C_22
REMARK    4  A    between atoms: N_6  and  N_10
REMARK    5  A    between atoms: C_11  and  C_12
REMARK    6  A    between atoms: C_13  and  C_20
REMARK    7  A    between atoms: C_16  and  C_19
REMARK    8  A    between atoms: C_17  and  O_18
REMARK    9  A    between atoms: C_20  and  O_21
REMARK                            x       y       z     vdW  Elec       q    Type
REMARK                         _______ _______ _______ _____ _____    ______ ____
ROOT
ATOM      1  N   UNL     1      -3.597  -0.736   0.033  0.00  0.00    -0.176 NA
ATOM      2  C   UNL     1      -2.499  -0.045   0.034  0.00  0.00    +0.143 C 
ENDROOT
BRANCH   1   6
ATOM      3  C   UNL     1      -6.477   1.491   0.315  0.00  0.00    +0.111 C 
ATOM      4  C   UNL     1      -4.987   1.251   0.171  0.00  0.00    +0.266 C 
ATOM      5  O   UNL     1      -4.115   2.090   0.089  0.00  0.00    -0.271 OA
ATOM      6  N   UNL     1      -4.833  -0.087   0.153  0.00  0.00    -0.109 N 
ATOM      7  C   UNL     1      -6.007  -0.721   0.260  0.00  0.00    +0.330 C 
ATOM      8  O   UNL     1      -6.124  -1.930   0.264  0.00  0.00    -0.250 OA
ATOM      9  N   UNL     1      -7.043   0.131   0.367  0.00  0.00    -0.284 N 
ATOM     10  C   UNL     1      -6.778   2.252   1.608  0.00  0.00    +0.041 C 
ATOM     11  H   UNL     1      -7.979  -0.104   0.457  0.00  0.00    +0.151 HD
BRANCH   3  13
ATOM     12  C   UNL     1      -8.523   2.480  -0.724  0.00  0.00    +0.006 C 
ATOM     13  C   UNL     1      -7.019   2.253  -0.895  0.00  0.00    +0.032 C 
ENDBRANCH   3  13
ENDBRANCH   1   6
BRANCH   2  14
ATOM     14  C   UNL     1      -1.195  -0.732   0.019  0.00  0.00    +0.045 A 
ATOM     15  C   UNL     1       0.003  -0.006   0.021  0.00  0.00    +0.008 A 
ATOM     16  C   UNL     1       1.200  -0.690   0.001  0.00  0.00    +0.117 A 
ATOM     17  N   UNL     1       1.230  -2.009  -0.009  0.00  0.00    -0.256 NA
ATOM     18  C   UNL     1       0.131  -2.736  -0.011  0.00  0.00    +0.080 A 
ATOM     19  C   UNL     1      -1.118  -2.135   0.003  0.00  0.00    +0.147 A 
ATOM     20  C   UNL     1       0.233  -4.240  -0.029  0.00  0.00    +0.069 C 
BRANCH  19  21
ATOM     21  O   UNL     1      -2.248  -2.889   0.001  0.00  0.00    -0.504 OA
ATOM     22  H   UNL     1      -2.580  -3.098  -0.883  0.00  0.00    +0.292 HD
ENDBRANCH  19  21
BRANCH  15  23
ATOM     23  C   UNL     1      -0.017   1.500   0.038  0.00  0.00    +0.193 C 
BRANCH  23  24
ATOM     24  O   UNL     1       1.324   1.994   0.036  0.00  0.00    -0.390 OA
ATOM     25  H   UNL     1       1.388   2.959   0.046  0.00  0.00    +0.210 HD
ENDBRANCH  23  24
ENDBRANCH  15  23
ENDBRANCH   2  14
TORSDOF 6
