REMARK  Name = ZINC42890733
REMARK  10 active torsions:
REMARK  status: ('A' for Active; 'I' for Inactive)
REMARK    1  A    between atoms: C_1  and  C_2
REMARK    2  A    between atoms: C_6  and  C_7
REMARK    3  A    between atoms: C_7  and  N_8
REMARK    4  A    between atoms: N_11  and  C_12
REMARK    5  A    between atoms: C_12  and  C_14
REMARK    6  A    between atoms: C_12  and  C_16
REMARK    7  A    between atoms: C_14  and  O_15
REMARK    8  A    between atoms: C_16  and  C_18
REMARK    9  A    between atoms: C_16  and  O_27
REMARK   10  A    between atoms: C_21  and  N_24
REMARK                            x       y       z     vdW  Elec       q    Type
REMARK                         _______ _______ _______ _____ _____    ______ ____
ROOT
ATOM      1  C   UNK A   1      -3.118   1.056   6.088  0.00  0.00    +0.133 C 
ENDROOT
BRANCH   1   5
ATOM      2  N   UNK A   0      -1.349  -0.028   3.053  0.00  0.00    -0.295 N 
ATOM      3  C   UNK A   0      -1.589   0.425   4.299  0.00  0.00    +0.300 C 
ATOM      4  O   UNK A   0      -0.661   0.710   5.032  0.00  0.00    -0.253 OA
ATOM      5  N   UNK A   1      -2.857   0.564   4.733  0.00  0.00    -0.292 N 
ATOM      6  H   UNK A   0      -2.089  -0.255   2.468  0.00  0.00    +0.151 HD
ATOM      7  H   UNK A   1      -3.598   0.337   4.149  0.00  0.00    +0.151 HD
BRANCH   2   8
ATOM      8  C   UNK A   0       0.030  -0.179   2.581  0.00  0.00    +0.148 C 
BRANCH   8  14
ATOM      9  C   UNK A   0      -0.018   1.503   0.010  0.00  0.00    +0.044 C 
ATOM     10  C   UNK A   0       0.002  -0.004   0.002  0.00  0.00    -0.039 A 
ATOM     11  C   UNK A   0       0.006  -0.699  -1.193  0.00  0.00    +0.011 A 
ATOM     12  C   UNK A   0       0.024  -2.054  -1.165  0.00  0.00    +0.046 A 
ATOM     13  S   UNK A   0       0.037  -2.387   0.589  0.00  0.00    -0.100 S 
ATOM     14  C   UNK A   0       0.023  -0.698   1.166  0.00  0.00    +0.010 A 
ENDBRANCH   8  14
ENDBRANCH   2   8
ENDBRANCH   1   5
BRANCH   1  15
ATOM     15  C   UNK A   1      -3.063  -0.111   7.075  0.00  0.00    +0.181 C 
BRANCH  15  16
ATOM     16  O   UNK A   1      -4.126  -1.024   6.793  0.00  0.00    -0.393 OA
ATOM     17  H   UNK A   1      -4.152  -1.790   7.382  0.00  0.00    +0.209 HD
ENDBRANCH  15  16
ENDBRANCH   1  15
BRANCH   1  18
ATOM     18  C   UNK A   1      -4.505   1.701   6.138  0.00  0.00    +0.167 C 
BRANCH  18  19
ATOM     19  C   UNK A   1      -4.600   2.771   5.080  0.00  0.00    -0.017 A 
ATOM     20  C   UNK A   1      -4.954   2.435   3.787  0.00  0.00    +0.008 A 
ATOM     21  C   UNK A   1      -5.042   3.416   2.817  0.00  0.00    +0.033 A 
ATOM     22  C   UNK A   1      -4.775   4.733   3.141  0.00  0.00    +0.126 A 
ATOM     23  C   UNK A   1      -4.421   5.069   4.434  0.00  0.00    +0.033 A 
ATOM     24  C   UNK A   1      -4.338   4.089   5.405  0.00  0.00    +0.008 A 
BRANCH  22  25
ATOM     25  N   UNK A   1      -4.867   5.783   2.102  0.00  0.00    +0.056 N 
ATOM     26  O   UNK A   1      -5.176   5.489   0.971  0.00  0.00    -0.126 OA
ATOM     27  O   UNK A   1      -4.634   6.936   2.385  0.00  0.00    -0.126 OA
ENDBRANCH  22  25
ENDBRANCH  18  19
BRANCH  18  28
ATOM     28  O   UNK A   1      -5.502   0.706   5.899  0.00  0.00    -0.385 OA
ATOM     29  H   UNK A   1      -5.422   0.267   5.041  0.00  0.00    +0.210 HD
ENDBRANCH  18  28
ENDBRANCH   1  18
TORSDOF 9
