REMARK  Name = ZINC67277076
REMARK  3 active torsions:
REMARK  status: ('A' for Active; 'I' for Inactive)
REMARK    1  A    between atoms: C_1  and  C_2
REMARK    2  A    between atoms: C_5  and  N_7
REMARK    3  A    between atoms: C_8  and  C_10
REMARK                            x       y       z     vdW  Elec       q    Type
REMARK                         _______ _______ _______ _____ _____    ______ ____
ROOT
ATOM      1  C   UNL     1       3.163  -3.631   1.371  0.00  0.00    +0.075 C 
ATOM      2  C   UNL     1       3.792  -3.544  -0.021  0.00  0.00    +0.015 C 
ATOM      3  C   UNL     1       4.529  -4.851  -0.329  0.00  0.00    +0.036 C 
ATOM      4  C   UNL     1       5.609  -5.086   0.721  0.00  0.00    +0.112 C 
ATOM      5  C   UNL     1       4.998  -5.153   2.117  0.00  0.00    +0.036 C 
ATOM      6  C   UNL     1       4.260  -3.845   2.416  0.00  0.00    +0.015 C 
ATOM      7  C   UNL     1       6.373  -6.354   0.418  0.00  0.00    +0.244 C 
ATOM      8  O   UNL     1       5.931  -7.481   0.364  0.00  0.00    -0.273 OA
ATOM      9  N   UNL     1       7.650  -5.966   0.220  0.00  0.00    -0.238 N 
ATOM     10  C   UNL     1       7.790  -4.642   0.357  0.00  0.00    +0.307 C 
ATOM     11  O   UNL     1       8.847  -4.057   0.227  0.00  0.00    -0.252 OA
ATOM     12  N   UNL     1       6.628  -4.030   0.656  0.00  0.00    -0.285 N 
ATOM     13  H   UNL     1       8.377  -6.572   0.006  0.00  0.00    +0.159 HD
ATOM     14  H   UNL     1       6.491  -3.081   0.799  0.00  0.00    +0.151 HD
ENDROOT
BRANCH   1  16
ATOM     15  N   UNL     1       1.414  -1.953   0.877  0.00  0.00    -0.312 N 
ATOM     16  C   UNL     1       2.429  -2.349   1.670  0.00  0.00    +0.216 C 
ATOM     17  O   UNL     1       2.751  -1.675   2.625  0.00  0.00    -0.276 OA
ATOM     18  H   UNL     1       1.156  -2.493   0.113  0.00  0.00    +0.149 HD
BRANCH  15  22
ATOM     19  C   UNL     1      -0.019   1.526   0.010  0.00  0.00    +0.009 C 
ATOM     20  C   UNL     1       0.002  -0.004   0.002  0.00  0.00    +0.008 C 
ATOM     21  C   UNL     1      -0.828  -0.728   1.065  0.00  0.00    +0.027 C 
ATOM     22  C   UNL     1       0.700  -0.708   1.168  0.00  0.00    +0.076 C 
ENDBRANCH  15  22
ENDBRANCH   1  16
TORSDOF 2
