REMARK  Name = ZINC02469229
REMARK  6 active torsions:
REMARK  status: ('A' for Active; 'I' for Inactive)
REMARK    1  A    between atoms: C_1  and  C_2
REMARK    2  A    between atoms: C_3  and  S_12
REMARK    3  A    between atoms: S_12  and  N_15
REMARK    4  A    between atoms: C_19  and  C_22
REMARK    5  A    between atoms: N_24  and  C_25
REMARK    6  A    between atoms: C_28  and  C_31
REMARK                            x       y       z     vdW  Elec       q    Type
REMARK                         _______ _______ _______ _____ _____    ______ ____
ROOT
ATOM      1  N   UNL     1      -4.257   1.290   0.035  0.00  0.00    -0.176 NA
ATOM      2  C   UNL     1      -4.486   2.108  -1.164  0.00  0.00    +0.109 C 
ATOM      3  C   UNL     1      -3.270   3.013  -1.384  0.00  0.00    +0.018 C 
ATOM      4  C   UNL     1      -2.004   2.155  -1.441  0.00  0.00    +0.015 C 
ATOM      5  C   UNL     1      -1.824   1.419  -0.111  0.00  0.00    +0.091 C 
ATOM      6  C   UNL     1      -3.024   0.495   0.123  0.00  0.00    +0.122 C 
ENDROOT
BRANCH   5   7
ATOM      7  C   UNL     1      -0.560   0.599  -0.156  0.00  0.00    +0.218 C 
ATOM      8  O   UNL     1      -0.613  -0.604  -0.016  0.00  0.00    -0.275 OA
ATOM      9  N   UNL     1       0.627   1.203  -0.359  0.00  0.00    -0.312 N 
ATOM     10  H   UNL     1       0.674   2.295  -0.487  0.00  0.00    +0.149 HD
BRANCH   9  11
ATOM     11  C   UNL     1       1.855   0.406  -0.409  0.00  0.00    +0.073 C 
ATOM     12  C   UNL     1       2.377   0.183   1.012  0.00  0.00    +0.022 C 
ATOM     13  C   UNL     1       3.659  -0.649   0.959  0.00  0.00    +0.005 C 
ATOM     14  C   UNL     1       4.716   0.093   0.138  0.00  0.00    -0.014 C 
ATOM     15  C   UNL     1       4.194   0.316  -1.282  0.00  0.00    +0.005 C 
ATOM     16  C   UNL     1       2.912   1.148  -1.230  0.00  0.00    +0.022 C 
ATOM     17  C   UNL     1       5.999  -0.740   0.086  0.00  0.00    +0.007 C 
ENDBRANCH   9  11
ENDBRANCH   5   7
BRANCH   1  18
ATOM     18  S   UNL     1      -5.366   1.266   1.265  0.00  0.00    +0.068 S 
ATOM     19  O   UNL     1      -6.577   1.782   0.729  0.00  0.00    -0.153 OA
ATOM     20  O   UNL     1      -5.284  -0.022   1.860  0.00  0.00    -0.153 OA
BRANCH  18  23
ATOM     21  C   UNL     1      -6.157   4.167   1.341  0.00  0.00    +0.065 C 
ATOM     22  C   UNL     1      -5.230   3.705   2.435  0.00  0.00    +0.049 A 
ATOM     23  C   UNL     1      -4.822   2.419   2.481  0.00  0.00    +0.188 A 
ATOM     24  C   UNL     1      -3.955   2.007   3.522  0.00  0.00    +0.281 A 
ATOM     25  O   UNL     1      -3.577   0.851   3.586  0.00  0.00    -0.266 OA
ATOM     26  N   UNL     1      -3.548   2.909   4.439  0.00  0.00    -0.273 N 
ATOM     27  H   UNL     1      -2.868   2.602   5.247  0.00  0.00    +0.173 HD
ATOM     28  C   UNL     1      -3.970   4.185   4.369  0.00  0.00    +0.327 A 
ATOM     29  O   UNL     1      -3.598   4.985   5.205  0.00  0.00    -0.247 OA
ATOM     30  N   UNL     1      -4.798   4.587   3.388  0.00  0.00    -0.310 N 
ATOM     31  H   UNL     1      -5.127   5.636   3.356  0.00  0.00    +0.170 HD
ENDBRANCH  18  23
ENDBRANCH   1  18
TORSDOF 4
