REMARK  Name = ZINC44711151
REMARK  10 active torsions:
REMARK  status: ('A' for Active; 'I' for Inactive)
REMARK    1  A    between atoms: C_1  and  C_2
REMARK    2  A    between atoms: C_2  and  C_3
REMARK    3  A    between atoms: C_2  and  C_4
REMARK    4  A    between atoms: C_2  and  C_5
REMARK    5  A    between atoms: N_7  and  C_8
REMARK    6  A    between atoms: C_8  and  C_9
REMARK    7  A    between atoms: C_9  and  C_10
REMARK    8  A    between atoms: C_10  and  C_11
REMARK    9  A    between atoms: N_13  and  C_14
REMARK   10  A    between atoms: C_18  and  C_20
REMARK                            x       y       z     vdW  Elec       q    Type
REMARK                         _______ _______ _______ _____ _____    ______ ____
ROOT
ATOM      1  C   UNL     1       2.291  -5.815  -3.940  0.00  0.00    +0.217 C 
ATOM      2  O   UNL     1       1.790  -6.433  -3.024  0.00  0.00    -0.275 OA
ATOM      3  N   UNL     1       2.873  -6.475  -4.960  0.00  0.00    -0.285 N 
ATOM      4  H   UNL     1       3.213  -5.984  -5.724  0.00  0.00    +0.155 HD
ENDROOT
BRANCH   3   5
ATOM      5  C   UNL     1       2.985  -7.870  -4.918  0.00  0.00    +0.034 A 
ATOM      6  C   UNL     1       1.977  -8.631  -4.335  0.00  0.00    +0.025 A 
ATOM      7  C   UNL     1       2.082 -10.007  -4.291  0.00  0.00    +0.022 A 
ATOM      8  C   UNL     1       3.190 -10.638  -4.825  0.00  0.00    +0.053 A 
ATOM      9  C   UNL     1       4.207  -9.882  -5.412  0.00  0.00    +0.057 A 
ATOM     10  C   UNL     1       4.097  -8.492  -5.462  0.00  0.00    +0.037 A 
ATOM     11 CL   UNL     1       3.317 -12.368  -4.765  0.00  0.00    -0.083 Cl
BRANCH   9  12
ATOM     12  C   UNL     1       5.393 -10.553  -5.984  0.00  0.00    +0.243 C 
ATOM     13  O   UNL     1       5.485 -11.764  -5.944  0.00  0.00    -0.270 OA
ATOM     14  N   UNL     1       6.373  -9.821  -6.551  0.00  0.00    -0.325 N 
ATOM     15  H   UNL     1       6.300  -8.855  -6.583  0.00  0.00    +0.145 HD
ATOM     16  H   UNL     1       7.152 -10.261  -6.926  0.00  0.00    +0.145 HD
ENDBRANCH   9  12
ENDBRANCH   3   5
BRANCH   1  17
ATOM     17  C   UNL     1       2.263  -4.308  -3.936  0.00  0.00    +0.097 C 
BRANCH  17  18
ATOM     18  C   UNL     1       1.550  -3.814  -2.675  0.00  0.00    +0.028 C 
BRANCH  18  19
ATOM     19  C   UNL     1       1.522  -2.284  -2.671  0.00  0.00    +0.104 C 
BRANCH  19  22
ATOM     20  C   UNL     1       0.695  -0.490  -1.245  0.00  0.00    +0.218 C 
ATOM     21  O   UNL     1       1.130   0.309  -2.048  0.00  0.00    -0.275 OA
ATOM     22  N   UNL     1       0.840  -1.812  -1.464  0.00  0.00    -0.315 N 
ATOM     23  H   UNL     1       0.492  -2.450  -0.822  0.00  0.00    +0.149 HD
BRANCH  20  25
ATOM     24  C   UNL     1      -0.035   1.526   0.000  0.00  0.00    +0.020 C 
ATOM     25  C   UNL     1      -0.007  -0.004  -0.004  0.00  0.00    +0.039 C 
ATOM     26  C   UNL     1       0.741  -0.503   1.234  0.00  0.00    +0.020 C 
ATOM     27  C   UNL     1      -1.440  -0.540   0.015  0.00  0.00    +0.020 C 
ENDBRANCH  20  25
ENDBRANCH  19  22
ENDBRANCH  18  19
ENDBRANCH  17  18
ENDBRANCH   1  17
TORSDOF 7
