REMARK  Name = ZINC01426959
REMARK  8 active torsions:
REMARK  status: ('A' for Active; 'I' for Inactive)
REMARK    1  A    between atoms: C_1  and  C_2
REMARK    2  A    between atoms: C_5  and  C_8
REMARK    3  A    between atoms: C_12  and  C_16
REMARK    4  A    between atoms: C_13  and  C_15
REMARK    5  A    between atoms: C_16  and  O_18
REMARK    6  A    between atoms: O_18  and  C_19
REMARK    7  A    between atoms: C_21  and  N_25
REMARK    8  A    between atoms: C_22  and  C_23
REMARK                            x       y       z     vdW  Elec       q    Type
REMARK                         _______ _______ _______ _____ _____    ______ ____
ROOT
ATOM      1  C   UNL     1      -1.345   2.151   0.020  0.00  0.00    +0.105 C 
ATOM      2  C   UNL     1      -1.083   3.594  -0.265  0.00  0.00    +0.046 A 
ATOM      3  C   UNL     1       0.137   4.191  -0.271  0.00  0.00    +0.155 A 
ATOM      4  C   UNL     1       0.128   5.606  -0.586  0.00  0.00    +0.111 A 
ATOM      5  C   UNL     1      -1.094   6.197  -0.844  0.00  0.00    +0.005 A 
ATOM      6  S   UNL     1      -2.216   4.887  -0.670  0.00  0.00    -0.093 S 
ATOM      7  C   UNL     1      -1.382   7.634  -1.192  0.00  0.00    +0.052 C 
ATOM      8  O   UNL     1       1.258   3.446   0.010  0.00  0.00    -0.440 OA
ATOM      9  C   UNL     1       1.152   2.107   0.002  0.00  0.00    +0.199 C 
ATOM     10  C   UNL     1      -0.017   1.428   0.010  0.00  0.00    +0.098 C 
ENDROOT
BRANCH   1  15
ATOM     11  C   UNL     1      -3.821   1.620   5.214  0.00  0.00    +0.044 C 
ATOM     12  C   UNL     1      -3.176   1.759   3.860  0.00  0.00    -0.050 A 
ATOM     13  C   UNL     1      -3.820   1.280   2.734  0.00  0.00    +0.003 A 
ATOM     14  C   UNL     1      -3.228   1.407   1.492  0.00  0.00    +0.005 A 
ATOM     15  C   UNL     1      -1.991   2.013   1.375  0.00  0.00    -0.034 A 
ATOM     16  C   UNL     1      -1.344   2.487   2.501  0.00  0.00    +0.005 A 
ATOM     17  C   UNL     1      -1.939   2.365   3.742  0.00  0.00    +0.003 A 
ENDBRANCH   1  15
BRANCH   9  18
ATOM     18  N   UNL     1       2.314   1.376  -0.015  0.00  0.00    -0.328 N 
ATOM     19  H   UNL     1       2.277   0.406  -0.021  0.00  0.00    +0.145 HD
ATOM     20  H   UNL     1       3.172   1.828  -0.021  0.00  0.00    +0.145 HD
ENDBRANCH   9  18
BRANCH   4  21
ATOM     21  C   UNL     1       1.373   6.384  -0.630  0.00  0.00    +0.343 C 
ATOM     22  O   UNL     1       1.995   6.479  -1.670  0.00  0.00    -0.245 OA
BRANCH  21  23
ATOM     23  O   UNL     1       1.827   6.992   0.484  0.00  0.00    -0.464 OA
ATOM     24  C   UNL     1       3.064   7.744   0.367  0.00  0.00    +0.280 C 
ENDBRANCH  21  23
ENDBRANCH   4  21
BRANCH  10  25
ATOM     25  C   UNL     1       0.002  -0.004   0.002  0.00  0.00    +0.101 C 
ATOM     26  N   UNL     1       0.018  -1.140  -0.004  0.00  0.00    -0.191 NA
ENDBRANCH  10  25
TORSDOF 5
