REMARK  Name = ZINC37581854
REMARK  6 active torsions:
REMARK  status: ('A' for Active; 'I' for Inactive)
REMARK    1  A    between atoms: C_1  and  C_2
REMARK    2  A    between atoms: N_8  and  S_9
REMARK    3  A    between atoms: S_9  and  C_12
REMARK    4  A    between atoms: C_16  and  C_18
REMARK    5  A    between atoms: C_19  and  C_20
REMARK    6  A    between atoms: C_20  and  N_21
REMARK                            x       y       z     vdW  Elec       q    Type
REMARK                         _______ _______ _______ _____ _____    ______ ____
ROOT
ATOM      1  C   UNL     1       0.087  -5.011   3.896  0.00  0.00    +0.114 A 
ATOM      2  C   UNL     1       1.292  -5.210   4.547  0.00  0.00    +0.029 A 
ATOM      3  C   UNL     1       1.312  -5.651   5.858  0.00  0.00    +0.003 A 
ATOM      4  C   UNL     1       0.129  -5.895   6.525  0.00  0.00    +0.017 A 
ATOM      5  C   UNL     1      -1.089  -5.696   5.875  0.00  0.00    +0.027 A 
ATOM      6  C   UNL     1      -1.103  -5.246   4.554  0.00  0.00    +0.046 A 
ENDROOT
BRANCH   1   7
ATOM      7  S   UNL     1       0.072  -4.449   2.227  0.00  0.00    +0.101 S 
ATOM      8  O   UNL     1      -1.171  -4.858   1.672  0.00  0.00    -0.146 OA
ATOM      9  O   UNL     1       1.319  -4.825   1.660  0.00  0.00    -0.146 OA
BRANCH   7  17
ATOM     10  C   UNL     1      -0.018   1.503   0.010  0.00  0.00    +0.044 C 
ATOM     11  C   UNL     1       0.002  -0.004   0.002  0.00  0.00    -0.046 A 
ATOM     12  C   UNL     1       0.006  -0.704  -1.217  0.00  0.00    +0.021 A 
ATOM     13  C   UNL     1       0.024  -2.053  -1.230  0.00  0.00    +0.084 A 
ATOM     14  N   UNL     1       0.039  -2.761  -0.066  0.00  0.00    -0.345 N 
ATOM     15  C   UNL     1       0.036  -2.108   1.143  0.00  0.00    +0.153 A 
ATOM     16  C   UNL     1       0.022  -0.693   1.173  0.00  0.00    +0.051 A 
ATOM     17  N   UNL     1       0.051  -2.794   2.267  0.00  0.00    -0.111 NA
ATOM     18  H   UNL     1       0.052  -3.731  -0.090  0.00  0.00    +0.167 HD
ENDBRANCH   7  17
ENDBRANCH   1   7
BRANCH   5  19
ATOM     19  C   UNL     1      -2.320  -5.947   6.562  0.00  0.00    -0.068 C 
ATOM     20  C   UNL     1      -3.329  -6.154   7.125  0.00  0.00    -0.117 C 
BRANCH  20  21
ATOM     21  C   UNL     1      -4.595  -6.412   7.831  0.00  0.00    +0.005 C 
BRANCH  21  22
ATOM     22  N   UNL     1      -5.723  -6.128   6.934  0.00  0.00    +0.385 N 
ATOM     23  H   UNL     1      -6.590  -6.305   7.418  0.00  0.00    -0.089 HD
ATOM     24  H   UNL     1      -5.689  -5.161   6.647  0.00  0.00    -0.089 HD
ATOM     25  H   UNL     1      -5.664  -6.723   6.121  0.00  0.00    -0.089 HD
ENDBRANCH  21  22
ENDBRANCH  20  21
ENDBRANCH   5  19
TORSDOF 5
