REMARK  Name = ZINC13018140
REMARK  7 active torsions:
REMARK  status: ('A' for Active; 'I' for Inactive)
REMARK    1  A    between atoms: C_4  and  O_7
REMARK    2  A    between atoms: O_7  and  C_8
REMARK    3  A    between atoms: C_12  and  C_14
REMARK    4  A    between atoms: C_14  and  C_16
REMARK    5  A    between atoms: C_14  and  N_31
REMARK    6  A    between atoms: C_16  and  C_17
REMARK    7  A    between atoms: N_19  and  C_20
REMARK                            x       y       z     vdW  Elec       q    Type
REMARK                         _______ _______ _______ _____ _____    ______ ____
ROOT
ATOM      1  C   UNL     1      -0.983   1.640   1.109  0.00  0.00    +0.113 C 
ENDROOT
BRANCH   1   2
ATOM      2  N   UNL     1      -0.953   3.101   1.208  0.00  0.00    -0.292 N 
ATOM      3  C   UNL     1      -1.931   3.752   1.870  0.00  0.00    +0.298 C 
ATOM      4  O   UNL     1      -2.786   3.123   2.463  0.00  0.00    -0.253 OA
ATOM      5  N   UNL     1      -1.960   5.099   1.875  0.00  0.00    -0.313 N 
ATOM      6  H   UNL     1      -0.230   3.601   0.797  0.00  0.00    +0.151 HD
ATOM      7  H   UNL     1      -1.278   5.601   1.401  0.00  0.00    +0.146 HD
ATOM      8  H   UNL     1      -2.664   5.567   2.351  0.00  0.00    +0.146 HD
ENDBRANCH   1   2
BRANCH   1  13
ATOM      9  C   UNL     1      -0.056  -0.681   3.943  0.00  0.00    +0.129 A 
ATOM     10  C   UNL     1       1.068  -0.051   4.458  0.00  0.00    +0.046 A 
ATOM     11  C   UNL     1       1.523   1.122   3.887  0.00  0.00    +0.004 A 
ATOM     12  C   UNL     1       0.859   1.668   2.804  0.00  0.00    +0.006 A 
ATOM     13  C   UNL     1      -0.261   1.042   2.289  0.00  0.00    -0.023 A 
ATOM     14  C   UNL     1      -0.723  -0.129   2.860  0.00  0.00    +0.051 A 
BRANCH   9  15
ATOM     15  O   UNL     1      -0.505  -1.835   4.503  0.00  0.00    -0.456 OA
BRANCH  15  19
ATOM     16  C   UNL     1      -0.219  -5.303   2.288  0.00  0.00    +0.000 A 
ATOM     17  C   UNL     1       0.342  -4.132   1.812  0.00  0.00    +0.004 A 
ATOM     18  C   UNL     1       0.247  -2.970   2.552  0.00  0.00    +0.046 A 
ATOM     19  C   UNL     1      -0.411  -2.977   3.773  0.00  0.00    +0.128 A 
ATOM     20  C   UNL     1      -0.968  -4.155   4.251  0.00  0.00    +0.046 A 
ATOM     21  C   UNL     1      -0.875  -5.314   3.505  0.00  0.00    +0.004 A 
ENDBRANCH  15  19
ENDBRANCH   9  15
ENDBRANCH   1  13
BRANCH   1  22
ATOM     22  C   UNL     1      -0.293   1.202  -0.185  0.00  0.00    +0.123 C 
BRANCH  22  23
ATOM     23  C   UNL     1      -1.085   1.698  -1.368  0.00  0.00    +0.216 C 
ATOM     24  O   UNL     1      -2.100   2.338  -1.193  0.00  0.00    -0.276 OA
ATOM     25  N   UNL     1      -0.664   1.430  -2.620  0.00  0.00    -0.308 N 
ATOM     26  H   UNL     1       0.148   0.918  -2.760  0.00  0.00    +0.149 HD
BRANCH  25  27
ATOM     27  C   UNL     1      -1.434   1.912  -3.770  0.00  0.00    +0.103 C 
ATOM     28  C   UNL     1      -0.506   2.045  -4.976  0.00  0.00    +0.027 C 
ATOM     29  C   UNL     1      -1.362   2.339  -6.214  0.00  0.00    +0.007 C 
ATOM     30  C   UNL     1      -2.158   1.082  -6.559  0.00  0.00    +0.035 C 
ATOM     31  C   UNL     1      -2.884   0.564  -5.344  0.00  0.00    -0.042 A 
ATOM     32  C   UNL     1      -2.548   0.942  -4.063  0.00  0.00    -0.024 A 
ATOM     33  C   UNL     1      -3.253   0.422  -2.986  0.00  0.00    +0.006 A 
ATOM     34  C   UNL     1      -4.289  -0.467  -3.189  0.00  0.00    +0.000 A 
ATOM     35  C   UNL     1      -4.628  -0.843  -4.475  0.00  0.00    +0.000 A 
ATOM     36  C   UNL     1      -3.928  -0.329  -5.547  0.00  0.00    +0.004 A 
ENDBRANCH  25  27
ENDBRANCH  22  23
ENDBRANCH   1  22
TORSDOF 7
