REMARK  Name = ZINC09515547
REMARK  8 active torsions:
REMARK  status: ('A' for Active; 'I' for Inactive)
REMARK    1  A    between atoms: C_1  and  C_2
REMARK    2  A    between atoms: C_2  and  C_4
REMARK    3  A    between atoms: C_2  and  N_45
REMARK    4  A    between atoms: N_6  and  C_7
REMARK    5  A    between atoms: C_8  and  C_15
REMARK    6  A    between atoms: C_18  and  N_45
REMARK    7  A    between atoms: C_19  and  C_20
REMARK    8  A    between atoms: C_19  and  N_45
REMARK                            x       y       z     vdW  Elec       q    Type
REMARK                         _______ _______ _______ _____ _____    ______ ____
ROOT
ATOM      1  C   UNL     1       1.633   4.494   0.399  0.00  0.00    +0.204 C 
ATOM      2  O   UNL     1       0.422   4.464   0.451  0.00  0.00    -0.277 OA
ATOM      3  N   UNL     1       2.348   3.383   0.668  0.00  0.00    -0.281 N 
ATOM      4  H   UNL     1       3.316   3.407   0.627  0.00  0.00    +0.155 HD
ENDROOT
BRANCH   3   5
ATOM      5  C   UNL     1       1.697   2.205   1.005  0.00  0.00    +0.084 A 
ATOM      6  C   UNL     1       2.251   0.975   1.313  0.00  0.00    +0.068 A 
ATOM      7  C   UNL     1       1.334  -0.118   1.637  0.00  0.00    -0.023 A 
ATOM      8  C   UNL     1       0.028   0.202   1.599  0.00  0.00    -0.004 A 
ATOM      9  S   UNL     1      -0.004   1.918   1.143  0.00  0.00    -0.077 S 
ATOM     10  C   UNL     1      -0.850  -0.970   1.946  0.00  0.00    +0.043 C 
ATOM     11  C   UNL     1       0.099  -1.977   2.634  0.00  0.00    +0.010 C 
ATOM     12  C   UNL     1       1.461  -1.593   2.023  0.00  0.00    +0.037 C 
BRANCH   6  13
ATOM     13  C   UNL     1       3.703   0.774   1.315  0.00  0.00    +0.244 C 
ATOM     14  O   UNL     1       4.270   0.420   0.298  0.00  0.00    -0.270 OA
ATOM     15  N   UNL     1       4.411   0.982   2.443  0.00  0.00    -0.325 N 
ATOM     16  H   UNL     1       3.959   1.264   3.254  0.00  0.00    +0.145 HD
ATOM     17  H   UNL     1       5.372   0.849   2.444  0.00  0.00    +0.145 HD
ENDBRANCH   6  13
ENDBRANCH   3   5
BRANCH   1  19
ATOM     18  C   UNL     1       3.069   5.590  -1.300  0.00  0.00    -0.004 C 
ATOM     19  C   UNL     1       2.340   5.773   0.033  0.00  0.00    +0.017 C 
BRANCH  19  21
ATOM     20  C   UNL     1       2.018   8.170  -0.094  0.00  0.00    -0.095 C 
ATOM     21  N   UNL     1       1.340   6.856  -0.069  0.00  0.00    +0.390 N 
ATOM     22  H   UNL     1       0.721   6.816   0.749  0.00  0.00    -0.081 HD
BRANCH  21  23
ATOM     23  C   UNL     1       0.530   6.683  -1.293  0.00  0.00    -0.003 C 
BRANCH  23  24
ATOM     24  C   UNL     1      -0.616   7.661  -1.260  0.00  0.00    +0.089 A 
ATOM     25  C   UNL     1      -0.603   8.905  -1.771  0.00  0.00    +0.042 A 
ATOM     26  C   UNL     1      -1.877   9.465  -1.520  0.00  0.00    +0.041 A 
ATOM     27  C   UNL     1      -2.592   8.529  -0.871  0.00  0.00    +0.195 A 
ATOM     28  O   UNL     1      -1.825   7.437  -0.722  0.00  0.00    -0.470 OA
ENDBRANCH  23  24
ENDBRANCH  21  23
ENDBRANCH  19  21
ENDBRANCH   1  19
TORSDOF 6
