REMARK  Name = ZINC13594499
REMARK  9 active torsions:
REMARK  status: ('A' for Active; 'I' for Inactive)
REMARK    1  A    between atoms: C_1  and  C_2
REMARK    2  A    between atoms: C_4  and  C_27
REMARK    3  A    between atoms: N_5  and  C_7
REMARK    4  A    between atoms: C_7  and  C_8
REMARK    5  A    between atoms: C_8  and  N_9
REMARK    6  A    between atoms: C_10  and  C_12
REMARK    7  A    between atoms: C_12  and  C_13
REMARK    8  A    between atoms: C_20  and  C_21
REMARK    9  A    between atoms: C_20  and  N_60
REMARK                            x       y       z     vdW  Elec       q    Type
REMARK                         _______ _______ _______ _____ _____    ______ ____
ROOT
ATOM      1  C   UNL     1       1.691  -3.385  -2.692  0.00  0.00    +0.028 C 
ATOM      2  C   UNL     1       2.261  -3.691  -4.048  0.00  0.00    +0.200 C 
ATOM      3  O   UNL     1       2.199  -2.839  -4.910  0.00  0.00    -0.278 OA
ATOM      4  N   UNL     1       2.832  -4.862  -4.345  0.00  0.00    -0.318 N 
ATOM      5  C   UNL     1       2.988  -5.939  -3.371  0.00  0.00    +0.085 C 
ATOM      6  C   UNL     1       2.043  -5.717  -2.188  0.00  0.00    -0.059 C 
ATOM      7  H   UNL     1       3.158  -5.003  -5.248  0.00  0.00    +0.149 HD
ATOM      8  N   UNL     1       2.236  -4.336  -1.705  0.00  0.00    +0.389 N 
ATOM      9  H   UNL     1       3.241  -4.159  -1.587  0.00  0.00    -0.081 HD
ENDROOT
BRANCH   1  10
ATOM     10  C   UNL     1       2.085  -1.964  -2.284  0.00  0.00    +0.089 C 
BRANCH  10  12
ATOM     11  N   UNL     1       4.169  -0.700  -1.864  0.00  0.00    -0.314 N 
ATOM     12  C   UNL     1       3.580  -1.885  -2.118  0.00  0.00    +0.212 C 
ATOM     13  O   UNL     1       4.255  -2.889  -2.212  0.00  0.00    -0.276 OA
ATOM     14  H   UNL     1       3.630   0.103  -1.788  0.00  0.00    +0.149 HD
BRANCH  11  15
ATOM     15  C   UNL     1       5.623  -0.623  -1.702  0.00  0.00    +0.127 C 
BRANCH  15  16
ATOM     16  C   UNL     1       6.030   0.825  -1.424  0.00  0.00    +0.162 C 
BRANCH  16  21
ATOM     17  C   UNL     1      10.580   0.814   0.696  0.00  0.00    +0.067 C 
ATOM     18  C   UNL     1       9.464   0.893  -0.314  0.00  0.00    +0.060 A 
ATOM     19  C   UNL     1       9.614   1.117  -1.687  0.00  0.00    +0.047 A 
ATOM     20  C   UNL     1       8.382   1.118  -2.246  0.00  0.00    +0.036 A 
ATOM     21  N   UNL     1       7.484   0.902  -1.262  0.00  0.00    -0.267 N 
ATOM     22  N   UNL     1       8.187   0.769  -0.058  0.00  0.00    -0.176 NA
ATOM     23  C   UNL     1       8.069   1.323  -3.705  0.00  0.00    +0.065 C 
ENDBRANCH  16  21
ENDBRANCH  15  16
ENDBRANCH  11  15
ENDBRANCH  10  12
ENDBRANCH   1  10
BRANCH   8  24
ATOM     24  C   UNL     1       1.560  -4.156  -0.400  0.00  0.00    -0.074 C 
BRANCH  24  25
ATOM     25  C   UNL     1       0.343  -5.079  -0.307  0.00  0.00    -0.028 C 
ATOM     26  C   UNL     1      -0.715  -4.633  -1.319  0.00  0.00    +0.002 C 
ATOM     27  C   UNL     1      -1.931  -5.556  -1.226  0.00  0.00    +0.000 C 
ATOM     28  C   UNL     1      -2.516  -5.487   0.186  0.00  0.00    +0.000 C 
ATOM     29  C   UNL     1      -1.459  -5.933   1.199  0.00  0.00    +0.000 C 
ATOM     30  C   UNL     1      -0.242  -5.010   1.105  0.00  0.00    +0.002 C 
ENDBRANCH  24  25
ENDBRANCH   8  24
TORSDOF 7
