REMARK  Name = ZINC09500548
REMARK  5 active torsions:
REMARK  status: ('A' for Active; 'I' for Inactive)
REMARK    1  A    between atoms: C_1  and  C_2
REMARK    2  A    between atoms: C_2  and  C_20
REMARK    3  A    between atoms: N_5  and  C_9
REMARK    4  A    between atoms: C_9  and  N_52
REMARK    5  A    between atoms: N_12  and  C_15
REMARK                            x       y       z     vdW  Elec       q    Type
REMARK                         _______ _______ _______ _____ _____    ______ ____
ROOT
ATOM      1  C   UNL     1       2.898   4.227  -1.435  0.00  0.00    +0.047 C 
ATOM      2  C   UNL     1       2.458   3.931   0.001  0.00  0.00    +0.135 C 
ATOM      3  C   UNL     1       3.535   3.163   0.741  0.00  0.00    +0.249 C 
ATOM      4  O   UNL     1       3.977   2.069   0.462  0.00  0.00    -0.272 OA
ATOM      5  N   UNL     1       3.900   3.950   1.773  0.00  0.00    -0.241 N 
ATOM      6  C   UNL     1       3.210   5.096   1.787  0.00  0.00    +0.308 C 
ATOM      7  O   UNL     1       3.362   5.966   2.623  0.00  0.00    -0.252 OA
ATOM      8  N   UNL     1       2.327   5.180   0.771  0.00  0.00    -0.281 N 
ATOM      9  H   UNL     1       1.725   5.917   0.582  0.00  0.00    +0.152 HD
ENDROOT
BRANCH   2  10
ATOM     10  C   UNL     1       1.160   3.165   0.008  0.00  0.00    -0.012 A 
ATOM     11  C   UNL     1       1.175   1.783   0.000  0.00  0.00    +0.010 A 
ATOM     12  C   UNL     1      -0.013   1.076   0.008  0.00  0.00    +0.050 A 
ATOM     13  C   UNL     1      -1.222   1.752   0.017  0.00  0.00    +0.166 A 
ATOM     14  C   UNL     1      -1.237   3.144   0.031  0.00  0.00    +0.167 A 
ATOM     15  C   UNL     1      -0.043   3.846   0.023  0.00  0.00    +0.055 A 
ATOM     16  O   UNL     1      -2.535   3.567   0.045  0.00  0.00    -0.453 OA
ATOM     17  C   UNL     1      -3.306   2.423   0.459  0.00  0.00    +0.466 C 
ATOM     18  O   UNL     1      -2.510   1.302   0.033  0.00  0.00    -0.453 OA
ENDBRANCH   2  10
BRANCH   5  19
ATOM     19  C   UNL     1       4.925   3.594   2.757  0.00  0.00    +0.043 C 
BRANCH  19  25
ATOM     20  C   UNL     1       6.817   3.136   1.315  0.00  0.00    -0.057 C 
ATOM     21  C   UNL     1       8.140   3.704   0.797  0.00  0.00    +0.088 C 
ATOM     22  N   UNL     1       9.055   3.917   1.928  0.00  0.00    -0.320 N 
ATOM     23  C   UNL     1       8.473   4.849   2.904  0.00  0.00    +0.088 C 
ATOM     24  C   UNL     1       7.150   4.281   3.422  0.00  0.00    -0.057 C 
ATOM     25  N   UNL     1       6.232   4.093   2.279  0.00  0.00    +0.392 N 
ATOM     26  H   UNL     1       6.093   4.996   1.810  0.00  0.00    -0.079 HD
BRANCH  22  27
ATOM     27  C   UNL     1      10.295   4.366   1.488  0.00  0.00    +0.099 A 
ATOM     28  C   UNL     1      11.008   3.618   0.556  0.00  0.00    +0.042 A 
ATOM     29  C   UNL     1      12.240   4.076   0.127  0.00  0.00    +0.005 A 
ATOM     30  C   UNL     1      12.720   5.272   0.646  0.00  0.00    +0.018 A 
ATOM     31  C   UNL     1      11.959   5.963   1.567  0.00  0.00    +0.084 A 
ATOM     32  N   UNL     1      10.742   5.545   2.007  0.00  0.00    -0.350 N 
ATOM     33  H   UNL     1      10.193   6.085   2.687  0.00  0.00    +0.166 HD
ENDBRANCH  22  27
ENDBRANCH  19  25
ENDBRANCH   5  19
TORSDOF 4
