REMARK  Name = ZINC50035274
REMARK  4 active torsions:
REMARK  status: ('A' for Active; 'I' for Inactive)
REMARK    1  A    between atoms: C_6  and  O_7
REMARK    2  A    between atoms: O_7  and  C_8
REMARK    3  A    between atoms: C_10  and  C_16
REMARK    4  A    between atoms: C_11  and  N_15
REMARK                            x       y       z     vdW  Elec       q    Type
REMARK                         _______ _______ _______ _____ _____    ______ ____
ROOT
ATOM      1  C   UNL     1      -1.126  -2.054  -0.127  0.00  0.00    +0.164 A 
ATOM      2  C   UNL     1       0.112  -2.666  -0.119  0.00  0.00    +0.064 A 
ATOM      3  C   UNL     1       0.202  -4.058  -0.210  0.00  0.00    +0.061 A 
ATOM      4  C   UNL     1      -0.970  -4.825  -0.309  0.00  0.00    +0.040 A 
ATOM      5  C   UNL     1      -2.207  -4.196  -0.317  0.00  0.00    +0.065 A 
ATOM      6  C   UNL     1      -2.285  -2.819  -0.220  0.00  0.00    +0.167 A 
ATOM      7  F   UNL     1      -3.493  -2.212  -0.222  0.00  0.00    -0.202 F 
ENDROOT
BRANCH   3   8
ATOM      8  C   UNL     1       1.519  -4.717  -0.202  0.00  0.00    +0.243 C 
ATOM      9  O   UNL     1       1.600  -5.916  -0.392  0.00  0.00    -0.270 OA
ATOM     10  N   UNL     1       2.634  -3.992   0.017  0.00  0.00    -0.325 N 
ATOM     11  H   UNL     1       2.569  -3.036   0.169  0.00  0.00    +0.145 HD
ATOM     12  H   UNL     1       3.501  -4.426   0.022  0.00  0.00    +0.145 HD
ENDBRANCH   3   8
BRANCH   4  13
ATOM     13  N   UNL     1      -0.892  -6.210  -0.401  0.00  0.00    -0.357 N 
ATOM     14  H   UNL     1      -0.027  -6.643  -0.478  0.00  0.00    +0.142 HD
ATOM     15  H   UNL     1      -1.702  -6.744  -0.387  0.00  0.00    +0.142 HD
ENDBRANCH   4  13
BRANCH   1  16
ATOM     16  O   UNL     1      -1.213  -0.699  -0.038  0.00  0.00    -0.453 OA
BRANCH  16  22
ATOM     17  C   UNL     1       0.698   0.062  -1.234  0.00  0.00    +0.049 A 
ATOM     18  C   UNL     1       1.871   0.791  -1.268  0.00  0.00    +0.045 A 
ATOM     19  C   UNL     1       2.293   1.478  -0.143  0.00  0.00    +0.159 A 
ATOM     20  C   UNL     1       1.538   1.436   1.020  0.00  0.00    +0.162 A 
ATOM     21  C   UNL     1       0.364   0.707   1.056  0.00  0.00    +0.087 A 
ATOM     22  C   UNL     1      -0.059   0.018  -0.072  0.00  0.00    +0.131 A 
ATOM     23  F   UNL     1       1.951   2.107   2.117  0.00  0.00    -0.202 F 
ATOM     24  F   UNL     1       3.440   2.191  -0.178  0.00  0.00    -0.202 F 
ENDBRANCH  16  22
ENDBRANCH   1  16
TORSDOF 4
