REMARK  Name = ZINC45773644
REMARK  4 active torsions:
REMARK  status: ('A' for Active; 'I' for Inactive)
REMARK    1  A    between atoms: C_3  and  N_8
REMARK    2  A    between atoms: N_11  and  C_14
REMARK    3  A    between atoms: C_14  and  N_15
REMARK    4  A    between atoms: C_22  and  N_26
REMARK                            x       y       z     vdW  Elec       q    Type
REMARK                         _______ _______ _______ _____ _____    ______ ____
ROOT
ATOM      1  C   UNL     1       6.837   3.894  -1.992  0.00  0.00    +0.204 C 
ENDROOT
BRANCH   1   2
ATOM      2  N   UNL     1       8.183   3.771  -1.427  0.00  0.00    -0.220 N 
ATOM      3  C   UNL     1       8.789   4.719  -0.690  0.00  0.00    +0.255 C 
ATOM      4  O   UNL     1       8.316   5.797  -0.393  0.00  0.00    -0.269 OA
ATOM      5  C   UNL     1      10.128   4.228  -0.304  0.00  0.00    +0.051 A 
ATOM      6  C   UNL     1      11.175   4.753   0.434  0.00  0.00    +0.014 A 
ATOM      7  C   UNL     1      12.334   4.011   0.617  0.00  0.00    +0.003 A 
ATOM      8  C   UNL     1      12.456   2.752   0.069  0.00  0.00    +0.023 A 
ATOM      9  C   UNL     1      11.412   2.204  -0.679  0.00  0.00    +0.038 A 
ATOM     10  C   UNL     1      10.243   2.939  -0.869  0.00  0.00    +0.070 A 
ATOM     11  C   UNL     1       8.973   2.691  -1.571  0.00  0.00    +0.257 C 
ATOM     12  O   UNL     1       8.686   1.680  -2.181  0.00  0.00    -0.269 OA
BRANCH   9  13
ATOM     13  N   UNL     1      11.536   0.936  -1.229  0.00  0.00    -0.357 N 
ATOM     14  H   UNL     1      12.351   0.427  -1.095  0.00  0.00    +0.142 HD
ATOM     15  H   UNL     1      10.809   0.559  -1.748  0.00  0.00    +0.142 HD
ENDBRANCH   9  13
ENDBRANCH   1   2
BRANCH   1  19
ATOM     16  N   UNL     1       3.582   2.124  -0.021  0.00  0.00    -0.327 N 
ATOM     17  C   UNL     1       3.587   3.591  -0.118  0.00  0.00    +0.120 C 
ATOM     18  C   UNL     1       4.535   4.002  -1.249  0.00  0.00    +0.105 C 
ATOM     19  N   UNL     1       5.852   3.390  -1.026  0.00  0.00    -0.283 NA
ATOM     20  C   UNL     1       5.772   1.924  -1.072  0.00  0.00    +0.105 C 
ATOM     21  C   UNL     1       4.875   1.429   0.073  0.00  0.00    +0.120 C 
BRANCH  16  24
ATOM     22  C   UNL     1       1.209  -0.683  -0.026  0.00  0.00    +0.003 A 
ATOM     23  C   UNL     1       2.398   0.021  -0.035  0.00  0.00    +0.023 A 
ATOM     24  C   UNL     1       2.382   1.410  -0.013  0.00  0.00    +0.031 A 
ATOM     25  C   UNL     1       1.169   2.087   0.018  0.00  0.00    +0.043 A 
ATOM     26  C   UNL     1      -0.017   1.377   0.026  0.00  0.00    +0.043 A 
ATOM     27  C   UNL     1       0.004  -0.007   0.004  0.00  0.00    +0.020 A 
ATOM     28 CL   UNL     1      -1.533   2.221   0.065  0.00  0.00    -0.083 Cl
ENDBRANCH  16  24
ENDBRANCH   1  19
TORSDOF 4
