REMARK  Name = ZINC49319339
REMARK  6 active torsions:
REMARK  status: ('A' for Active; 'I' for Inactive)
REMARK    1  A    between atoms: C_1  and  C_2
REMARK    2  A    between atoms: C_2  and  C_3
REMARK    3  A    between atoms: C_2  and  C_4
REMARK    4  A    between atoms: C_2  and  C_5
REMARK    5  A    between atoms: N_7  and  C_8
REMARK    6  A    between atoms: C_8  and  C_9
REMARK                            x       y       z     vdW  Elec       q    Type
REMARK                         _______ _______ _______ _____ _____    ______ ____
ROOT
ATOM      1  C   UNL     1       1.553  -3.792  -2.673  0.00  0.00    -0.026 A 
ATOM      2  C   UNL     1       2.602  -4.471  -2.083  0.00  0.00    +0.054 A 
ATOM      3  C   UNL     1       2.624  -5.857  -2.089  0.00  0.00    +0.163 A 
ATOM      4  C   UNL     1       1.587  -6.562  -2.687  0.00  0.00    +0.176 A 
ATOM      5  C   UNL     1       0.536  -5.875  -3.279  0.00  0.00    +0.063 A 
ATOM      6  C   UNL     1       0.519  -4.492  -3.266  0.00  0.00    +0.024 A 
ATOM      7 BR   UNL     1      -0.875  -6.830  -4.099  0.00  0.00    -0.046 Br
ATOM      8  O   UNL     1       1.584  -7.923  -2.697  0.00  0.00    -0.484 OA
ATOM      9  C   UNL     1       2.832  -8.571  -2.425  0.00  0.00    +0.270 C 
ATOM     10  C   UNL     1       3.467  -7.896  -1.202  0.00  0.00    +0.270 C 
ATOM     11  O   UNL     1       3.666  -6.511  -1.507  0.00  0.00    -0.485 OA
ENDROOT
BRANCH   1  12
ATOM     12  C   UNL     1       1.532  -2.285  -2.665  0.00  0.00    +0.139 C 
BRANCH  12  15
ATOM     13  C   UNL     1       0.707  -0.490  -1.238  0.00  0.00    +0.219 C 
ATOM     14  O   UNL     1       1.150   0.308  -2.036  0.00  0.00    -0.275 OA
ATOM     15  N   UNL     1       0.847  -1.812  -1.460  0.00  0.00    -0.311 N 
ATOM     16  H   UNL     1       0.493  -2.451  -0.821  0.00  0.00    +0.149 HD
BRANCH  13  18
ATOM     17  C   UNL     1      -0.019   1.526   0.010  0.00  0.00    +0.020 C 
ATOM     18  C   UNL     1       0.002  -0.004   0.002  0.00  0.00    +0.039 C 
ATOM     19  C   UNL     1       0.742  -0.511   1.242  0.00  0.00    +0.020 C 
ATOM     20  C   UNL     1      -1.433  -0.534   0.013  0.00  0.00    +0.020 C 
ENDBRANCH  13  18
ENDBRANCH  12  15
ENDBRANCH   1  12
TORSDOF 3
