REMARK  Name = ZINC34781491
REMARK  2 active torsions:
REMARK  status: ('A' for Active; 'I' for Inactive)
REMARK    1  A    between atoms: C_13  and  N_20
REMARK    2  A    between atoms: C_14  and  C_17
REMARK                            x       y       z     vdW  Elec       q    Type
REMARK                         _______ _______ _______ _____ _____    ______ ____
ROOT
ATOM      1  C   UNL     1      -0.019   1.533   0.011  0.00  0.00    +0.000 C 
ATOM      2  C   UNL     1       1.389   2.122   0.000  0.00  0.00    +0.002 C 
ATOM      3  C   UNL     1       2.224   1.584   1.179  0.00  0.00    +0.023 C 
ATOM      4  C   UNL     1       2.187   0.098   1.113  0.00  0.00    +0.079 C 
ATOM      5  C   UNL     1       0.754  -0.451   1.247  0.00  0.00    +0.012 C 
ATOM      6  C   UNL     1       0.002  -0.004   0.002  0.00  0.00    +0.005 C 
ATOM      7  C   UNL     1       1.042  -1.969   1.318  0.00  0.00    +0.036 C 
ATOM      8  C   UNL     1       2.282  -1.940   2.243  0.00  0.00    +0.147 C 
ATOM      9  N   UNL     1       3.096  -0.796   1.753  0.00  0.00    -0.305 N 
ATOM     10  C   UNL     1       4.367  -1.163   2.074  0.00  0.00    +0.100 C 
ATOM     11  C   UNL     1       4.472  -2.563   2.045  0.00  0.00    +0.116 C 
ATOM     12  C   UNL     1       3.180  -3.133   2.074  0.00  0.00    +0.191 C 
ATOM     13  O   UNL     1       2.861  -4.303   2.005  0.00  0.00    -0.290 OA
ENDROOT
BRANCH  11  14
ATOM     14  C   UNL     1       5.724  -3.322   1.989  0.00  0.00    +0.248 C 
ATOM     15  O   UNL     1       6.790  -2.735   1.964  0.00  0.00    -0.270 OA
ATOM     16  N   UNL     1       5.696  -4.669   1.966  0.00  0.00    -0.325 N 
ATOM     17  H   UNL     1       4.846  -5.136   1.986  0.00  0.00    +0.145 HD
ATOM     18  H   UNL     1       6.525  -5.171   1.929  0.00  0.00    +0.145 HD
ENDBRANCH  11  14
BRANCH  10  19
ATOM     19  N   UNL     1       5.380  -0.306   2.376  0.00  0.00    -0.346 N 
ATOM     20  H   UNL     1       5.222   0.651   2.373  0.00  0.00    +0.143 HD
ATOM     21  H   UNL     1       6.259  -0.652   2.594  0.00  0.00    +0.143 HD
ENDBRANCH  10  19
TORSDOF 2
