REMARK  Name = ZINC39657386
REMARK  6 active torsions:
REMARK  status: ('A' for Active; 'I' for Inactive)
REMARK    1  A    between atoms: C_3  and  C_6
REMARK    2  A    between atoms: C_6  and  C_7
REMARK    3  A    between atoms: C_7  and  N_8
REMARK    4  A    between atoms: C_9  and  C_11
REMARK    5  A    between atoms: C_22  and  C_24
REMARK    6  A    between atoms: C_28  and  C_30
REMARK                            x       y       z     vdW  Elec       q    Type
REMARK                         _______ _______ _______ _____ _____    ______ ____
ROOT
ATOM      1  C   UNL     1       8.302   3.439   2.290  0.00  0.00    +0.100 C 
ATOM      2  C   UNL     1       8.031   4.790   1.591  0.00  0.00    +0.121 C 
ATOM      3  N   UNL     1       7.886   5.762   2.700  0.00  0.00    -0.296 N 
ATOM      4  C   UNL     1       8.917   5.355   3.685  0.00  0.00    +0.115 C 
ATOM      5  C   UNL     1       8.886   3.814   3.662  0.00  0.00    -0.004 C 
ATOM      6  C   UNL     1      10.299   3.255   3.805  0.00  0.00    -0.010 C 
ATOM      7  C   UNL     1      10.837   3.591   5.199  0.00  0.00    -0.082 C 
ATOM      8  N   UNL     1       9.955   3.011   6.218  0.00  0.00    +0.379 N 
ATOM      9  C   UNL     1       8.623   3.622   6.134  0.00  0.00    -0.082 C 
ATOM     10  C   UNL     1       7.991   3.288   4.780  0.00  0.00    -0.010 C 
ATOM     11  C   UNL     1       7.014   6.786   2.792  0.00  0.00    +0.247 C 
ATOM     12  O   UNL     1       6.142   6.919   1.957  0.00  0.00    -0.270 OA
ATOM     13  H   UNL     1       9.877   2.016   6.068  0.00  0.00    -0.086 HD
ATOM     14  H   UNL     1      10.344   3.181   7.134  0.00  0.00    -0.086 HD
ENDROOT
BRANCH  11  15
ATOM     15  C   UNL     1       7.120   7.747   3.909  0.00  0.00    +0.038 A 
ATOM     16  C   UNL     1       8.323   7.884   4.606  0.00  0.00    +0.016 A 
ATOM     17  C   UNL     1       8.416   8.782   5.647  0.00  0.00    +0.039 A 
ATOM     18  C   UNL     1       7.317   9.550   6.003  0.00  0.00    +0.135 A 
ATOM     19  C   UNL     1       6.121   9.419   5.315  0.00  0.00    +0.091 A 
ATOM     20  C   UNL     1       6.019   8.527   4.269  0.00  0.00    +0.028 A 
ATOM     21  F   UNL     1       7.414  10.429   7.025  0.00  0.00    -0.205 F 
BRANCH  19  22
ATOM     22  C   UNL     1       4.931  10.257   5.708  0.00  0.00    +0.420 C 
ATOM     23  F   UNL     1       3.849   9.950   4.877  0.00  0.00    -0.166 F 
ATOM     24  F   UNL     1       4.589   9.986   7.038  0.00  0.00    -0.166 F 
ATOM     25  F   UNL     1       5.252  11.612   5.576  0.00  0.00    -0.166 F 
ENDBRANCH  19  22
ENDBRANCH  11  15
BRANCH   1  27
ATOM     26  N   UNL     1       7.047   1.328   2.589  0.00  0.00    -0.315 N 
ATOM     27  C   UNL     1       7.017   2.669   2.460  0.00  0.00    +0.218 C 
ATOM     28  O   UNL     1       5.956   3.257   2.480  0.00  0.00    -0.275 OA
ATOM     29  H   UNL     1       7.896   0.858   2.573  0.00  0.00    +0.149 HD
BRANCH  26  30
ATOM     30  C   UNL     1       5.799   0.580   2.754  0.00  0.00    +0.109 C 
BRANCH  30  31
ATOM     31  C   UNL     1       6.111  -0.913   2.878  0.00  0.00    +0.061 C 
BRANCH  31  34
ATOM     32  C   UNL     1       2.880  -2.893   2.491  0.00  0.00    +0.008 A 
ATOM     33  C   UNL     1       4.022  -2.221   2.099  0.00  0.00    +0.011 A 
ATOM     34  C   UNL     1       4.826  -1.683   3.048  0.00  0.00    -0.009 A 
ATOM     35  S   UNL     1       3.969  -2.122   4.551  0.00  0.00    -0.102 S 
ATOM     36  C   UNL     1       2.597  -2.994   3.813  0.00  0.00    +0.045 A 
ENDBRANCH  31  34
ENDBRANCH  30  31
ENDBRANCH  26  30
ENDBRANCH   1  27
TORSDOF 6
