REMARK  Name = ZINC66846517
REMARK  6 active torsions:
REMARK  status: ('A' for Active; 'I' for Inactive)
REMARK    1  A    between atoms: C_1  and  C_2
REMARK    2  A    between atoms: C_2  and  C_4
REMARK    3  A    between atoms: C_2  and  N_14
REMARK    4  A    between atoms: N_10  and  C_11
REMARK    5  A    between atoms: N_10  and  C_12
REMARK    6  A    between atoms: C_18  and  C_21
REMARK                            x       y       z     vdW  Elec       q    Type
REMARK                         _______ _______ _______ _____ _____    ______ ____
ROOT
ATOM      1  C   UNL     1      -0.019   1.526   0.010  0.00  0.00    +0.032 C 
ATOM      2  C   UNL     1       0.002  -0.004   0.002  0.00  0.00    +0.122 C 
ENDROOT
BRANCH   2   3
ATOM      3  C   UNL     1       0.731  -0.503   1.223  0.00  0.00    +0.153 A 
ATOM      4  N   UNL     1       0.141  -0.463   2.405  0.00  0.00    -0.198 NA
ATOM      5  C   UNL     1       0.781  -0.903   3.486  0.00  0.00    +0.217 A 
ATOM      6  N   UNL     1       2.015  -1.384   3.375  0.00  0.00    -0.181 NA
ATOM      7  C   UNL     1       2.605  -1.423   2.185  0.00  0.00    +0.222 A 
ATOM      8  N   UNL     1       1.956  -0.985   1.108  0.00  0.00    -0.198 NA
ATOM      9  N   UNL     1       3.886  -1.921   2.064  0.00  0.00    -0.306 N 
ATOM     10  C   UNL     1       4.597  -2.407   3.249  0.00  0.00    +0.132 C 
ATOM     11  C   UNL     1       4.535  -1.963   0.752  0.00  0.00    +0.132 C 
ATOM     12  N   UNL     1       0.165  -0.860   4.719  0.00  0.00    -0.327 N 
ATOM     13  H   UNL     1      -0.736  -0.509   4.800  0.00  0.00    +0.145 HD
ATOM     14  H   UNL     1       0.632  -1.181   5.506  0.00  0.00    +0.145 HD
ENDBRANCH   2   3
BRANCH   2  15
ATOM     15  N   UNL     1      -1.376  -0.512   0.012  0.00  0.00    -0.288 NA
ATOM     16  C   UNL     1      -1.395  -1.980   0.092  0.00  0.00    +0.113 C 
ATOM     17  C   UNL     1      -2.847  -2.463   0.160  0.00  0.00    +0.176 C 
ATOM     18  O   UNL     1      -3.561  -1.973  -0.978  0.00  0.00    -0.369 OA
ATOM     19  C   UNL     1      -3.563  -0.547  -1.085  0.00  0.00    +0.165 C 
ATOM     20  C   UNL     1      -2.119  -0.045  -1.167  0.00  0.00    +0.121 C 
BRANCH  19  21
ATOM     21  C   UNL     1      -4.310  -0.138  -2.329  0.00  0.00    +0.018 A 
ATOM     22  C   UNL     1      -4.416  -1.014  -3.392  0.00  0.00    +0.009 A 
ATOM     23  C   UNL     1      -5.101  -0.639  -4.532  0.00  0.00    +0.001 A 
ATOM     24  C   UNL     1      -5.681   0.614  -4.611  0.00  0.00    +0.003 A 
ATOM     25  C   UNL     1      -5.577   1.492  -3.549  0.00  0.00    +0.039 A 
ATOM     26  C   UNL     1      -4.895   1.115  -2.404  0.00  0.00    +0.129 A 
ATOM     27  F   UNL     1      -4.797   1.971  -1.363  0.00  0.00    -0.205 F 
ENDBRANCH  19  21
ENDBRANCH   2  15
TORSDOF 3
