REMARK  Name = ZINC50323095
REMARK  8 active torsions:
REMARK  status: ('A' for Active; 'I' for Inactive)
REMARK    1  A    between atoms: C_1  and  C_2
REMARK    2  A    between atoms: C_2  and  C_3
REMARK    3  A    between atoms: C_3  and  C_4
REMARK    4  A    between atoms: C_5  and  N_22
REMARK    5  A    between atoms: C_6  and  C_10
REMARK    6  A    between atoms: C_16  and  O_19
REMARK    7  A    between atoms: O_19  and  C_20
REMARK    8  A    between atoms: C_20  and  C_21
REMARK                            x       y       z     vdW  Elec       q    Type
REMARK                         _______ _______ _______ _____ _____    ______ ____
ROOT
ATOM      1  C   UNL     1       4.841  -4.520  -1.604  0.00  0.00    +0.057 A 
ATOM      2  C   UNL     1       3.868  -4.120  -0.742  0.00  0.00    +0.078 A 
ATOM      3  C   UNL     1       3.107  -5.285  -0.466  0.00  0.00    +0.168 A 
ATOM      4  N   UNL     1       3.648  -6.273  -1.152  0.00  0.00    -0.167 NA
ATOM      5  N   UNL     1       4.656  -5.848  -1.825  0.00  0.00    -0.279 N 
ATOM      6  H   UNL     1       5.207  -6.396  -2.405  0.00  0.00    +0.189 HD
ENDROOT
BRANCH   3   7
ATOM      7  C   UNL     1       1.932  -5.374   0.421  0.00  0.00    +0.269 C 
ATOM      8  O   UNL     1       1.460  -4.365   0.908  0.00  0.00    -0.268 OA
ATOM      9  N   UNL     1       1.381  -6.574   0.692  0.00  0.00    -0.294 N 
ATOM     10  C   UNL     1       0.121  -6.667   1.441  0.00  0.00    +0.108 C 
ATOM     11  C   UNL     1       0.325  -7.606   2.634  0.00  0.00    +0.021 C 
ATOM     12  C   UNL     1       0.861  -8.950   2.135  0.00  0.00    +0.035 C 
ATOM     13  C   UNL     1       2.213  -8.739   1.449  0.00  0.00    +0.136 C 
ATOM     14  C   UNL     1       2.027  -7.813   0.238  0.00  0.00    +0.139 C 
BRANCH  13  15
ATOM     15  O   UNL     1       2.727  -9.999   1.012  0.00  0.00    -0.375 OA
BRANCH  15  16
ATOM     16  C   UNL     1       4.154 -10.069   0.992  0.00  0.00    +0.157 C 
ATOM     17  C   UNL     1       4.590 -11.454   0.510  0.00  0.00    +0.034 C 
ENDBRANCH  15  16
ENDBRANCH  13  15
ENDBRANCH   3   7
BRANCH   2  18
ATOM     18  N   UNL     1       3.661  -2.829  -0.235  0.00  0.00    -0.355 N 
ATOM     19  H   UNL     1       4.250  -2.105  -0.496  0.00  0.00    +0.142 HD
ATOM     20  H   UNL     1       2.928  -2.661   0.378  0.00  0.00    +0.142 HD
ENDBRANCH   2  18
BRANCH   1  21
ATOM     21  C   UNL     1       5.917  -3.653  -2.205  0.00  0.00    +0.056 C 
BRANCH  21  23
ATOM     22  C   UNL     1       8.192  -2.684  -1.849  0.00  0.00    +0.004 C 
ATOM     23  C   UNL     1       7.100  -3.564  -1.238  0.00  0.00    +0.003 C 
ENDBRANCH  21  23
ENDBRANCH   1  21
TORSDOF 6
