REMARK  Name = ZINC44359282
REMARK  12 active torsions:
REMARK  status: ('A' for Active; 'I' for Inactive)
REMARK    1  A    between atoms: C_1  and  C_2
REMARK    2  A    between atoms: C_2  and  O_3
REMARK    3  A    between atoms: O_3  and  C_4
REMARK    4  A    between atoms: C_4  and  C_6
REMARK    5  A    between atoms: C_6  and  C_8
REMARK    6  A    between atoms: C_6  and  N_25
REMARK    7  A    between atoms: C_8  and  C_9
REMARK    8  A    between atoms: C_12  and  C_14
REMARK    9  A    between atoms: C_14  and  O_15
REMARK   10  A    between atoms: O_15  and  C_16
REMARK   11  A    between atoms: C_18  and  C_24
REMARK   12  A    between atoms: C_20  and  C_22
REMARK                            x       y       z     vdW  Elec       q    Type
REMARK                         _______ _______ _______ _____ _____    ______ ____
ROOT
ATOM      1  C   UNL     1       1.238  -2.768  -4.984  0.00  0.00    +0.104 A 
ATOM      2  C   UNL     1       1.329  -4.033  -5.432  0.00  0.00    +0.045 A 
ATOM      3  C   UNL     1       2.098  -3.992  -6.618  0.00  0.00    +0.048 A 
ATOM      4  C   UNL     1       2.430  -2.705  -6.824  0.00  0.00    +0.142 A 
ATOM      5  O   UNL     1       1.902  -1.967  -5.834  0.00  0.00    -0.461 OA
ENDROOT
BRANCH   1   6
ATOM      6  C   UNL     1       0.509  -2.323  -3.742  0.00  0.00    +0.069 C 
BRANCH   6   7
ATOM      7  C   UNL     1       1.468  -2.353  -2.550  0.00  0.00    +0.043 C 
BRANCH   7   8
ATOM      8  N   UNL     1       1.877  -3.739  -2.285  0.00  0.00    +0.387 N 
ATOM      9  H   UNL     1       1.062  -4.296  -2.076  0.00  0.00    -0.089 HD
ATOM     10  H   UNL     1       2.341  -4.114  -3.099  0.00  0.00    -0.089 HD
ATOM     11  H   UNL     1       2.509  -3.759  -1.499  0.00  0.00    -0.089 HD
ENDBRANCH   7   8
BRANCH   7  12
ATOM     12  C   UNL     1       0.775  -1.794  -1.334  0.00  0.00    +0.293 C 
ATOM     13  O   UNL     1       0.314  -2.540  -0.504  0.00  0.00    -0.253 OA
BRANCH  12  14
ATOM     14  O   UNL     1       0.671  -0.465  -1.174  0.00  0.00    -0.466 OA
BRANCH  14  16
ATOM     15  C   UNL     1      -0.019   1.526   0.010  0.00  0.00    +0.048 C 
ATOM     16  C   UNL     1       0.002  -0.004   0.002  0.00  0.00    +0.228 C 
ENDBRANCH  14  16
ENDBRANCH  12  14
ENDBRANCH   7  12
ENDBRANCH   6   7
ENDBRANCH   1   6
BRANCH   4  17
ATOM     17  C   UNL     1       3.251  -2.180  -7.973  0.00  0.00    +0.303 C 
BRANCH  17  18
ATOM     18  O   UNL     1       2.387  -1.839  -9.059  0.00  0.00    -0.484 OA
BRANCH  18  19
ATOM     19  C   UNL     1       2.973  -1.346 -10.182  0.00  0.00    +0.122 A 
ATOM     20  C   UNL     1       4.351  -1.199 -10.240  0.00  0.00    +0.050 A 
ATOM     21  C   UNL     1       4.944  -0.698 -11.382  0.00  0.00    -0.028 A 
ATOM     22  C   UNL     1       4.165  -0.342 -12.469  0.00  0.00    +0.047 A 
ATOM     23  C   UNL     1       2.790  -0.487 -12.413  0.00  0.00    -0.028 A 
ATOM     24  C   UNL     1       2.193  -0.995 -11.275  0.00  0.00    +0.050 A 
ATOM     25  C   UNL     1       1.943  -0.099 -13.598  0.00  0.00    +0.045 C 
ATOM     26 CL   UNL     1       4.913   0.288 -13.903  0.00  0.00    -0.083 Cl
ATOM     27  C   UNL     1       6.441  -0.538 -11.445  0.00  0.00    +0.045 C 
ENDBRANCH  18  19
ENDBRANCH  17  18
ENDBRANCH   4  17
TORSDOF 9
