REMARK  Name = ZINC39631094
REMARK  10 active torsions:
REMARK  status: ('A' for Active; 'I' for Inactive)
REMARK    1  A    between atoms: C_1  and  C_2
REMARK    2  A    between atoms: C_2  and  C_3
REMARK    3  A    between atoms: C_2  and  C_4
REMARK    4  A    between atoms: C_2  and  C_27
REMARK    5  A    between atoms: C_4  and  N_5
REMARK    6  A    between atoms: C_6  and  C_8
REMARK    7  A    between atoms: C_19  and  C_21
REMARK    8  A    between atoms: C_27  and  N_28
REMARK    9  A    between atoms: N_28  and  C_29
REMARK   10  A    between atoms: N_28  and  C_30
REMARK                            x       y       z     vdW  Elec       q    Type
REMARK                         _______ _______ _______ _____ _____    ______ ____
ROOT
ATOM      1  C   UNL     1      -5.553   0.270   2.136  0.00  0.00    +0.100 C 
ATOM      2  C   UNL     1      -5.249  -0.192   3.579  0.00  0.00    +0.121 C 
ATOM      3  N   UNL     1      -6.580  -0.466   4.172  0.00  0.00    -0.300 N 
ATOM      4  C   UNL     1      -7.347  -1.105   3.076  0.00  0.00    +0.115 C 
ATOM      5  C   UNL     1      -6.930  -0.332   1.810  0.00  0.00    -0.004 C 
ATOM      6  C   UNL     1      -6.822  -1.284   0.622  0.00  0.00    -0.010 C 
ATOM      7  C   UNL     1      -8.213  -1.824   0.279  0.00  0.00    -0.082 C 
ATOM      8  N   UNL     1      -9.109  -0.707  -0.043  0.00  0.00    +0.379 N 
ATOM      9  C   UNL     1      -9.280   0.153   1.134  0.00  0.00    -0.082 C 
ATOM     10  C   UNL     1      -7.934   0.777   1.513  0.00  0.00    -0.010 C 
ATOM     11  C   UNL     1      -6.998  -0.195   5.424  0.00  0.00    +0.219 C 
ATOM     12  O   UNL     1      -8.126  -0.483   5.762  0.00  0.00    -0.275 OA
ATOM     13  H   UNL     1      -8.713  -0.167  -0.797  0.00  0.00    -0.086 HD
ATOM     14  H   UNL     1     -10.007  -1.069  -0.327  0.00  0.00    -0.086 HD
ENDROOT
BRANCH  11  15
ATOM     15  C   UNL     1      -6.063   0.466   6.404  0.00  0.00    +0.079 C 
ATOM     16  C   UNL     1      -4.834  -0.422   6.619  0.00  0.00    +0.041 C 
ATOM     17  C   UNL     1      -3.928   0.220   7.674  0.00  0.00    +0.160 C 
ATOM     18  O   UNL     1      -4.665   0.401   8.885  0.00  0.00    -0.380 OA
ATOM     19  C   UNL     1      -5.799   1.261   8.755  0.00  0.00    +0.160 C 
ATOM     20  C   UNL     1      -6.779   0.661   7.744  0.00  0.00    +0.041 C 
ENDBRANCH  11  15
BRANCH   1  22
ATOM     21  N   UNL     1      -4.270   0.382   0.024  0.00  0.00    -0.315 N 
ATOM     22  C   UNL     1      -4.510  -0.258   1.185  0.00  0.00    +0.218 C 
ATOM     23  O   UNL     1      -3.887  -1.260   1.465  0.00  0.00    -0.275 OA
ATOM     24  H   UNL     1      -4.768   1.184  -0.200  0.00  0.00    +0.149 HD
BRANCH  21  25
ATOM     25  C   UNL     1      -3.256  -0.132  -0.900  0.00  0.00    +0.108 C 
BRANCH  25  27
ATOM     26  C   UNL     1      -4.544   0.796  -2.829  0.00  0.00    +0.010 C 
ATOM     27  C   UNL     1      -3.183   0.773  -2.131  0.00  0.00    -0.034 C 
ATOM     28  C   UNL     1      -2.807   2.192  -1.700  0.00  0.00    +0.010 C 
BRANCH  27  29
ATOM     29  C   UNL     1      -2.124   0.236  -3.097  0.00  0.00    -0.072 C 
BRANCH  29  30
ATOM     30  N   UNL     1      -2.042   1.114  -4.272  0.00  0.00    +0.376 N 
ATOM     31  C   UNL     1      -1.122   2.224  -3.990  0.00  0.00    -0.097 C 
ATOM     32  C   UNL     1      -1.547   0.347  -5.422  0.00  0.00    -0.097 C 
ATOM     33  H   UNL     1      -2.958   1.482  -4.481  0.00  0.00    -0.083 HD
ENDBRANCH  29  30
ENDBRANCH  27  29
ENDBRANCH  25  27
ENDBRANCH  21  25
ENDBRANCH   1  22
TORSDOF 6
