REMARK  Name = ZINC03954110
REMARK  8 active torsions:
REMARK  status: ('A' for Active; 'I' for Inactive)
REMARK    1  A    between atoms: C_1  and  C_2
REMARK    2  A    between atoms: C_2  and  C_3
REMARK    3  A    between atoms: C_2  and  C_4
REMARK    4  A    between atoms: C_12  and  C_23
REMARK    5  A    between atoms: C_19  and  C_20
REMARK    6  A    between atoms: C_19  and  C_21
REMARK    7  A    between atoms: C_24  and  C_27
REMARK    8  A    between atoms: C_27  and  N_64
REMARK                            x       y       z     vdW  Elec       q    Type
REMARK                         _______ _______ _______ _____ _____    ______ ____
ROOT
ATOM      1  C   UNL     1       2.472  -2.233   1.822  0.00  0.00    -0.026 C 
ATOM      2  C   UNL     1       2.283  -1.824   3.283  0.00  0.00    +0.008 C 
ATOM      3  C   UNL     1       0.967  -1.071   3.493  0.00  0.00    +0.008 C 
ATOM      4  C   UNL     1       0.094  -1.309   2.210  0.00  0.00    -0.025 C 
ATOM      5  C   UNL     1      -1.288  -0.753   2.497  0.00  0.00    +0.008 C 
ATOM      6  C   UNL     1      -2.029  -0.254   1.260  0.00  0.00    +0.006 C 
ATOM      7  C   UNL     1      -1.348  -0.670  -0.030  0.00  0.00    +0.012 C 
ATOM      8  C   UNL     1       0.069  -0.127  -0.093  0.00  0.00    -0.025 C 
ATOM      9  C   UNL     1       0.832  -0.499   1.167  0.00  0.00    +0.002 C 
ATOM     10  C   UNL     1       2.239  -1.024   0.908  0.00  0.00    +0.011 C 
ATOM     11  C   UNL     1       0.764  -0.661  -1.344  0.00  0.00    +0.007 C 
ATOM     12  C   UNL     1      -0.028  -0.254  -2.587  0.00  0.00    +0.002 C 
ATOM     13  C   UNL     1      -1.439  -0.820  -2.540  0.00  0.00    +0.018 C 
ATOM     14  C   UNL     1      -2.193  -0.426  -1.269  0.00  0.00    +0.072 C 
ATOM     15  C   UNL     1      -2.726   0.996  -1.379  0.00  0.00    +0.023 C 
ATOM     16  C   UNL     1       0.076   1.413  -0.159  0.00  0.00    +0.012 C 
ATOM     17  C   UNL     1       0.114  -2.820   2.095  0.00  0.00    -0.022 C 
ATOM     18  C   UNL     1       1.417  -3.285   1.443  0.00  0.00    +0.009 C 
ENDROOT
BRANCH   1  20
ATOM     19  C   UNL     1       4.087  -4.000   2.518  0.00  0.00    +0.008 C 
ATOM     20  C   UNL     1       3.870  -2.795   1.601  0.00  0.00    -0.011 C 
ATOM     21  C   UNL     1       4.019  -3.232   0.142  0.00  0.00    +0.008 C 
ENDBRANCH   1  20
BRANCH  14  22
ATOM     22  C   UNL     1      -3.405  -1.354  -1.194  0.00  0.00    +0.362 C 
ATOM     23  O   UNL     1      -3.537  -2.099  -0.252  0.00  0.00    -0.246 OA
ATOM     24  O   UNL     1      -4.322  -1.341  -2.174  0.00  0.00    -0.246 OA
ENDBRANCH  14  22
BRANCH  17  25
ATOM     25  C   UNL     1      -1.099  -3.502   1.513  0.00  0.00    -0.082 C 
BRANCH  25  28
ATOM     26  H   UNL     1      -1.858  -5.415   1.456  0.00  0.00    -0.090 HD
ATOM     27  H   UNL     1      -0.197  -5.353   1.511  0.00  0.00    -0.090 HD
ATOM     28  N   UNL     1      -1.056  -4.934   1.861  0.00  0.00    +0.378 N 
ATOM     29  H   UNL     1      -1.086  -5.034   2.882  0.00  0.00    -0.090 HD
ENDBRANCH  25  28
ENDBRANCH  17  25
TORSDOF 4
