REMARK  Name = ZINC05155862
REMARK  4 active torsions:
REMARK  status: ('A' for Active; 'I' for Inactive)
REMARK    1  A    between atoms: C_1  and  C_2
REMARK    2  A    between atoms: C_5  and  N_9
REMARK    3  A    between atoms: C_6  and  C_8
REMARK    4  A    between atoms: C_19  and  C_26
REMARK                            x       y       z     vdW  Elec       q    Type
REMARK                         _______ _______ _______ _____ _____    ______ ____
ROOT
ATOM      1  N   UNL     1       2.401   1.108  -0.015  0.00  0.00    -0.327 N 
ATOM      2  C   UNL     1       2.554   0.329  -1.252  0.00  0.00    +0.124 C 
ATOM      3  C   UNL     1       3.933  -0.334  -1.265  0.00  0.00    +0.125 C 
ATOM      4  N   UNL     1       4.071  -1.196  -0.083  0.00  0.00    -0.310 N 
ATOM      5  C   UNL     1       3.918  -0.417   1.154  0.00  0.00    +0.125 C 
ATOM      6  C   UNL     1       2.538   0.246   1.167  0.00  0.00    +0.124 C 
ATOM      7  C   UNL     1       5.282  -1.871  -0.098  0.00  0.00    +0.149 A 
ATOM      8  C   UNL     1       5.637  -2.678  -1.188  0.00  0.00    +0.106 A 
ATOM      9  C   UNL     1       6.874  -3.333  -1.145  0.00  0.00    +0.102 A 
ATOM     10  C   UNL     1       6.984  -4.097  -2.397  0.00  0.00    +0.029 A 
ATOM     11  C   UNL     1       7.965  -4.934  -2.929  0.00  0.00    -0.039 A 
ATOM     12  C   UNL     1       7.772  -5.518  -4.160  0.00  0.00    +0.004 A 
ATOM     13  C   UNL     1       6.606  -5.278  -4.874  0.00  0.00    +0.002 A 
ATOM     14  C   UNL     1       5.629  -4.454  -4.362  0.00  0.00    +0.026 A 
ATOM     15  C   UNL     1       5.804  -3.853  -3.118  0.00  0.00    +0.049 A 
ATOM     16  N   UNL     1       5.010  -3.000  -2.376  0.00  0.00    -0.350 N 
ATOM     17  H   UNL     1       4.138  -2.674  -2.650  0.00  0.00    +0.166 HD
ATOM     18  C   UNL     1       9.232  -5.197  -2.157  0.00  0.00    +0.044 C 
ATOM     19  N   UNL     1       7.662  -3.170  -0.082  0.00  0.00    -0.233 NA
ATOM     20  C   UNL     1       7.286  -2.401   0.917  0.00  0.00    +0.224 A 
ATOM     21  N   UNL     1       6.132  -1.760   0.917  0.00  0.00    -0.219 NA
ENDROOT
BRANCH   1  26
ATOM     22  C   UNL     1      -2.553   3.867   0.044  0.00  0.00    +0.044 C 
ATOM     23  C   UNL     1      -1.237   3.134   0.029  0.00  0.00    -0.050 A 
ATOM     24  C   UNL     1      -1.217   1.751   0.017  0.00  0.00    +0.005 A 
ATOM     25  C   UNL     1      -0.013   1.076   0.008  0.00  0.00    +0.023 A 
ATOM     26  C   UNL     1       1.181   1.788   0.000  0.00  0.00    +0.033 A 
ATOM     27  C   UNL     1       1.157   3.176   0.008  0.00  0.00    -0.029 A 
ATOM     28  C   UNL     1      -0.051   3.845   0.022  0.00  0.00    +0.008 A 
ATOM     29  C   UNL     1       2.449   3.953  -0.000  0.00  0.00    +0.045 C 
ENDBRANCH   1  26
TORSDOF 1
