REMARK  Name = ZINC11903667
REMARK  1 active torsions:
REMARK  status: ('A' for Active; 'I' for Inactive)
REMARK    1  A    between atoms: C_10  and  N_11
REMARK                            x       y       z     vdW  Elec       q    Type
REMARK                         _______ _______ _______ _____ _____    ______ ____
ROOT
ATOM      1  N   UNL     1      -1.181  -0.695   0.012  0.00  0.00    -0.285 N 
ATOM      2  C   UNL     1      -0.015  -0.002  -0.180  0.00  0.00    +0.200 A 
ATOM      3  N   UNL     1       1.170  -0.671  -0.183  0.00  0.00    -0.295 N 
ATOM      4  H   UNL     1       1.189  -1.632  -0.054  0.00  0.00    +0.172 HD
ATOM      5  C   UNL     1       2.317   0.013  -0.368  0.00  0.00    +0.256 A 
ATOM      6  O   UNL     1       3.389  -0.570  -0.377  0.00  0.00    -0.267 OA
ATOM      7  C   UNL     1       2.262   1.411  -0.551  0.00  0.00    +0.038 A 
ATOM      8  C   UNL     1       1.051   2.026  -0.547  0.00  0.00    +0.053 A 
ATOM      9  N   UNL     1      -0.058   1.301  -0.357  0.00  0.00    -0.220 NA
ATOM     10  C   UNL     1       0.892   3.509  -0.756  0.00  0.00    +0.056 C 
ATOM     11  C   UNL     1       2.217   4.231  -0.514  0.00  0.00    +0.006 C 
ATOM     12  C   UNL     1       3.305   3.534  -1.340  0.00  0.00    +0.005 C 
ATOM     13  C   UNL     1       3.557   2.154  -0.735  0.00  0.00    +0.042 C 
ATOM     14  H   UNL     1      -1.167  -1.664   0.063  0.00  0.00    +0.155 HD
ENDROOT
BRANCH   1  24
ATOM     15  C   UNL     1      -3.567  -0.576  -0.359  0.00  0.00    +0.024 A 
ATOM     16  C   UNL     1      -4.756   0.080  -0.247  0.00  0.00    +0.013 A 
ATOM     17  C   UNL     1      -4.806   1.338   0.369  0.00  0.00    +0.020 A 
ATOM     18  C   UNL     1      -5.854   2.252   0.634  0.00  0.00    +0.142 A 
ATOM     19  N   UNL     1      -5.358   3.291   1.240  0.00  0.00    -0.181 NA
ATOM     20  N   UNL     1      -3.978   3.127   1.408  0.00  0.00    -0.277 N 
ATOM     21  H   UNL     1      -3.357   3.780   1.844  0.00  0.00    +0.189 HD
ATOM     22  C   UNL     1      -3.624   1.916   0.869  0.00  0.00    +0.067 A 
ATOM     23  C   UNL     1      -2.419   1.231   0.753  0.00  0.00    +0.051 A 
ATOM     24  C   UNL     1      -2.392  -0.007   0.136  0.00  0.00    +0.036 A 
ENDBRANCH   1  24
TORSDOF 1
