REMARK  Name = ZINC09292660
REMARK  7 active torsions:
REMARK  status: ('A' for Active; 'I' for Inactive)
REMARK    1  A    between atoms: C_4  and  C_7
REMARK    2  A    between atoms: C_7  and  O_8
REMARK    3  A    between atoms: O_8  and  C_9
REMARK    4  A    between atoms: C_12  and  C_15
REMARK    5  A    between atoms: C_22  and  N_34
REMARK    6  A    between atoms: C_23  and  C_32
REMARK    7  A    between atoms: C_24  and  C_26
REMARK                            x       y       z     vdW  Elec       q    Type
REMARK                         _______ _______ _______ _____ _____    ______ ____
ROOT
ATOM      1  C   UNL     1       9.259  -3.976   2.100  0.00  0.00    +0.100 A 
ATOM      2  C   UNL     1      10.148  -3.485   3.060  0.00  0.00    +0.054 A 
ATOM      3  C   UNL     1      11.277  -4.252   3.023  0.00  0.00    +0.223 A 
ATOM      4  N   UNL     1      11.102  -5.193   2.073  0.00  0.00    -0.246 N 
ATOM      5  H   UNL     1      11.741  -5.880   1.826  0.00  0.00    +0.192 HD
ATOM      6  N   UNL     1       9.830  -5.008   1.508  0.00  0.00    -0.171 NA
ATOM      7  O   UNL     1      12.340  -4.030   3.836  0.00  0.00    -0.423 OA
ATOM      8  C   UNL     1      12.381  -2.861   4.506  0.00  0.00    +0.200 C 
ATOM      9  C   UNL     1      11.326  -2.024   4.624  0.00  0.00    +0.098 C 
ATOM     10  C   UNL     1       9.982  -2.327   4.011  0.00  0.00    +0.102 C 
ENDROOT
BRANCH   1  14
ATOM     11  C   UNL     1       5.389  -2.429   1.248  0.00  0.00    +0.121 A 
ATOM     12  C   UNL     1       6.450  -1.561   1.465  0.00  0.00    +0.046 A 
ATOM     13  C   UNL     1       7.705  -2.059   1.742  0.00  0.00    +0.013 A 
ATOM     14  C   UNL     1       7.909  -3.437   1.803  0.00  0.00    +0.003 A 
ATOM     15  C   UNL     1       6.842  -4.306   1.585  0.00  0.00    +0.013 A 
ATOM     16  C   UNL     1       5.587  -3.802   1.313  0.00  0.00    +0.046 A 
BRANCH  11  17
ATOM     17  O   UNL     1       4.153  -1.935   0.975  0.00  0.00    -0.487 OA
BRANCH  17  18
ATOM     18  C   UNL     1       4.019  -0.513   0.922  0.00  0.00    +0.264 C 
BRANCH  18  22
ATOM     19  C   UNL     1      -0.034   0.507   0.040  0.00  0.00    +0.000 A 
ATOM     20  C   UNL     1       0.372   0.361   1.353  0.00  0.00    +0.000 A 
ATOM     21  C   UNL     1       1.684   0.031   1.639  0.00  0.00    +0.007 A 
ATOM     22  C   UNL     1       2.589  -0.154   0.611  0.00  0.00    -0.010 A 
ATOM     23  C   UNL     1       2.184  -0.009  -0.702  0.00  0.00    +0.007 A 
ATOM     24  C   UNL     1       0.872   0.323  -0.988  0.00  0.00    +0.000 A 
ENDBRANCH  18  22
ENDBRANCH  17  18
ENDBRANCH  11  17
ENDBRANCH   1  14
BRANCH  10  25
ATOM     25  C   UNL     1       9.000  -2.695   5.093  0.00  0.00    -0.032 A 
ATOM     26  C   UNL     1       9.201  -3.818   5.881  0.00  0.00    +0.024 A 
ATOM     27  C   UNL     1       8.279  -4.125   6.864  0.00  0.00    +0.111 A 
ATOM     28  N   UNL     1       7.220  -3.363   7.057  0.00  0.00    -0.263 NA
ATOM     29  C   UNL     1       6.997  -2.288   6.327  0.00  0.00    +0.111 A 
ATOM     30  C   UNL     1       7.878  -1.915   5.329  0.00  0.00    +0.024 A 
ENDBRANCH  10  25
BRANCH   8  31
ATOM     31  N   UNL     1      13.563  -2.499   5.103  0.00  0.00    -0.328 N 
ATOM     32  H   UNL     1      14.338  -3.079   5.036  0.00  0.00    +0.145 HD
ATOM     33  H   UNL     1      13.624  -1.663   5.592  0.00  0.00    +0.145 HD
ENDBRANCH   8  31
BRANCH   9  34
ATOM     34  C   UNL     1      11.491  -0.806   5.358  0.00  0.00    +0.101 C 
ATOM     35  N   UNL     1      11.621   0.161   5.940  0.00  0.00    -0.191 NA
ENDBRANCH   9  34
TORSDOF 7
