REMARK  Name = ZINC14276437
REMARK  8 active torsions:
REMARK  status: ('A' for Active; 'I' for Inactive)
REMARK    1  A    between atoms: C_1  and  C_2
REMARK    2  A    between atoms: C_9  and  N_13
REMARK    3  A    between atoms: C_10  and  C_11
REMARK    4  A    between atoms: N_13  and  C_14
REMARK    5  A    between atoms: C_14  and  N_16
REMARK    6  A    between atoms: C_17  and  C_19
REMARK    7  A    between atoms: C_22  and  N_28
REMARK    8  A    between atoms: C_23  and  N_25
REMARK                            x       y       z     vdW  Elec       q    Type
REMARK                         _______ _______ _______ _____ _____    ______ ____
ROOT
ATOM      1  N   UNL     1      -3.254   6.380   6.134  0.00  0.00    -0.264 N 
ATOM      2  C   UNL     1      -3.243   5.053   5.900  0.00  0.00    +0.250 C 
ATOM      3  O   UNL     1      -3.755   4.291   6.697  0.00  0.00    -0.270 OA
ATOM      4  H   UNL     1      -2.845   6.988   5.498  0.00  0.00    +0.157 HD
ENDROOT
BRANCH   2   5
ATOM      5  C   UNL     1      -2.610   4.525   4.678  0.00  0.00    +0.039 A 
ATOM      6  C   UNL     1      -2.020   5.400   3.760  0.00  0.00    +0.015 A 
ATOM      7  C   UNL     1      -1.433   4.910   2.628  0.00  0.00    +0.026 A 
ATOM      8  C   UNL     1      -1.419   3.540   2.383  0.00  0.00    +0.060 A 
ATOM      9  C   UNL     1      -2.009   2.662   3.288  0.00  0.00    +0.148 A 
ATOM     10  C   UNL     1      -2.597   3.148   4.433  0.00  0.00    +0.047 A 
BRANCH   8  11
ATOM     11  N   UNL     1      -0.820   3.048   1.229  0.00  0.00    -0.324 N 
ATOM     12  C   UNL     1      -1.455   3.607   0.026  0.00  0.00    +0.133 C 
ATOM     13  C   UNL     1      -0.806   2.995  -1.218  0.00  0.00    +0.178 C 
ATOM     14  O   UNL     1       0.603   3.241  -1.185  0.00  0.00    -0.377 OA
ATOM     15  C   UNL     1       1.253   2.709  -0.028  0.00  0.00    +0.178 C 
ATOM     16  C   UNL     1       0.625   3.318   1.229  0.00  0.00    +0.133 C 
ENDBRANCH   8  11
BRANCH   9  17
ATOM     17  N   UNL     1      -1.998   1.206   3.022  0.00  0.00    +0.058 N 
ATOM     18  O   UNL     1      -2.593   0.446   3.765  0.00  0.00    -0.126 OA
ATOM     19  O   UNL     1      -1.393   0.767   2.060  0.00  0.00    -0.126 OA
ENDBRANCH   9  17
ENDBRANCH   2   5
BRANCH   1  20
ATOM     20  C   UNL     1      -3.832   6.863   7.251  0.00  0.00    +0.141 C 
ATOM     21  S   UNL     1      -4.554   5.790   8.373  0.00  0.00    -0.018 S 
BRANCH  20  22
ATOM     22  N   UNL     1      -3.843   8.190   7.486  0.00  0.00    -0.290 N 
ATOM     23  H   UNL     1      -3.434   8.798   6.850  0.00  0.00    +0.154 HD
BRANCH  22  31
ATOM     24  C   UNL     1      -7.381  10.591  14.037  0.00  0.00    +0.008 C 
ATOM     25  C   UNL     1      -6.903  10.537  12.584  0.00  0.00    -0.009 C 
ATOM     26  C   UNL     1      -5.744  11.518  12.385  0.00  0.00    +0.008 C 
ATOM     27  C   UNL     1      -5.427  11.654  10.895  0.00  0.00    +0.037 C 
ATOM     28  C   UNL     1      -5.227  10.262  10.307  0.00  0.00    -0.018 A 
ATOM     29  C   UNL     1      -5.683   9.164  10.949  0.00  0.00    -0.004 A 
ATOM     30  S   UNL     1      -5.225   7.809   9.906  0.00  0.00    -0.077 S 
ATOM     31  C   UNL     1      -4.439   8.687   8.636  0.00  0.00    +0.089 A 
ATOM     32  C   UNL     1      -4.545  10.006   9.051  0.00  0.00    +0.084 A 
ATOM     33  C   UNL     1      -6.414   9.120  12.255  0.00  0.00    +0.046 C 
BRANCH  32  34
ATOM     34  C   UNL     1      -4.005  11.076   8.267  0.00  0.00    +0.102 C 
ATOM     35  N   UNL     1      -3.576  11.925   7.646  0.00  0.00    -0.191 NA
ENDBRANCH  32  34
ENDBRANCH  22  31
ENDBRANCH  20  22
ENDBRANCH   1  20
TORSDOF 7
