REMARK  Name = ZINC57844579
REMARK  11 active torsions:
REMARK  status: ('A' for Active; 'I' for Inactive)
REMARK    1  A    between atoms: C_1  and  C_2
REMARK    2  A    between atoms: C_2  and  C_3
REMARK    3  A    between atoms: C_3  and  C_16
REMARK    4  A    between atoms: N_6  and  C_10
REMARK    5  A    between atoms: C_10  and  C_11
REMARK    6  A    between atoms: C_11  and  C_13
REMARK    7  A    between atoms: C_11  and  C_14
REMARK    8  A    between atoms: C_19  and  C_22
REMARK    9  A    between atoms: C_22  and  C_23
REMARK   10  A    between atoms: C_22  and  C_24
REMARK   11  A    between atoms: C_22  and  C_25
REMARK                            x       y       z     vdW  Elec       q    Type
REMARK                         _______ _______ _______ _____ _____    ______ ____
ROOT
ATOM      1  C   UNL     1       0.718  -0.497  -1.257  0.00  0.00    +0.138 C 
ATOM      2  C   UNL     1       0.081   0.093  -2.499  0.00  0.00    +0.251 C 
ATOM      3  O   UNL     1      -1.061  -0.057  -2.878  0.00  0.00    -0.272 OA
ATOM      4  N   UNL     1       1.047   0.819  -3.095  0.00  0.00    -0.223 N 
ATOM      5  C   UNL     1       2.195   0.770  -2.408  0.00  0.00    +0.310 C 
ATOM      6  O   UNL     1       3.210   1.345  -2.748  0.00  0.00    -0.252 OA
ATOM      7  N   UNL     1       2.099   0.013  -1.301  0.00  0.00    -0.281 N 
ATOM      8  H   UNL     1       2.803  -0.163  -0.657  0.00  0.00    +0.152 HD
ENDROOT
BRANCH   1   9
ATOM      9  C   UNL     1       0.707  -2.003  -1.315  0.00  0.00    -0.015 A 
ATOM     10  C   UNL     1      -0.340  -2.709  -0.752  0.00  0.00    +0.006 A 
ATOM     11  C   UNL     1      -0.350  -4.090  -0.806  0.00  0.00    +0.004 A 
ATOM     12  C   UNL     1       0.686  -4.766  -1.424  0.00  0.00    -0.042 A 
ATOM     13  C   UNL     1       1.732  -4.060  -1.988  0.00  0.00    +0.004 A 
ATOM     14  C   UNL     1       1.740  -2.679  -1.938  0.00  0.00    +0.006 A 
BRANCH  12  15
ATOM     15  C   UNL     1       0.675  -6.272  -1.481  0.00  0.00    -0.013 C 
ATOM     16  C   UNL     1      -0.573  -6.744  -2.230  0.00  0.00    +0.015 C 
ATOM     17  C   UNL     1       1.926  -6.763  -2.213  0.00  0.00    +0.015 C 
ATOM     18  C   UNL     1       0.661  -6.837  -0.060  0.00  0.00    +0.015 C 
ENDBRANCH  12  15
ENDBRANCH   1   9
BRANCH   1  20
ATOM     19  C   UNL     1      -0.019   1.526   0.010  0.00  0.00    +0.007 C 
ATOM     20  C   UNL     1       0.002  -0.004   0.002  0.00  0.00    +0.037 C 
ENDBRANCH   1  20
BRANCH   4  21
ATOM     21  C   UNL     1       0.864   1.569  -4.340  0.00  0.00    +0.136 C 
BRANCH  21  22
ATOM     22  C   UNL     1       0.396   2.989  -4.016  0.00  0.00    +0.106 C 
ATOM     23  C   UNL     1       1.499   3.729  -3.257  0.00  0.00    +0.025 C 
BRANCH  22  24
ATOM     24  C   UNL     1       0.097   3.704  -5.268  0.00  0.00    +0.067 C 
ATOM     25  N   UNL     1      -0.133   4.256  -6.233  0.00  0.00    -0.196 NA
ENDBRANCH  22  24
ENDBRANCH  21  22
ENDBRANCH   4  21
TORSDOF 6
