REMARK  Name = ZINC05274855
REMARK  6 active torsions:
REMARK  status: ('A' for Active; 'I' for Inactive)
REMARK    1  A    between atoms: C_1  and  C_2
REMARK    2  A    between atoms: C_3  and  C_15
REMARK    3  A    between atoms: C_4  and  N_9
REMARK    4  A    between atoms: C_15  and  C_16
REMARK    5  A    between atoms: C_16  and  O_17
REMARK    6  A    between atoms: O_17  and  C_18
REMARK                            x       y       z     vdW  Elec       q    Type
REMARK                         _______ _______ _______ _____ _____    ______ ____
ROOT
ATOM      1  C   UNL     1      -0.097  -0.004   0.043  0.00  0.00    +0.066 C 
ATOM      2  C   UNL     1      -0.065   1.503   0.029  0.00  0.00    +0.048 A 
ATOM      3  C   UNL     1       1.135   2.175  -0.098  0.00  0.00    +0.017 A 
ATOM      4  C   UNL     1       1.119   3.571  -0.106  0.00  0.00    +0.130 A 
ATOM      5  N   UNL     1      -0.045   4.203   0.009  0.00  0.00    -0.199 NA
ATOM      6  C   UNL     1      -1.174   3.522   0.129  0.00  0.00    +0.214 A 
ATOM      7  N   UNL     1      -1.189   2.197   0.134  0.00  0.00    -0.220 NA
ATOM      8  N   UNL     1      -2.369   4.210   0.247  0.00  0.00    -0.327 N 
ATOM      9  H   UNL     1      -2.372   5.180   0.240  0.00  0.00    +0.145 HD
ATOM     10  H   UNL     1      -3.203   3.723   0.335  0.00  0.00    +0.145 HD
ENDROOT
BRANCH   4  11
ATOM     11  N   UNL     1       2.298   4.287  -0.233  0.00  0.00    -0.315 N 
ATOM     12  C   UNL     1       2.562   5.084   0.972  0.00  0.00    +0.106 C 
ATOM     13  C   UNL     1       3.937   5.744   0.858  0.00  0.00    +0.019 C 
ATOM     14  C   UNL     1       3.967   6.638  -0.385  0.00  0.00    +0.003 C 
ATOM     15  C   UNL     1       3.642   5.793  -1.620  0.00  0.00    +0.019 C 
ATOM     16  C   UNL     1       2.275   5.131  -1.434  0.00  0.00    +0.106 C 
ENDBRANCH   4  11
BRANCH   3  17
ATOM     17  C   UNL     1       2.432   1.418  -0.226  0.00  0.00    +0.081 C 
BRANCH  17  18
ATOM     18  C   UNL     1       2.733   1.167  -1.704  0.00  0.00    +0.234 C 
BRANCH  18  19
ATOM     19  O   UNL     1       3.963   0.450  -1.825  0.00  0.00    -0.492 OA
BRANCH  19  20
ATOM     20  C   UNL     1       4.378   0.144  -3.083  0.00  0.00    +0.121 A 
ATOM     21  C   UNL     1       3.614   0.521  -4.178  0.00  0.00    +0.045 A 
ATOM     22  C   UNL     1       4.041   0.214  -5.455  0.00  0.00    +0.004 A 
ATOM     23  C   UNL     1       5.223  -0.478  -5.642  0.00  0.00    +0.000 A 
ATOM     24  C   UNL     1       5.983  -0.861  -4.552  0.00  0.00    +0.004 A 
ATOM     25  C   UNL     1       5.563  -0.551  -3.273  0.00  0.00    +0.045 A 
ENDBRANCH  19  20
ENDBRANCH  18  19
ENDBRANCH  17  18
ENDBRANCH   3  17
TORSDOF 5
