REMARK  Name = ZINC14545603
REMARK  8 active torsions:
REMARK  status: ('A' for Active; 'I' for Inactive)
REMARK    1  A    between atoms: C_1  and  C_2
REMARK    2  A    between atoms: C_2  and  O_3
REMARK    3  A    between atoms: O_3  and  C_4
REMARK    4  A    between atoms: C_9  and  C_10
REMARK    5  A    between atoms: C_23  and  C_26
REMARK    6  A    between atoms: N_28  and  C_29
REMARK    7  A    between atoms: C_32  and  C_36
REMARK    8  A    between atoms: C_33  and  C_35
REMARK                            x       y       z     vdW  Elec       q    Type
REMARK                         _______ _______ _______ _____ _____    ______ ____
ROOT
ATOM      1  C   UNL     1      -1.799   4.276  -0.348  0.00  0.00    +0.108 C 
ATOM      2  C   UNL     1      -0.757   3.234  -0.695  0.00  0.00    +0.029 C 
ATOM      3  C   UNL     1       0.618   3.338  -0.025  0.00  0.00    +0.033 C 
ATOM      4  C   UNL     1       1.060   1.873  -0.008  0.00  0.00    -0.030 C 
ATOM      5  C   UNL     1      -0.006   1.078  -0.007  0.00  0.00    -0.023 C 
ATOM      6  C   UNL     1      -1.224   1.925   0.009  0.00  0.00    +0.049 C 
ATOM      7  C   UNL     1      -2.487   1.519  -0.647  0.00  0.00    -0.019 A 
ATOM      8  C   UNL     1      -2.829   0.193  -0.802  0.00  0.00    +0.006 A 
ATOM      9  C   UNL     1      -4.023  -0.166  -1.406  0.00  0.00    +0.001 A 
ATOM     10  C   UNL     1      -4.884   0.810  -1.857  0.00  0.00    +0.015 A 
ATOM     11  C   UNL     1      -4.552   2.156  -1.713  0.00  0.00    +0.058 A 
ATOM     12  C   UNL     1      -3.332   2.530  -1.111  0.00  0.00    +0.044 A 
ATOM     13  N   UNL     1      -3.041   3.882  -1.040  0.00  0.00    -0.336 N 
ATOM     14  H   UNL     1      -3.831   4.404  -0.691  0.00  0.00    +0.147 HD
ENDROOT
BRANCH   1  20
ATOM     15  C   UNL     1      -1.201   5.052   1.960  0.00  0.00    +0.125 A 
ATOM     16  C   UNL     1      -1.415   5.069   3.331  0.00  0.00    +0.046 A 
ATOM     17  C   UNL     1      -2.451   4.336   3.877  0.00  0.00    +0.004 A 
ATOM     18  C   UNL     1      -3.274   3.585   3.058  0.00  0.00    +0.001 A 
ATOM     19  C   UNL     1      -3.066   3.570   1.692  0.00  0.00    +0.009 A 
ATOM     20  C   UNL     1      -2.028   4.297   1.141  0.00  0.00    +0.015 A 
BRANCH  15  21
ATOM     21  O   UNL     1      -0.183   5.772   1.421  0.00  0.00    -0.492 OA
BRANCH  21  23
ATOM     22  C   UNL     1       1.714   7.266   1.540  0.00  0.00    +0.048 C 
ATOM     23  C   UNL     1       0.628   6.526   2.325  0.00  0.00    +0.225 C 
ENDBRANCH  21  23
ENDBRANCH  15  21
ENDBRANCH   1  20
BRANCH  11  24
ATOM     24  C   UNL     1      -5.481   3.195  -2.192  0.00  0.00    +0.250 C 
ATOM     25  O   UNL     1      -5.196   4.370  -2.068  0.00  0.00    -0.270 OA
ATOM     26  N   UNL     1      -6.647   2.842  -2.768  0.00  0.00    -0.281 N 
ATOM     27  H   UNL     1      -6.846   1.906  -2.929  0.00  0.00    +0.155 HD
BRANCH  26  28
ATOM     28  C   UNL     1      -7.572   3.825  -3.135  0.00  0.00    +0.034 A 
ATOM     29  C   UNL     1      -8.934   3.571  -3.036  0.00  0.00    +0.023 A 
ATOM     30  C   UNL     1      -9.844   4.546  -3.394  0.00  0.00    +0.005 A 
ATOM     31  C   UNL     1      -9.401   5.770  -3.862  0.00  0.00    -0.047 A 
ATOM     32  C   UNL     1      -8.046   6.024  -3.966  0.00  0.00    -0.046 A 
ATOM     33  C   UNL     1      -7.130   5.055  -3.604  0.00  0.00    +0.027 A 
ATOM     34  C   UNL     1      -7.568   7.359  -4.475  0.00  0.00    +0.044 C 
ATOM     35  C   UNL     1     -10.397   6.829  -4.257  0.00  0.00    +0.044 C 
ENDBRANCH  26  28
ENDBRANCH  11  24
TORSDOF 5
