REMARK  Name = ZINC39579888
REMARK  6 active torsions:
REMARK  status: ('A' for Active; 'I' for Inactive)
REMARK    1  A    between atoms: C_4  and  C_7
REMARK    2  A    between atoms: C_11  and  C_13
REMARK    3  A    between atoms: N_14  and  N_15
REMARK    4  A    between atoms: C_16  and  C_18
REMARK    5  A    between atoms: C_18  and  N_19
REMARK    6  A    between atoms: C_27  and  C_29
REMARK                            x       y       z     vdW  Elec       q    Type
REMARK                         _______ _______ _______ _____ _____    ______ ____
ROOT
ATOM      1  C   UNL     1       0.313  -5.844   3.349  0.00  0.00    +0.204 C 
ENDROOT
BRANCH   1   2
ATOM      2  N   UNL     1      -0.724  -6.814   2.990  0.00  0.00    -0.296 N 
ATOM      3  C   UNL     1      -2.090  -6.546   2.823  0.00  0.00    +0.053 A 
ATOM      4  C   UNL     1      -2.798  -5.356   2.946  0.00  0.00    +0.025 A 
ATOM      5  C   UNL     1      -4.162  -5.335   2.731  0.00  0.00    +0.002 A 
ATOM      6  C   UNL     1      -4.830  -6.498   2.394  0.00  0.00    +0.002 A 
ATOM      7  C   UNL     1      -4.135  -7.685   2.270  0.00  0.00    +0.025 A 
ATOM      8  C   UNL     1      -2.762  -7.716   2.483  0.00  0.00    +0.050 A 
ATOM      9  N   UNL     1      -1.854  -8.782   2.418  0.00  0.00    -0.319 N 
ATOM     10  C   UNL     1      -0.525  -8.245   2.732  0.00  0.00    +0.216 C 
ATOM     11  H   UNL     1      -2.065  -9.704   2.202  0.00  0.00    +0.148 HD
BRANCH  10  12
ATOM     12  C   UNL     1       0.030  -8.922   3.958  0.00  0.00    +0.164 A 
ATOM     13  C   UNL     1       1.266  -9.700   4.017  0.00  0.00    +0.187 A 
ATOM     14  N   UNL     1       1.422 -10.130   5.240  0.00  0.00    -0.034 NA
ATOM     15  O   UNL     1       0.325  -9.663   6.005  0.00  0.00    -0.241 OA
ATOM     16  N   UNL     1      -0.506  -8.908   5.140  0.00  0.00    -0.048 NA
ATOM     17  N   UNL     1       2.128  -9.941   2.953  0.00  0.00    -0.339 N 
ATOM     18  H   UNL     1       1.972  -9.514   2.096  0.00  0.00    +0.144 HD
ATOM     19  H   UNL     1       2.885 -10.537   3.067  0.00  0.00    +0.144 HD
ENDBRANCH  10  12
ENDBRANCH   1   2
BRANCH   1  21
ATOM     20  N   UNL     1       1.861  -4.307   2.182  0.00  0.00    -0.206 N 
ATOM     21  C   UNL     1       0.885  -5.233   2.095  0.00  0.00    +0.250 C 
ATOM     22  O   UNL     1       0.467  -5.574   1.009  0.00  0.00    -0.272 OA
ATOM     23  H   UNL     1       2.195  -4.035   3.050  0.00  0.00    +0.177 HD
BRANCH  20  25
ATOM     24  C   UNL     1       3.320  -2.860   1.098  0.00  0.00    +0.118 C 
ATOM     25  N   UNL     1       2.393  -3.739   1.016  0.00  0.00    -0.192 NA
BRANCH  24  30
ATOM     26  C   UNL     1       3.685  -0.748  -0.160  0.00  0.00    +0.084 C 
ATOM     27  N   UNL     1       4.880  -0.225  -0.178  0.00  0.00    -0.153 NA
ATOM     28  N   UNL     1       5.877  -1.194  -0.192  0.00  0.00    -0.161 NA
ATOM     29  C   UNL     1       5.400  -2.396  -0.183  0.00  0.00    +0.123 C 
ATOM     30  C   UNL     1       3.892  -2.249  -0.155  0.00  0.00    +0.125 C 
BRANCH  26  34
ATOM     31  C   UNL     1      -0.015   1.327  -0.105  0.00  0.00    +0.000 A 
ATOM     32  C   UNL     1       1.173   2.037  -0.130  0.00  0.00    +0.001 A 
ATOM     33  C   UNL     1       2.379   1.370  -0.148  0.00  0.00    +0.010 A 
ATOM     34  C   UNL     1       2.401  -0.028  -0.140  0.00  0.00    -0.001 A 
ATOM     35  C   UNL     1       1.197  -0.739  -0.115  0.00  0.00    +0.010 A 
ATOM     36  C   UNL     1      -0.001  -0.057  -0.098  0.00  0.00    +0.001 A 
ENDBRANCH  26  34
ENDBRANCH  24  30
ENDBRANCH  20  25
ENDBRANCH   1  21
TORSDOF 6
