REMARK  Name = ZINC30983507
REMARK  5 active torsions:
REMARK  status: ('A' for Active; 'I' for Inactive)
REMARK    1  A    between atoms: C_1  and  C_2
REMARK    2  A    between atoms: C_2  and  C_4
REMARK    3  A    between atoms: C_2  and  N_9
REMARK    4  A    between atoms: N_12  and  C_13
REMARK    5  A    between atoms: C_13  and  C_14
REMARK                            x       y       z     vdW  Elec       q    Type
REMARK                         _______ _______ _______ _____ _____    ______ ____
ROOT
ATOM      1  N   UNL     1      -1.156  -0.694   0.009  0.00  0.00    -0.292 N 
ATOM      2  C   UNL     1       0.002  -0.004   0.002  0.00  0.00    +0.300 C 
ATOM      3  O   UNL     1       1.063  -0.598  -0.011  0.00  0.00    -0.253 OA
ATOM      4  N   UNL     1      -0.016   1.344   0.009  0.00  0.00    -0.296 N 
ATOM      5  H   UNL     1      -2.116  -0.157   0.021  0.00  0.00    +0.151 HD
ATOM      6  H   UNL     1      -0.976   1.881   0.021  0.00  0.00    +0.150 HD
ENDROOT
BRANCH   1   8
ATOM      7  C   UNL     1      -0.990  -2.675   1.434  0.00  0.00    +0.033 C 
ATOM      8  C   UNL     1      -1.136  -2.159   0.001  0.00  0.00    +0.108 C 
BRANCH   8   9
ATOM      9  C   UNL     1      -2.422  -2.675  -0.590  0.00  0.00    +0.010 A 
ATOM     10  C   UNL     1      -2.616  -3.718  -1.433  0.00  0.00    +0.013 A 
ATOM     11  C   UNL     1      -3.900  -4.014  -1.850  0.00  0.00    +0.008 A 
ATOM     12  C   UNL     1      -4.928  -3.252  -1.403  0.00  0.00    +0.045 A 
ATOM     13  S   UNL     1      -4.088  -2.077  -0.354  0.00  0.00    -0.100 S 
ENDBRANCH   8   9
ENDBRANCH   1   8
BRANCH   4  14
ATOM     14  C   UNL     1       1.242   2.093   0.001  0.00  0.00    +0.153 C 
BRANCH  14  15
ATOM     15  C   UNL     1       0.943   3.594   0.012  0.00  0.00    +0.228 C 
ATOM     16  C   UNL     1       2.252   4.384  -0.107  0.00  0.00    +0.275 C 
ATOM     17  O   UNL     1       1.937   5.780  -0.079  0.00  0.00    -0.485 OA
ATOM     18  C   UNL     1       1.064   6.192   0.881  0.00  0.00    +0.162 A 
ATOM     19  C   UNL     1       0.987   7.540   1.198  0.00  0.00    +0.049 A 
ATOM     20  C   UNL     1       0.102   7.974   2.166  0.00  0.00    +0.004 A 
ATOM     21  C   UNL     1      -0.710   7.066   2.821  0.00  0.00    +0.004 A 
ATOM     22  C   UNL     1      -0.637   5.721   2.510  0.00  0.00    +0.049 A 
ATOM     23  C   UNL     1       0.251   5.279   1.541  0.00  0.00    +0.163 A 
ATOM     24  O   UNL     1       0.313   3.951   1.248  0.00  0.00    -0.480 OA
ENDBRANCH  14  15
ENDBRANCH   4  14
TORSDOF 4
