REMARK  Name = ZINC67478538
REMARK  9 active torsions:
REMARK  status: ('A' for Active; 'I' for Inactive)
REMARK    1  A    between atoms: C_1  and  C_2
REMARK    2  A    between atoms: C_2  and  C_4
REMARK    3  A    between atoms: C_2  and  N_13
REMARK    4  A    between atoms: N_6  and  C_7
REMARK    5  A    between atoms: C_7  and  C_8
REMARK    6  A    between atoms: N_16  and  C_17
REMARK    7  A    between atoms: C_17  and  C_18
REMARK    8  A    between atoms: N_23  and  C_24
REMARK    9  A    between atoms: C_24  and  C_25
REMARK                            x       y       z     vdW  Elec       q    Type
REMARK                         _______ _______ _______ _____ _____    ______ ____
ROOT
ATOM      1  N   UNL     1       0.301  -0.353   1.497  0.00  0.00    -0.288 N 
ATOM      2  C   UNL     1       1.635  -0.470   1.347  0.00  0.00    +0.300 C 
ATOM      3  O   UNL     1       2.160  -0.143   0.301  0.00  0.00    -0.253 OA
ATOM      4  N   UNL     1       2.387  -0.950   2.358  0.00  0.00    -0.301 N 
ATOM      5  H   UNL     1      -0.118  -0.614   2.332  0.00  0.00    +0.151 HD
ATOM      6  H   UNL     1       1.968  -1.212   3.192  0.00  0.00    +0.150 HD
ENDROOT
BRANCH   1   8
ATOM      7  C   UNL     1      -0.523   1.698   0.451  0.00  0.00    +0.038 C 
ATOM      8  C   UNL     1      -0.516   0.169   0.399  0.00  0.00    +0.157 C 
BRANCH   8   9
ATOM      9  C   UNL     1      -1.927  -0.344   0.534  0.00  0.00    +0.233 C 
ATOM     10  O   UNL     1      -2.220  -1.075   1.457  0.00  0.00    -0.274 OA
ATOM     11  N   UNL     1      -2.862   0.008  -0.370  0.00  0.00    -0.307 N 
ATOM     12  H   UNL     1      -2.627   0.592  -1.109  0.00  0.00    +0.149 HD
BRANCH  11  13
ATOM     13  C   UNL     1      -4.233  -0.492  -0.239  0.00  0.00    +0.178 C 
BRANCH  13  14
ATOM     14  C   UNL     1      -5.073   0.045  -1.369  0.00  0.00    +0.122 A 
ATOM     15  C   UNL     1      -5.258  -0.547  -2.563  0.00  0.00    +0.046 A 
ATOM     16  C   UNL     1      -6.111   0.297  -3.311  0.00  0.00    +0.041 A 
ATOM     17  C   UNL     1      -6.396   1.354  -2.530  0.00  0.00    +0.195 A 
ATOM     18  O   UNL     1      -5.770   1.193  -1.352  0.00  0.00    -0.466 OA
ENDBRANCH  13  14
ENDBRANCH  11  13
ENDBRANCH   8   9
ENDBRANCH   1   8
BRANCH   4  19
ATOM     19  C   UNL     1       3.837  -1.078   2.195  0.00  0.00    +0.090 C 
BRANCH  19  20
ATOM     20  C   UNL     1       4.447  -1.644   3.479  0.00  0.00    -0.051 C 
ATOM     21  C   UNL     1       5.987  -1.625   3.382  0.00  0.00    -0.016 C 
ATOM     22  C   UNL     1       6.368  -0.319   4.128  0.00  0.00    -0.020 C 
ATOM     23  C   UNL     1       5.306  -0.280   5.255  0.00  0.00    -0.078 C 
ATOM     24  N   UNL     1       4.068  -0.800   4.628  0.00  0.00    +0.383 N 
ATOM     25  H   UNL     1       3.498  -0.031   4.311  0.00  0.00    -0.081 HD
BRANCH  24  26
ATOM     26  C   UNL     1       3.315  -1.602   5.603  0.00  0.00    -0.075 C 
BRANCH  26  27
ATOM     27  C   UNL     1       2.805  -0.694   6.723  0.00  0.00    -0.028 C 
ATOM     28  C   UNL     1       2.143  -1.546   7.808  0.00  0.00    +0.002 C 
ATOM     29  C   UNL     1       1.632  -0.638   8.929  0.00  0.00    +0.000 C 
ATOM     30  C   UNL     1       0.610   0.348   8.361  0.00  0.00    +0.000 C 
ATOM     31  C   UNL     1       1.272   1.200   7.276  0.00  0.00    +0.000 C 
ATOM     32  C   UNL     1       1.782   0.292   6.155  0.00  0.00    +0.002 C 
ENDBRANCH  26  27
ENDBRANCH  24  26
ENDBRANCH  19  20
ENDBRANCH   4  19
TORSDOF 8
