REMARK  Name = ZINC38748324
REMARK  6 active torsions:
REMARK  status: ('A' for Active; 'I' for Inactive)
REMARK    1  A    between atoms: C_1  and  C_2
REMARK    2  A    between atoms: C_4  and  C_8
REMARK    3  A    between atoms: C_12  and  S_16
REMARK    4  A    between atoms: N_14  and  N_15
REMARK    5  A    between atoms: S_16  and  C_17
REMARK    6  A    between atoms: C_17  and  C_18
REMARK                            x       y       z     vdW  Elec       q    Type
REMARK                         _______ _______ _______ _____ _____    ______ ____
ROOT
ATOM      1  C   UNL     1      -0.964  -2.951   1.248  0.00  0.00    +0.185 C 
ATOM      2  N   UNL     1      -0.394  -2.321   2.467  0.00  0.00    -0.234 NA
ATOM      3  N   UNL     1      -0.366  -3.400   3.458  0.00  0.00    -0.228 NA
ATOM      4  C   UNL     1      -0.345  -4.671   2.707  0.00  0.00    +0.214 C 
ATOM      5  N   UNL     1      -0.372  -4.314   1.268  0.00  0.00    -0.197 NA
ATOM      6  H   UNL     1       0.534  -1.968   2.292  0.00  0.00    +0.143 HD
ATOM      7  H   UNL     1      -1.169  -3.353   4.067  0.00  0.00    +0.143 HD
ENDROOT
BRANCH   1  11
ATOM      8  C   UNL     1      -0.018   1.503   0.010  0.00  0.00    +0.067 C 
ATOM      9  C   UNL     1       0.002  -0.004   0.002  0.00  0.00    +0.058 C 
ATOM     10  C   UNL     1      -1.086  -0.777   0.003  0.00  0.00    +0.029 C 
ATOM     11  C   UNL     1      -0.531  -2.190  -0.007  0.00  0.00    +0.186 C 
ATOM     12  N   UNL     1       0.926  -1.973  -0.013  0.00  0.00    -0.177 NA
ATOM     13  N   UNL     1       1.125  -0.756  -0.013  0.00  0.00    -0.159 NA
ENDBRANCH   1  11
BRANCH   5  14
ATOM     14  N   UNL     1      -1.189  -5.248   0.510  0.00  0.00    -0.264 NA
ATOM     15  H   UNL     1      -0.787  -6.174   0.523  0.00  0.00    +0.137 HD
ATOM     16  H   UNL     1      -2.137  -5.261   0.854  0.00  0.00    +0.137 HD
ENDBRANCH   5  14
BRANCH   4  17
ATOM     17  S   UNL     1       1.165  -5.598   3.094  0.00  0.00    -0.115 S 
BRANCH  17  18
ATOM     18  C   UNL     1       2.505  -4.470   2.622  0.00  0.00    +0.168 C 
BRANCH  18  19
ATOM     19  C   UNL     1       3.834  -5.125   2.896  0.00  0.00    +0.226 C 
ATOM     20  O   UNL     1       3.873  -6.244   3.364  0.00  0.00    -0.275 OA
ATOM     21  N   UNL     1       4.979  -4.469   2.622  0.00  0.00    -0.296 N 
ATOM     22  C   UNL     1       4.956  -3.109   2.060  0.00  0.00    +0.136 C 
ATOM     23  C   UNL     1       5.876  -2.221   2.907  0.00  0.00    +0.179 C 
ATOM     24  O   UNL     1       7.159  -2.841   3.016  0.00  0.00    -0.377 OA
ATOM     25  C   UNL     1       7.143  -4.106   3.682  0.00  0.00    +0.179 C 
ATOM     26  C   UNL     1       6.288  -5.088   2.881  0.00  0.00    +0.136 C 
ENDBRANCH  18  19
ENDBRANCH  17  18
ENDBRANCH   4  17
TORSDOF 5
