REMARK  Name = ZINC56818509
REMARK  10 active torsions:
REMARK  status: ('A' for Active; 'I' for Inactive)
REMARK    1  A    between atoms: C_1  and  C_2
REMARK    2  A    between atoms: C_5  and  C_8
REMARK    3  A    between atoms: C_8  and  N_9
REMARK    4  A    between atoms: N_12  and  C_13
REMARK    5  A    between atoms: C_13  and  C_15
REMARK    6  A    between atoms: C_13  and  C_17
REMARK    7  A    between atoms: C_15  and  O_16
REMARK    8  A    between atoms: C_17  and  C_19
REMARK    9  A    between atoms: C_17  and  O_28
REMARK   10  A    between atoms: C_22  and  N_25
REMARK                            x       y       z     vdW  Elec       q    Type
REMARK                         _______ _______ _______ _____ _____    ______ ____
ROOT
ATOM      1  C   UNK A   1      -1.869  -0.530   8.612  0.00  0.00    +0.133 C 
ENDROOT
BRANCH   1   5
ATOM      2  N   UNK A   0      -1.611  -0.277   4.953  0.00  0.00    -0.299 N 
ATOM      3  C   UNK A   0      -2.029  -0.090   6.221  0.00  0.00    +0.300 C 
ATOM      4  O   UNK A   0      -2.959   0.658   6.450  0.00  0.00    -0.253 OA
ATOM      5  N   UNK A   1      -1.415  -0.733   7.234  0.00  0.00    -0.292 N 
ATOM      6  H   UNK A   0      -0.869  -0.874   4.770  0.00  0.00    +0.150 HD
ATOM      7  H   UNK A   1      -0.673  -1.330   7.051  0.00  0.00    +0.151 HD
BRANCH   2   8
ATOM      8  C   UNK A   0      -2.279   0.421   3.851  0.00  0.00    +0.109 C 
BRANCH   8  13
ATOM      9  C   UNK A   0      -0.277   2.312   0.179  0.00  0.00    +0.007 C 
ATOM     10  C   UNK A   0      -0.283   0.789   0.029  0.00  0.00    -0.014 C 
ATOM     11  C   UNK A   0      -1.727   0.282   0.043  0.00  0.00    +0.003 C 
ATOM     12  C   UNK A   0      -2.390   0.667   1.367  0.00  0.00    +0.005 C 
ATOM     13  C   UNK A   0      -1.616   0.036   2.527  0.00  0.00    +0.006 C 
ATOM     14  C   UNK A   0      -0.173   0.544   2.513  0.00  0.00    +0.005 C 
ATOM     15  C   UNK A   0       0.490   0.159   1.189  0.00  0.00    +0.003 C 
ENDBRANCH   8  13
ENDBRANCH   2   8
ENDBRANCH   1   5
BRANCH   1  16
ATOM     16  C   UNK A   1      -3.032  -1.477   8.911  0.00  0.00    +0.181 C 
BRANCH  16  17
ATOM     17  O   UNK A   1      -2.574  -2.829   8.847  0.00  0.00    -0.393 OA
ATOM     18  H   UNK A   1      -3.261  -3.486   9.026  0.00  0.00    +0.209 HD
ENDBRANCH  16  17
ENDBRANCH   1  16
BRANCH   1  19
ATOM     19  C   UNK A   1      -0.716  -0.818   9.576  0.00  0.00    +0.167 C 
BRANCH  19  20
ATOM     20  C   UNK A   1       0.401   0.164   9.331  0.00  0.00    -0.017 A 
ATOM     21  C   UNK A   1       0.380   1.402   9.945  0.00  0.00    +0.008 A 
ATOM     22  C   UNK A   1       1.404   2.303   9.720  0.00  0.00    +0.033 A 
ATOM     23  C   UNK A   1       2.450   1.964   8.883  0.00  0.00    +0.126 A 
ATOM     24  C   UNK A   1       2.472   0.725   8.270  0.00  0.00    +0.033 A 
ATOM     25  C   UNK A   1       1.450  -0.177   8.498  0.00  0.00    +0.008 A 
BRANCH  23  26
ATOM     26  N   UNK A   1       3.547   2.929   8.641  0.00  0.00    +0.056 N 
ATOM     27  O   UNK A   1       3.528   4.012   9.177  0.00  0.00    -0.126 OA
ATOM     28  O   UNK A   1       4.462   2.633   7.909  0.00  0.00    -0.126 OA
ENDBRANCH  23  26
ENDBRANCH  19  20
BRANCH  19  29
ATOM     29  O   UNK A   1      -1.178  -0.688  10.922  0.00  0.00    -0.385 OA
ATOM     30  H   UNK A   1      -1.601   0.160  11.113  0.00  0.00    +0.210 HD
ENDBRANCH  19  29
ENDBRANCH   1  19
TORSDOF 9
