REMARK  Name = ZINC00072341
REMARK  8 active torsions:
REMARK  status: ('A' for Active; 'I' for Inactive)
REMARK    1  A    between atoms: C_1  and  C_2
REMARK    2  A    between atoms: C_2  and  C_3
REMARK    3  A    between atoms: C_6  and  C_9
REMARK    4  A    between atoms: C_11  and  C_25
REMARK    5  A    between atoms: C_12  and  N_24
REMARK    6  A    between atoms: N_13  and  N_21
REMARK    7  A    between atoms: N_21  and  C_22
REMARK    8  A    between atoms: N_21  and  C_23
REMARK                            x       y       z     vdW  Elec       q    Type
REMARK                         _______ _______ _______ _____ _____    ______ ____
ROOT
ATOM      1  C   UNL     1      -5.792  -0.433  -0.358  0.00  0.00    +0.097 C 
ATOM      2  C   UNL     1      -6.027  -1.913  -0.432  0.00  0.00    +0.078 C 
ATOM      3  C   UNL     1      -6.368  -2.512  -1.603  0.00  0.00    +0.117 C 
ATOM      4  N   UNL     1      -6.510  -1.761  -2.745  0.00  0.00    -0.223 N 
ATOM      5  C   UNL     1      -6.712  -0.409  -2.668  0.00  0.00    +0.036 C 
ATOM      6  C   UNL     1      -6.386   0.272  -1.551  0.00  0.00    +0.026 C 
ATOM      7  C   UNL     1      -6.588   1.660  -1.465  0.00  0.00    +0.162 C 
ATOM      8  O   UNL     1      -6.297   2.243  -0.440  0.00  0.00    -0.292 OA
ATOM      9  C   UNL     1      -7.157   2.438  -2.620  0.00  0.00    +0.080 C 
ATOM     10  C   UNL     1      -6.790   1.728  -3.928  0.00  0.00    +0.014 C 
ATOM     11  C   UNL     1      -7.312   0.294  -3.861  0.00  0.00    +0.053 C 
ENDROOT
BRANCH   1  15
ATOM     12  C   UNL     1      -1.587   0.310  -0.240  0.00  0.00    -0.048 A 
ATOM     13  C   UNL     1      -2.390   0.716   0.809  0.00  0.00    +0.004 A 
ATOM     14  C   UNL     1      -3.751   0.475   0.771  0.00  0.00    +0.005 A 
ATOM     15  C   UNL     1      -4.309  -0.171  -0.316  0.00  0.00    -0.035 A 
ATOM     16  C   UNL     1      -3.506  -0.576  -1.366  0.00  0.00    +0.005 A 
ATOM     17  C   UNL     1      -2.145  -0.332  -1.330  0.00  0.00    +0.004 A 
BRANCH  12  19
ATOM     18  C   UNL     1       0.192   1.935  -0.828  0.00  0.00    +0.009 C 
ATOM     19  C   UNL     1      -0.103   0.572  -0.198  0.00  0.00    +0.032 C 
ENDBRANCH  12  19
ENDBRANCH   1  15
BRANCH   4  20
ATOM     20  N   UNL     1      -6.449  -2.369  -3.967  0.00  0.00    -0.227 NA
ATOM     21  C   UNL     1      -7.754  -2.328  -4.641  0.00  0.00    +0.128 C 
ATOM     22  C   UNL     1      -5.406  -1.763  -4.805  0.00  0.00    +0.128 C 
ENDBRANCH   4  20
BRANCH   3  23
ATOM     23  N   UNL     1      -6.570  -3.870  -1.645  0.00  0.00    -0.344 N 
ATOM     24  H   UNL     1      -6.391  -4.412  -0.861  0.00  0.00    +0.144 HD
ATOM     25  H   UNL     1      -6.891  -4.288  -2.460  0.00  0.00    +0.144 HD
ENDBRANCH   3  23
BRANCH   2  26
ATOM     26  C   UNL     1      -5.891  -2.708   0.752  0.00  0.00    +0.099 C 
ATOM     27  N   UNL     1      -5.782  -3.339   1.690  0.00  0.00    -0.191 NA
ENDBRANCH   2  26
TORSDOF 5
