REMARK  Name = ZINC06655445
REMARK  7 active torsions:
REMARK  status: ('A' for Active; 'I' for Inactive)
REMARK    1  A    between atoms: C_1  and  C_2
REMARK    2  A    between atoms: C_2  and  C_3
REMARK    3  A    between atoms: N_5  and  C_22
REMARK    4  A    between atoms: C_8  and  C_10
REMARK    5  A    between atoms: C_10  and  C_11
REMARK    6  A    between atoms: C_11  and  C_20
REMARK    7  A    between atoms: C_12  and  C_13
REMARK                            x       y       z     vdW  Elec       q    Type
REMARK                         _______ _______ _______ _____ _____    ______ ____
ROOT
ATOM      1  C   UNL     1       4.705   0.631   1.149  0.00  0.00    +0.049 C 
ATOM      2  N   UNL     1       5.699   1.430   1.168  0.00  0.00    -0.181 NA
ATOM      3  N   UNL     1       5.330   2.758   1.362  0.00  0.00    -0.160 N 
ATOM      4  C   UNL     1       3.991   2.877   1.486  0.00  0.00    +0.248 C 
ATOM      5  O   UNL     1       3.354   3.894   1.663  0.00  0.00    -0.273 OA
ATOM      6  C   UNL     1       3.457   1.464   1.353  0.00  0.00    +0.128 C 
ENDROOT
BRANCH   3   7
ATOM      7  C   UNL     1       6.230   3.829   1.423  0.00  0.00    +0.060 A 
ATOM      8  C   UNL     1       5.760   5.122   1.616  0.00  0.00    +0.027 A 
ATOM      9  C   UNL     1       6.650   6.176   1.679  0.00  0.00    +0.022 A 
ATOM     10  C   UNL     1       8.008   5.947   1.541  0.00  0.00    +0.041 A 
ATOM     11  C   UNL     1       8.478   4.660   1.344  0.00  0.00    +0.022 A 
ATOM     12  C   UNL     1       7.593   3.602   1.284  0.00  0.00    +0.027 A 
ATOM     13 CL   UNL     1       9.123   7.275   1.616  0.00  0.00    -0.084 Cl
ENDBRANCH   3   7
BRANCH   1  15
ATOM     14  C   UNL     1       6.218  -1.300   0.787  0.00  0.00    +0.010 C 
ATOM     15  C   UNL     1       4.762  -0.863   0.959  0.00  0.00    +0.050 C 
ENDBRANCH   1  15
BRANCH   6  16
ATOM     16  C   UNL     1       2.529   1.350   0.142  0.00  0.00    +0.061 C 
BRANCH  16  17
ATOM     17  C   UNL     1       1.291   2.176   0.379  0.00  0.00    +0.042 C 
ATOM     18  C   UNL     1       1.222   3.439  -0.093  0.00  0.00    +0.018 C 
BRANCH  18  19
ATOM     19  C   UNL     1      -0.059   4.162  -0.077  0.00  0.00    -0.024 A 
ATOM     20  C   UNL     1      -1.232   3.520  -0.489  0.00  0.00    +0.011 A 
ATOM     21  C   UNL     1      -2.430   4.201  -0.467  0.00  0.00    +0.039 A 
ATOM     22  C   UNL     1      -2.472   5.523  -0.049  0.00  0.00    +0.123 A 
ATOM     23  C   UNL     1      -1.312   6.166   0.356  0.00  0.00    +0.039 A 
ATOM     24  C   UNL     1      -0.109   5.495   0.344  0.00  0.00    +0.011 A 
ATOM     25  F   UNL     1      -3.649   6.186  -0.035  0.00  0.00    -0.205 F 
ENDBRANCH  18  19
BRANCH  17  26
ATOM     26  C   UNL     1       0.165   1.610   1.119  0.00  0.00    +0.383 C 
ATOM     27  O   UNL     1      -0.779   2.315   1.421  0.00  0.00    -0.241 OA
ATOM     28  O   UNL     1       0.170   0.305   1.461  0.00  0.00    -0.241 OA
ENDBRANCH  17  26
ENDBRANCH  16  17
ENDBRANCH   6  16
TORSDOF 6
