REMARK  Name = ZINC21519291
REMARK  6 active torsions:
REMARK  status: ('A' for Active; 'I' for Inactive)
REMARK    1  A    between atoms: C_1  and  C_2
REMARK    2  A    between atoms: C_2  and  C_4
REMARK    3  A    between atoms: C_2  and  O_14
REMARK    4  A    between atoms: N_6  and  C_7
REMARK    5  A    between atoms: C_12  and  N_13
REMARK    6  A    between atoms: O_14  and  C_15
REMARK                            x       y       z     vdW  Elec       q    Type
REMARK                         _______ _______ _______ _____ _____    ______ ____
ROOT
ATOM      1  C   UNL     1       0.760  -0.593   1.301  0.00  0.00    +0.258 C 
ATOM      2  O   UNL     1       0.212  -1.199   2.197  0.00  0.00    -0.271 OA
ATOM      3  N   UNL     1       2.078  -0.321   1.379  0.00  0.00    -0.281 N 
ATOM      4  H   UNL     1       2.555   0.307   0.612  0.00  0.00    +0.155 HD
ENDROOT
BRANCH   3   5
ATOM      5  C   UNL     1       2.839  -0.838   2.436  0.00  0.00    +0.054 A 
ATOM      6  C   UNL     1       2.429  -1.990   3.089  0.00  0.00    +0.025 A 
ATOM      7  C   UNL     1       3.184  -2.501   4.128  0.00  0.00    +0.002 A 
ATOM      8  C   UNL     1       4.343  -1.861   4.527  0.00  0.00    +0.002 A 
ATOM      9  C   UNL     1       4.756  -0.708   3.885  0.00  0.00    +0.024 A 
ATOM     10  C   UNL     1       4.007  -0.191   2.838  0.00  0.00    +0.046 A 
BRANCH  10  11
ATOM     11  N   UNL     1       4.423   0.976   2.188  0.00  0.00    -0.357 N 
ATOM     12  H   UNL     1       5.344   1.484   2.506  0.00  0.00    +0.142 HD
ATOM     13  H   UNL     1       3.828   1.384   1.357  0.00  0.00    +0.142 HD
ENDBRANCH  10  11
ENDBRANCH   3   5
BRANCH   1  15
ATOM     14  C   UNL     1      -0.066   1.384   0.052  0.00  0.00    +0.062 C 
ATOM     15  C   UNL     1      -0.032  -0.145   0.100  0.00  0.00    +0.256 C 
BRANCH  15  16
ATOM     16  O   UNL     1      -1.366  -0.648   0.194  0.00  0.00    -0.479 OA
BRANCH  16  17
ATOM     17  C   UNL     1      -2.053  -0.799  -0.970  0.00  0.00    +0.136 A 
ATOM     18  C   UNL     1      -1.423  -0.565  -2.183  0.00  0.00    +0.048 A 
ATOM     19  C   UNL     1      -2.121  -0.724  -3.365  0.00  0.00    +0.023 A 
ATOM     20  C   UNL     1      -3.451  -1.106  -3.338  0.00  0.00    +0.042 A 
ATOM     21  C   UNL     1      -4.083  -1.335  -2.129  0.00  0.00    +0.039 A 
ATOM     22  C   UNL     1      -3.387  -1.182  -0.945  0.00  0.00    +0.061 A 
ATOM     23 BR   UNL     1      -4.251  -1.496   0.708  0.00  0.00    -0.046 Br
ATOM     24 CL   UNL     1      -4.327  -1.298  -4.825  0.00  0.00    -0.084 Cl
ENDBRANCH  16  17
ENDBRANCH  15  16
ENDBRANCH   1  15
TORSDOF 5
