REMARK  Name = ZINC36803093
REMARK  7 active torsions:
REMARK  status: ('A' for Active; 'I' for Inactive)
REMARK    1  A    between atoms: C_1  and  C_2
REMARK    2  A    between atoms: C_5  and  C_8
REMARK    3  A    between atoms: C_10  and  C_13
REMARK    4  A    between atoms: C_13  and  S_14
REMARK    5  A    between atoms: S_14  and  C_15
REMARK    6  A    between atoms: N_19  and  C_20
REMARK    7  A    between atoms: C_23  and  O_26
REMARK                            x       y       z     vdW  Elec       q    Type
REMARK                         _______ _______ _______ _____ _____    ______ ____
ROOT
ATOM      1  S   UNL     1      -1.604  -7.991   1.969  0.00  0.00    -0.076 S 
ENDROOT
BRANCH   1   2
ATOM      2  C   UNL     1      -1.418  -9.366   3.054  0.00  0.00    +0.214 A 
ATOM      3  N   UNL     1      -0.283  -9.881   3.478  0.00  0.00    -0.101 NA
ATOM      4  N   UNL     1      -0.504 -10.876   4.259  0.00  0.00    -0.022 NA
ATOM      5  N   UNL     1      -1.771 -11.071   4.391  0.00  0.00    -0.038 NA
ATOM      6  N   UNL     1      -2.417 -10.092   3.616  0.00  0.00    -0.187 N 
BRANCH   6   7
ATOM      7  C   UNL     1      -3.799  -9.906   3.456  0.00  0.00    +0.070 A 
ATOM      8  C   UNL     1      -4.315  -8.625   3.313  0.00  0.00    +0.031 A 
ATOM      9  C   UNL     1      -5.675  -8.443   3.155  0.00  0.00    +0.047 A 
ATOM     10  C   UNL     1      -6.525  -9.539   3.139  0.00  0.00    +0.117 A 
ATOM     11  C   UNL     1      -6.009 -10.819   3.281  0.00  0.00    +0.047 A 
ATOM     12  C   UNL     1      -4.649 -11.003   3.433  0.00  0.00    +0.031 A 
BRANCH  10  13
ATOM     13  O   UNL     1      -7.863  -9.359   2.983  0.00  0.00    -0.507 OA
ATOM     14  H   UNL     1      -8.156  -9.367   2.062  0.00  0.00    +0.292 HD
ENDBRANCH  10  13
ENDBRANCH   6   7
ENDBRANCH   1   2
BRANCH   1  15
ATOM     15  C   UNL     1       0.100  -7.494   1.595  0.00  0.00    +0.157 C 
BRANCH  15  18
ATOM     16  C   UNL     1       0.058  -4.251  -0.021  0.00  0.00    +0.258 A 
ATOM     17  N   UNL     1       0.068  -5.029   1.038  0.00  0.00    -0.191 NA
ATOM     18  C   UNL     1       0.085  -6.310   0.662  0.00  0.00    +0.182 A 
ATOM     19  N   UNL     1       0.086  -6.373  -0.639  0.00  0.00    -0.060 NA
ATOM     20  O   UNL     1       0.062  -5.035  -1.113  0.00  0.00    -0.333 OA
BRANCH  16  25
ATOM     21  C   UNL     1      -0.018   1.503   0.010  0.00  0.00    +0.044 C 
ATOM     22  C   UNL     1       0.002  -0.004   0.002  0.00  0.00    -0.050 A 
ATOM     23  C   UNL     1       0.006  -0.686  -1.202  0.00  0.00    +0.004 A 
ATOM     24  C   UNL     1       0.024  -2.066  -1.216  0.00  0.00    +0.013 A 
ATOM     25  C   UNL     1       0.039  -2.773  -0.013  0.00  0.00    +0.039 A 
ATOM     26  C   UNL     1       0.036  -2.079   1.198  0.00  0.00    +0.013 A 
ATOM     27  C   UNL     1       0.023  -0.699   1.198  0.00  0.00    +0.004 A 
ENDBRANCH  16  25
ENDBRANCH  15  18
ENDBRANCH   1  15
TORSDOF 6
