REMARK  Name = ZINC63848244
REMARK  9 active torsions:
REMARK  status: ('A' for Active; 'I' for Inactive)
REMARK    1  A    between atoms: C_1  and  C_2
REMARK    2  A    between atoms: C_4  and  C_17
REMARK    3  A    between atoms: N_12  and  C_13
REMARK    4  A    between atoms: C_13  and  C_14
REMARK    5  A    between atoms: C_17  and  N_18
REMARK    6  A    between atoms: N_18  and  C_19
REMARK    7  A    between atoms: C_19  and  C_20
REMARK    8  A    between atoms: C_20  and  C_21
REMARK    9  A    between atoms: C_24  and  C_27
REMARK                            x       y       z     vdW  Elec       q    Type
REMARK                         _______ _______ _______ _____ _____    ______ ____
ROOT
ATOM      1  C   UNL     1      -0.161  -1.430  -2.068  0.00  0.00    -0.073 C 
ENDROOT
BRANCH   1   4
ATOM      2  C   UNL     1      -0.019   1.526   0.010  0.00  0.00    +0.028 C 
ATOM      3  C   UNL     1       0.002  -0.004   0.002  0.00  0.00    +0.077 C 
ATOM      4  C   UNL     1       0.748  -0.521  -1.239  0.00  0.00    +0.024 C 
ATOM      5  C   UNL     1       1.915  -1.304  -0.682  0.00  0.00    -0.023 A 
ATOM      6  C   UNL     1       2.929  -1.994  -1.317  0.00  0.00    +0.006 A 
ATOM      7  C   UNL     1       3.900  -2.642  -0.576  0.00  0.00    +0.000 A 
ATOM      8  C   UNL     1       3.853  -2.597   0.806  0.00  0.00    +0.002 A 
ATOM      9  C   UNL     1       2.844  -1.909   1.444  0.00  0.00    +0.023 A 
ATOM     10  C   UNL     1       1.860  -1.252   0.702  0.00  0.00    +0.034 A 
ATOM     11  N   UNL     1       0.764  -0.508   1.148  0.00  0.00    -0.318 N 
BRANCH  11  12
ATOM     12  C   UNL     1       0.425  -0.267   2.553  0.00  0.00    +0.200 C 
BRANCH  12  13
ATOM     13  C   UNL     1      -0.486  -1.362   3.045  0.00  0.00    +0.228 C 
ATOM     14  O   UNL     1      -0.820  -2.255   2.296  0.00  0.00    -0.274 OA
ATOM     15  N   UNL     1      -0.930  -1.348   4.317  0.00  0.00    -0.328 N 
ATOM     16  H   UNL     1      -0.663  -0.633   4.916  0.00  0.00    +0.145 HD
ATOM     17  H   UNL     1      -1.517  -2.052   4.634  0.00  0.00    +0.145 HD
ENDBRANCH  12  13
ENDBRANCH  11  12
ENDBRANCH   1   4
BRANCH   1  18
ATOM     18  N   UNL     1       0.529  -1.815  -3.307  0.00  0.00    +0.380 N 
ATOM     19  H   UNL     1       0.752  -0.987  -3.839  0.00  0.00    -0.086 HD
ATOM     20  H   UNL     1       1.380  -2.307  -3.079  0.00  0.00    -0.086 HD
BRANCH  18  21
ATOM     21  C   UNL     1      -0.344  -2.688  -4.103  0.00  0.00    -0.075 C 
BRANCH  21  22
ATOM     22  C   UNL     1       0.375  -3.088  -5.393  0.00  0.00    +0.059 C 
BRANCH  22  23
ATOM     23  C   UNL     1      -0.520  -3.984  -6.209  0.00  0.00    +0.150 A 
ATOM     24  H   UNL     1      -1.789  -6.642  -7.232  0.00  0.00    +0.191 HD
ATOM     25  N   UNL     1      -1.390  -3.574  -7.126  0.00  0.00    -0.212 NA
ATOM     26  C   UNL     1      -2.009  -4.612  -7.650  0.00  0.00    +0.156 A 
ATOM     27  N   UNL     1      -1.525  -5.726  -7.055  0.00  0.00    -0.259 N 
ATOM     28  N   UNL     1      -0.560  -5.290  -6.132  0.00  0.00    -0.157 NA
BRANCH  26  29
ATOM     29  C   UNL     1      -3.049  -4.568  -8.703  0.00  0.00    +0.022 A 
ATOM     30  C   UNL     1      -3.467  -3.350  -9.249  0.00  0.00    +0.031 A 
ATOM     31  C   UNL     1      -4.439  -3.354 -10.228  0.00  0.00    +0.111 A 
ATOM     32  N   UNL     1      -4.972  -4.486 -10.648  0.00  0.00    -0.263 NA
ATOM     33  C   UNL     1      -4.607  -5.655 -10.160  0.00  0.00    +0.111 A 
ATOM     34  C   UNL     1      -3.637  -5.743  -9.182  0.00  0.00    +0.031 A 
ENDBRANCH  26  29
ENDBRANCH  22  23
ENDBRANCH  21  22
ENDBRANCH  18  21
ENDBRANCH   1  18
TORSDOF 8
