REMARK  Name = ZINC36747585
REMARK  5 active torsions:
REMARK  status: ('A' for Active; 'I' for Inactive)
REMARK    1  A    between atoms: C_1  and  C_2
REMARK    2  A    between atoms: C_5  and  C_14
REMARK    3  A    between atoms: N_16  and  C_17
REMARK    4  A    between atoms: C_17  and  C_18
REMARK    5  A    between atoms: C_18  and  C_19
REMARK                            x       y       z     vdW  Elec       q    Type
REMARK                         _______ _______ _______ _____ _____    ______ ____
ROOT
ATOM      1  C   UNL     1      -0.443   1.522  -0.328  0.00  0.00    +0.028 C 
ATOM      2  C   UNL     1      -0.205   0.018  -0.175  0.00  0.00    +0.068 C 
ATOM      3  C   UNL     1       0.520  -0.523  -1.414  0.00  0.00    +0.039 C 
ATOM      4  C   UNL     1       0.685  -2.035  -1.269  0.00  0.00    +0.108 C 
ATOM      5  C   UNL     1       1.304  -2.373   0.062  0.00  0.00    -0.015 A 
ATOM      6  C   UNL     1       1.925  -3.600   0.220  0.00  0.00    +0.006 A 
ATOM      7  C   UNL     1       2.500  -3.940   1.430  0.00  0.00    +0.000 A 
ATOM      8  C   UNL     1       2.458  -3.055   2.492  0.00  0.00    +0.002 A 
ATOM      9  C   UNL     1       1.841  -1.829   2.343  0.00  0.00    +0.023 A 
ATOM     10  C   UNL     1       1.264  -1.484   1.125  0.00  0.00    +0.031 A 
ATOM     11  N   UNL     1       0.651  -0.233   0.993  0.00  0.00    -0.341 N 
ATOM     12  H   UNL     1       0.790   0.457   1.660  0.00  0.00    +0.146 HD
ENDROOT
BRANCH   4  13
ATOM     13  C   UNL     1       1.575  -2.547  -2.372  0.00  0.00    +0.221 C 
ATOM     14  O   UNL     1       2.506  -1.875  -2.761  0.00  0.00    -0.275 OA
ATOM     15  N   UNL     1       1.337  -3.753  -2.925  0.00  0.00    -0.314 N 
ATOM     16  H   UNL     1       0.551  -4.259  -2.665  0.00  0.00    +0.149 HD
BRANCH  15  17
ATOM     17  C   UNL     1       2.266  -4.300  -3.917  0.00  0.00    +0.113 C 
BRANCH  17  18
ATOM     18  C   UNL     1       1.767  -5.670  -4.382  0.00  0.00    +0.114 C 
BRANCH  18  19
ATOM     19  C   UNL     1       2.722  -6.232  -5.403  0.00  0.00    +0.212 C 
ATOM     20  O   UNL     1       3.705  -5.600  -5.727  0.00  0.00    -0.276 OA
ATOM     21  N   UNL     1       2.484  -7.438  -5.956  0.00  0.00    -0.329 N 
ATOM     22  H   UNL     1       1.698  -7.944  -5.697  0.00  0.00    +0.145 HD
ATOM     23  H   UNL     1       3.099  -7.800  -6.614  0.00  0.00    +0.145 HD
ENDBRANCH  18  19
ENDBRANCH  17  18
ENDBRANCH  15  17
ENDBRANCH   4  13
TORSDOF 4
