REMARK  Name = ZINC59135608
REMARK  10 active torsions:
REMARK  status: ('A' for Active; 'I' for Inactive)
REMARK    1  A    between atoms: C_1  and  C_2
REMARK    2  A    between atoms: C_2  and  O_3
REMARK    3  A    between atoms: O_3  and  C_4
REMARK    4  A    between atoms: C_6  and  C_22
REMARK    5  A    between atoms: C_8  and  C_19
REMARK    6  A    between atoms: C_9  and  O_10
REMARK    7  A    between atoms: O_10  and  C_11
REMARK    8  A    between atoms: C_11  and  C_12
REMARK    9  A    between atoms: C_19  and  C_20
REMARK   10  A    between atoms: N_29  and  C_32
REMARK                            x       y       z     vdW  Elec       q    Type
REMARK                         _______ _______ _______ _____ _____    ______ ____
ROOT
ATOM      1  C   UNL     1       1.089  -2.397  -1.060  0.00  0.00    +0.163 A 
ATOM      2  C   UNL     1       0.520  -3.281  -0.167  0.00  0.00    +0.057 A 
ATOM      3  C   UNL     1       0.069  -4.532  -0.619  0.00  0.00    -0.020 A 
ATOM      4  C   UNL     1       0.201  -4.872  -1.974  0.00  0.00    +0.015 A 
ATOM      5  C   UNL     1       0.766  -3.989  -2.849  0.00  0.00    +0.002 A 
ATOM      6  C   UNL     1       1.208  -2.748  -2.407  0.00  0.00    +0.166 A 
ENDROOT
BRANCH   3   7
ATOM      7  C   UNL     1      -0.536  -5.476   0.319  0.00  0.00    +0.026 C 
ATOM      8  C   UNL     1      -0.160  -6.809   0.297  0.00  0.00    +0.102 C 
ATOM      9  C   UNL     1       1.000  -7.270  -0.482  0.00  0.00    +0.276 C 
ATOM     10  O   UNL     1       1.736  -6.399  -1.203  0.00  0.00    -0.268 OA
ATOM     11  N   UNL     1       1.304  -8.556  -0.459  0.00  0.00    -0.123 NA
ATOM     12  C   UNL     1       0.596  -9.437   0.243  0.00  0.00    +0.340 C 
ATOM     13  O   UNL     1       0.939 -10.606   0.213  0.00  0.00    -0.250 OA
ATOM     14  N   UNL     1      -0.474  -9.110   0.982  0.00  0.00    -0.188 N 
ATOM     15  C   UNL     1      -0.902  -7.832   1.061  0.00  0.00    +0.264 C 
ATOM     16  O   UNL     1      -1.871  -7.534   1.735  0.00  0.00    -0.269 OA
BRANCH  14  17
ATOM     17  C   UNL     1      -1.156 -10.111   1.688  0.00  0.00    +0.046 A 
ATOM     18  C   UNL     1      -2.438 -10.482   1.305  0.00  0.00    +0.027 A 
ATOM     19  C   UNL     1      -3.108 -11.468   2.002  0.00  0.00    +0.040 A 
ATOM     20  C   UNL     1      -2.502 -12.087   3.083  0.00  0.00    +0.124 A 
ATOM     21  C   UNL     1      -1.224 -11.718   3.467  0.00  0.00    +0.040 A 
ATOM     22  C   UNL     1      -0.548 -10.736   2.769  0.00  0.00    +0.027 A 
ATOM     23  F   UNL     1      -3.159 -13.050   3.764  0.00  0.00    -0.205 F 
ENDBRANCH  14  17
ENDBRANCH   3   7
BRANCH   1  24
ATOM     24  O   UNL     1       1.528  -1.184  -0.631  0.00  0.00    -0.489 OA
BRANCH  24  26
ATOM     25  C   UNL     1       1.922   0.506   1.052  0.00  0.00    +0.048 C 
ATOM     26  C   UNL     1       1.375  -0.893   0.759  0.00  0.00    +0.226 C 
ENDBRANCH  24  26
ENDBRANCH   1  24
BRANCH   6  27
ATOM     27  O   UNL     1       1.763  -1.875  -3.285  0.00  0.00    -0.483 OA
BRANCH  27  28
ATOM     28  C   UNL     1       0.901  -0.885  -3.849  0.00  0.00    +0.264 C 
BRANCH  28  29
ATOM     29  C   UNL     1       1.710   0.060  -4.700  0.00  0.00    -0.010 A 
ATOM     30  C   UNL     1       2.268   1.192  -4.136  0.00  0.00    +0.010 A 
ATOM     31  C   UNL     1       3.010   2.059  -4.915  0.00  0.00    +0.039 A 
ATOM     32  C   UNL     1       3.195   1.794  -6.261  0.00  0.00    +0.123 A 
ATOM     33  C   UNL     1       2.635   0.660  -6.825  0.00  0.00    +0.039 A 
ATOM     34  C   UNL     1       1.898  -0.209  -6.043  0.00  0.00    +0.010 A 
ATOM     35  F   UNL     1       3.920   2.641  -7.024  0.00  0.00    -0.205 F 
ENDBRANCH  28  29
ENDBRANCH  27  28
ENDBRANCH   6  27
BRANCH   5  36
ATOM     36  C   UNL     1       0.906  -4.360  -4.303  0.00  0.00    +0.065 C 
BRANCH  36  37
ATOM     37  C   UNL     1       2.281  -4.925  -4.548  0.00  0.00    -0.030 C 
ATOM     38  C   UNL     1       2.417  -6.138  -5.024  0.00  0.00    +0.004 C 
ENDBRANCH  36  37
ENDBRANCH   5  36
TORSDOF 9
