REMARK  Name = ZINC19168626
REMARK  2 active torsions:
REMARK  status: ('A' for Active; 'I' for Inactive)
REMARK    1  A    between atoms: C_1  and  N_2
REMARK    2  A    between atoms: N_10  and  C_11
REMARK                            x       y       z     vdW  Elec       q    Type
REMARK                         _______ _______ _______ _____ _____    ______ ____
ROOT
ATOM      1  C   UNL     1       3.605   4.723  -0.883  0.00  0.00    +0.125 C 
ATOM      2  N   UNL     1       3.205   3.369  -0.476  0.00  0.00    -0.227 NA
ATOM      3  C   UNL     1       1.735   3.241  -0.438  0.00  0.00    +0.204 C 
ATOM      4  N   UNL     1       1.421   1.882  -0.001  0.00  0.00    -0.224 NA
ATOM      5  C   UNL     1      -0.019   1.550   0.011  0.00  0.00    +0.105 C 
ATOM      6  C   UNL     1       0.002  -0.004   0.002  0.00  0.00    +0.034 C 
ATOM      7  C   UNL     1       1.373  -0.362  -0.629  0.00  0.00    +0.105 C 
ATOM      8  N   UNL     1       1.964   0.934  -0.991  0.00  0.00    -0.224 NA
ATOM      9  C   UNL     1       3.423   0.996  -0.951  0.00  0.00    +0.204 C 
ATOM     10  N   UNL     1       3.823   2.366  -1.325  0.00  0.00    -0.227 NA
ATOM     11  C   UNL     1       5.285   2.506  -1.326  0.00  0.00    +0.125 C 
ENDROOT
TORSDOF 0
