REMARK  Name = ZINC36297433
REMARK  6 active torsions:
REMARK  status: ('A' for Active; 'I' for Inactive)
REMARK    1  A    between atoms: C_1  and  C_2
REMARK    2  A    between atoms: C_3  and  N_19
REMARK    3  A    between atoms: C_7  and  S_8
REMARK    4  A    between atoms: S_8  and  N_11
REMARK    5  A    between atoms: N_11  and  C_12
REMARK    6  A    between atoms: C_17  and  N_18
REMARK                            x       y       z     vdW  Elec       q    Type
REMARK                         _______ _______ _______ _____ _____    ______ ____
ROOT
ATOM      1  S   UNL     1      -0.151   0.219   2.906  0.00  0.00    +0.073 S 
ATOM      2  O   UNL     1      -1.218   1.149   3.025  0.00  0.00    -0.150 OA
ATOM      3  O   UNL     1       0.079  -0.803   3.866  0.00  0.00    -0.150 OA
ENDROOT
BRANCH   1  10
ATOM      4  C   UNL     1       1.772  -1.831   1.787  0.00  0.00    +0.048 C 
ATOM      5  C   UNL     1       0.579  -1.511   0.924  0.00  0.00    +0.006 A 
ATOM      6  C   UNL     1       0.415  -2.147  -0.292  0.00  0.00    +0.131 A 
ATOM      7  C   UNL     1      -0.679  -1.854  -1.083  0.00  0.00    +0.033 A 
ATOM      8  C   UNL     1      -1.611  -0.925  -0.658  0.00  0.00    +0.004 A 
ATOM      9  C   UNL     1      -1.448  -0.290   0.558  0.00  0.00    +0.029 A 
ATOM     10  C   UNL     1      -0.355  -0.587   1.352  0.00  0.00    +0.114 A 
BRANCH   6  11
ATOM     11  N   UNL     1       1.413  -3.142  -0.747  0.00  0.00    +0.057 N 
ATOM     12  O   UNL     1       1.337  -3.608  -1.861  0.00  0.00    -0.126 OA
ATOM     13  O   UNL     1       2.303  -3.488  -0.006  0.00  0.00    -0.126 OA
ENDBRANCH   6  11
ENDBRANCH   1  10
BRANCH   1  14
ATOM     14  N   UNL     1       1.244   1.107   2.817  0.00  0.00    -0.214 N 
ATOM     15  H   UNL     1       1.973   0.928   3.432  0.00  0.00    +0.174 HD
BRANCH  14  16
ATOM     16  C   UNL     1       1.371   2.116   1.855  0.00  0.00    +0.069 A 
ATOM     17  C   UNL     1       0.256   2.831   1.445  0.00  0.00    +0.026 A 
ATOM     18  C   UNL     1       0.384   3.827   0.495  0.00  0.00    +0.002 A 
ATOM     19  C   UNL     1       1.622   4.115  -0.049  0.00  0.00    +0.002 A 
ATOM     20  C   UNL     1       2.740   3.407   0.354  0.00  0.00    +0.024 A 
ATOM     21  C   UNL     1       2.621   2.409   1.310  0.00  0.00    +0.047 A 
BRANCH  21  22
ATOM     22  N   UNL     1       3.752   1.695   1.723  0.00  0.00    -0.357 N 
ATOM     23  H   UNL     1       3.667   0.995   2.389  0.00  0.00    +0.142 HD
ATOM     24  H   UNL     1       4.621   1.900   1.343  0.00  0.00    +0.142 HD
ENDBRANCH  21  22
ENDBRANCH  14  16
ENDBRANCH   1  14
TORSDOF 5
