REMARK  Name = ZINC58443211
REMARK  4 active torsions:
REMARK  status: ('A' for Active; 'I' for Inactive)
REMARK    1  A    between atoms: C_1  and  N_2
REMARK    2  A    between atoms: C_8  and  S_9
REMARK    3  A    between atoms: S_9  and  C_10
REMARK    4  A    between atoms: C_17  and  O_19
REMARK                            x       y       z     vdW  Elec       q    Type
REMARK                         _______ _______ _______ _____ _____    ______ ____
ROOT
ATOM      1  S   UNL     1       0.033  -0.266   2.788  0.00  0.00    -0.078 S 
ENDROOT
BRANCH   1   9
ATOM      2  C   UNL     1      -0.018   1.461   0.010  0.00  0.00    +0.156 C 
ATOM      3  N   UNL     1       0.002  -0.004   0.002  0.00  0.00    -0.274 N 
ATOM      4  C   UNL     1       0.008  -0.787  -1.095  0.00  0.00    +0.345 A 
ATOM      5  O   UNL     1      -0.001  -0.405  -2.252  0.00  0.00    -0.245 OA
ATOM      6  N   UNL     1       0.027  -2.070  -0.680  0.00  0.00    -0.226 N 
ATOM      7  H   UNL     1       0.036  -2.857  -1.246  0.00  0.00    +0.194 HD
ATOM      8  N   UNL     1       0.033  -2.057   0.722  0.00  0.00    -0.145 NA
ATOM      9  C   UNL     1       0.024  -0.816   1.114  0.00  0.00    +0.192 A 
ENDBRANCH   1   9
BRANCH   1  10
ATOM     10  C   UNL     1       0.062  -1.801   3.753  0.00  0.00    +0.105 C 
ATOM     11  C   UNL     1       1.403  -2.545   3.496  0.00  0.00    +0.183 C 
ATOM     12  S   UNL     1       1.445  -3.629   4.991  0.00  0.00    -0.027 S 
ATOM     13  O   UNL     1       0.620  -4.764   4.768  0.00  0.00    -0.174 OA
ATOM     14  O   UNL     1       2.794  -3.809   5.399  0.00  0.00    -0.174 OA
ATOM     15  C   UNL     1       0.603  -2.489   6.166  0.00  0.00    +0.198 C 
ATOM     16  C   UNL     1      -0.080  -1.467   5.238  0.00  0.00    +0.150 C 
BRANCH  16  17
ATOM     17  O   UNL     1       0.491  -0.179   5.474  0.00  0.00    -0.389 OA
ATOM     18  H   UNL     1       0.441   0.110   6.396  0.00  0.00    +0.210 HD
ENDBRANCH  16  17
ENDBRANCH   1  10
TORSDOF 3
