REMARK  Name = ZINC50170512
REMARK  10 active torsions:
REMARK  status: ('A' for Active; 'I' for Inactive)
REMARK    1  A    between atoms: C_1  and  C_2
REMARK    2  A    between atoms: C_2  and  C_3
REMARK    3  A    between atoms: C_2  and  C_4
REMARK    4  A    between atoms: C_6  and  C_9
REMARK    5  A    between atoms: C_9  and  C_10
REMARK    6  A    between atoms: C_10  and  C_11
REMARK    7  A    between atoms: C_11  and  C_12
REMARK    8  A    between atoms: N_14  and  N_15
REMARK    9  A    between atoms: C_16  and  C_18
REMARK   10  A    between atoms: C_27  and  O_28
REMARK                            x       y       z     vdW  Elec       q    Type
REMARK                         _______ _______ _______ _____ _____    ______ ____
ROOT
ATOM      1  N   UNL     1       1.636  -8.408   5.593  0.00  0.00    -0.230 N 
ATOM      2  C   UNL     1       1.529  -9.354   6.547  0.00  0.00    +0.264 C 
ATOM      3  O   UNL     1       1.145  -9.053   7.661  0.00  0.00    -0.269 OA
ATOM      4  H   UNL     1       1.942  -8.648   4.704  0.00  0.00    +0.173 HD
ENDROOT
BRANCH   2   5
ATOM      5  C   UNL     1       1.878 -10.755   6.240  0.00  0.00    +0.080 A 
ATOM      6  C   UNL     1       2.320 -11.092   4.971  0.00  0.00    +0.025 A 
ATOM      7  C   UNL     1       2.651 -12.424   4.686  0.00  0.00    -0.017 A 
ATOM      8  C   UNL     1       3.103 -12.802   3.408  0.00  0.00    +0.008 A 
ATOM      9  C   UNL     1       3.417 -14.102   3.162  0.00  0.00    +0.001 A 
ATOM     10  C   UNL     1       3.295 -15.071   4.157  0.00  0.00    +0.001 A 
ATOM     11  C   UNL     1       2.861 -14.743   5.405  0.00  0.00    +0.008 A 
ATOM     12  C   UNL     1       2.528 -13.410   5.699  0.00  0.00    -0.014 A 
ATOM     13  C   UNL     1       2.077 -13.042   6.978  0.00  0.00    +0.054 A 
ATOM     14  C   UNL     1       1.765 -11.741   7.243  0.00  0.00    +0.130 A 
BRANCH  14  15
ATOM     15  O   UNL     1       1.335 -11.393   8.482  0.00  0.00    -0.506 OA
ATOM     16  H   UNL     1       0.376 -11.446   8.595  0.00  0.00    +0.292 HD
ENDBRANCH  14  15
ENDBRANCH   2   5
BRANCH   1  19
ATOM     17  C   UNL     1       1.411  -6.133   4.930  0.00  0.00    +0.229 C 
ATOM     18  O   UNL     1       1.794  -6.433   3.819  0.00  0.00    -0.274 OA
ATOM     19  N   UNL     1       1.304  -7.079   5.884  0.00  0.00    -0.234 N 
ATOM     20  H   UNL     1       0.998  -6.839   6.773  0.00  0.00    +0.173 HD
BRANCH  17  21
ATOM     21  C   UNL     1       1.055  -4.703   5.243  0.00  0.00    +0.098 C 
BRANCH  21  22
ATOM     22  C   UNL     1       1.263  -3.840   3.997  0.00  0.00    +0.019 C 
BRANCH  22  23
ATOM     23  C   UNL     1       0.901  -2.388   4.315  0.00  0.00    +0.099 C 
BRANCH  23  26
ATOM     24  C   UNL     1       0.731  -0.503   1.223  0.00  0.00    +0.174 A 
ATOM     25  N   UNL     1       0.212  -1.292   2.170  0.00  0.00    -0.196 NA
ATOM     26  C   UNL     1       1.106  -1.539   3.087  0.00  0.00    +0.227 A 
ATOM     27  O   UNL     1       2.237  -0.907   2.750  0.00  0.00    -0.338 OA
ATOM     28  N   UNL     1       1.970  -0.241   1.525  0.00  0.00    -0.061 NA
BRANCH  24  30
ATOM     29  C   UNL     1      -0.019   1.526   0.010  0.00  0.00    +0.015 C 
ATOM     30  C   UNL     1       0.002  -0.004   0.002  0.00  0.00    +0.054 C 
ATOM     31  C   UNL     1       0.718  -0.497  -1.257  0.00  0.00    +0.015 C 
ENDBRANCH  24  30
ENDBRANCH  23  26
ENDBRANCH  22  23
ENDBRANCH  21  22
ENDBRANCH  17  21
ENDBRANCH   1  19
TORSDOF 8
