REMARK  Name = ZINC14459646
REMARK  6 active torsions:
REMARK  status: ('A' for Active; 'I' for Inactive)
REMARK    1  A    between atoms: C_1  and  O_2
REMARK    2  A    between atoms: O_2  and  C_3
REMARK    3  A    between atoms: C_7  and  C_10
REMARK    4  A    between atoms: C_8  and  O_9
REMARK    5  A    between atoms: C_20  and  N_27
REMARK    6  A    between atoms: C_23  and  O_26
REMARK                            x       y       z     vdW  Elec       q    Type
REMARK                         _______ _______ _______ _____ _____    ______ ____
ROOT
ATOM      1  C   UNL     1      -0.086   1.092  -0.035  0.00  0.00    +0.109 C 
ATOM      2  C   UNL     1       1.409   0.892   0.224  0.00  0.00    +0.029 C 
ATOM      3  C   UNL     1       1.559  -0.003   1.486  0.00  0.00    +0.033 C 
ATOM      4  C   UNL     1       1.412   0.975   2.635  0.00  0.00    -0.030 C 
ATOM      5  C   UNL     1       1.663   2.196   2.234  0.00  0.00    -0.023 C 
ATOM      6  C   UNL     1       2.006   2.210   0.762  0.00  0.00    +0.051 C 
ATOM      7  C   UNL     1       1.398   3.405   0.089  0.00  0.00    +0.014 A 
ATOM      8  C   UNL     1       1.948   4.654   0.358  0.00  0.00    +0.132 A 
ATOM      9  C   UNL     1       1.432   5.792  -0.225  0.00  0.00    +0.037 A 
ATOM     10  C   UNL     1       0.357   5.701  -1.091  0.00  0.00    +0.049 A 
ATOM     11  C   UNL     1      -0.197   4.465  -1.368  0.00  0.00    +0.138 A 
ATOM     12  C   UNL     1       0.325   3.310  -0.777  0.00  0.00    +0.076 A 
ATOM     13  N   UNL     1      -0.268   2.085  -1.094  0.00  0.00    -0.333 N 
ATOM     14  H   UNL     1      -0.822   1.820  -2.007  0.00  0.00    +0.147 HD
ENDROOT
BRANCH   1  19
ATOM     15  C   UNL     1      -1.930   1.112   3.271  0.00  0.00    +0.162 A 
ATOM     16  C   UNL     1      -1.980   2.470   3.545  0.00  0.00    +0.049 A 
ATOM     17  C   UNL     1      -1.418   3.374   2.664  0.00  0.00    +0.004 A 
ATOM     18  C   UNL     1      -0.806   2.928   1.507  0.00  0.00    +0.009 A 
ATOM     19  C   UNL     1      -0.753   1.575   1.227  0.00  0.00    +0.018 A 
ATOM     20  C   UNL     1      -1.319   0.663   2.104  0.00  0.00    +0.163 A 
BRANCH  15  22
ATOM     21  C   UNL     1      -3.099   0.754   5.311  0.00  0.00    +0.277 C 
ATOM     22  O   UNL     1      -2.483   0.221   4.137  0.00  0.00    -0.491 OA
ENDBRANCH  15  22
BRANCH  20  23
ATOM     23  O   UNL     1      -1.273  -0.667   1.827  0.00  0.00    -0.503 OA
ATOM     24  H   UNL     1      -0.790  -1.021   0.905  0.00  0.00    +0.292 HD
ENDBRANCH  20  23
ENDBRANCH   1  19
BRANCH   8  25
ATOM     25  N   UNL     1       3.098   4.763   1.283  0.00  0.00    +0.057 N 
ATOM     26  O   UNL     1       3.584   5.853   1.524  0.00  0.00    -0.126 OA
ATOM     27  O   UNL     1       3.558   3.762   1.803  0.00  0.00    -0.126 OA
ENDBRANCH   8  25
BRANCH  11  28
ATOM     28  O   UNL     1      -1.255   4.372  -2.218  0.00  0.00    -0.505 OA
ATOM     29  H   UNL     1      -1.697   3.389  -2.440  0.00  0.00    +0.292 HD
ENDBRANCH  11  28
TORSDOF 5
