REMARK  Name = ZINC16249599
REMARK  7 active torsions:
REMARK  status: ('A' for Active; 'I' for Inactive)
REMARK    1  A    between atoms: C_1  and  C_2
REMARK    2  A    between atoms: C_3  and  C_25
REMARK    3  A    between atoms: C_4  and  N_24
REMARK    4  A    between atoms: C_6  and  C_7
REMARK    5  A    between atoms: N_9  and  N_10
REMARK    6  A    between atoms: C_11  and  C_12
REMARK    7  A    between atoms: C_17  and  N_18
REMARK                            x       y       z     vdW  Elec       q    Type
REMARK                         _______ _______ _______ _____ _____    ______ ____
ROOT
ATOM      1  C   UNL     1       2.218   4.819  -1.587  0.00  0.00    +0.270 C 
ATOM      2  O   UNL     1       3.278   4.320  -1.253  0.00  0.00    -0.268 OA
ATOM      3  N   UNL     1       1.930   6.088  -1.236  0.00  0.00    -0.203 N 
ATOM      4  H   UNL     1       1.057   6.461  -1.439  0.00  0.00    +0.178 HD
ENDROOT
BRANCH   1  10
ATOM      5  C   UNL     1       2.677   2.002  -2.708  0.00  0.00    +0.046 C 
ATOM      6  C   UNL     1       1.402   2.784  -2.895  0.00  0.00    -0.012 A 
ATOM      7  C   UNL     1       0.335   2.257  -3.605  0.00  0.00    +0.083 A 
ATOM      8  C   UNL     1      -0.812   3.048  -3.739  0.00  0.00    +0.081 A 
ATOM      9  S   UNL     1      -0.392   4.490  -2.874  0.00  0.00    -0.068 S 
ATOM     10  C   UNL     1       1.258   4.040  -2.369  0.00  0.00    +0.081 A 
BRANCH   8  11
ATOM     11  N   UNL     1      -1.986   2.752  -4.394  0.00  0.00    -0.352 N 
ATOM     12  H   UNL     1      -2.090   1.897  -4.841  0.00  0.00    +0.143 HD
ATOM     13  H   UNL     1      -2.710   3.398  -4.409  0.00  0.00    +0.143 HD
ENDBRANCH   8  11
BRANCH   7  14
ATOM     14  C   UNL     1       0.406   0.951  -4.188  0.00  0.00    +0.102 C 
ATOM     15  N   UNL     1       0.462  -0.085  -4.649  0.00  0.00    -0.191 NA
ENDBRANCH   7  14
ENDBRANCH   1  10
BRANCH   3  16
ATOM     16  N   UNL     1       2.890   6.868  -0.579  0.00  0.00    -0.187 NA
ATOM     17  C   UNL     1       2.577   8.050  -0.142  0.00  0.00    +0.140 C 
BRANCH  17  18
ATOM     18  C   UNL     1       1.171   8.491  -0.151  0.00  0.00    +0.028 A 
ATOM     19  C   UNL     1       0.141   7.552  -0.041  0.00  0.00    +0.061 A 
ATOM     20  C   UNL     1      -1.176   7.970  -0.049  0.00  0.00    +0.167 A 
ATOM     21  C   UNL     1      -1.476   9.327  -0.167  0.00  0.00    +0.168 A 
ATOM     22  C   UNL     1      -0.454  10.258  -0.276  0.00  0.00    +0.083 A 
ATOM     23  C   UNL     1       0.863   9.849  -0.264  0.00  0.00    +0.138 A 
ATOM     24  O   UNL     1      -2.833   9.475  -0.150  0.00  0.00    -0.453 OA
ATOM     25  C   UNL     1      -3.367   8.169  -0.433  0.00  0.00    +0.466 C 
ATOM     26  O   UNL     1      -2.345   7.271   0.041  0.00  0.00    -0.453 OA
BRANCH  23  27
ATOM     27  N   UNL     1       1.950  10.848  -0.374  0.00  0.00    +0.057 N 
ATOM     28  O   UNL     1       1.688  12.037  -0.361  0.00  0.00    -0.126 OA
ATOM     29  O   UNL     1       3.107  10.480  -0.478  0.00  0.00    -0.126 OA
ENDBRANCH  23  27
ENDBRANCH  17  18
ENDBRANCH   3  16
TORSDOF 6
