REMARK  Name = ZINC05195778
REMARK  6 active torsions:
REMARK  status: ('A' for Active; 'I' for Inactive)
REMARK    1  A    between atoms: C_1  and  C_2
REMARK    2  A    between atoms: C_5  and  N_12
REMARK    3  A    between atoms: C_8  and  C_10
REMARK    4  A    between atoms: C_8  and  C_11
REMARK    5  A    between atoms: N_15  and  C_16
REMARK    6  A    between atoms: N_21  and  C_23
REMARK                            x       y       z     vdW  Elec       q    Type
REMARK                         _______ _______ _______ _____ _____    ______ ____
ROOT
ATOM      1  N   UNL     1       0.150  -0.290  -4.192  0.00  0.00    -0.297 N 
ATOM      2  C   UNL     1       0.171   0.611  -3.190  0.00  0.00    +0.300 C 
ATOM      3  O   UNL     1       1.096   1.395  -3.096  0.00  0.00    -0.253 OA
ATOM      4  N   UNL     1      -0.833   0.643  -2.292  0.00  0.00    -0.295 N 
ATOM      5  H   UNL     1      -0.588  -0.915  -4.267  0.00  0.00    +0.151 HD
ATOM      6  H   UNL     1      -1.571   0.018  -2.367  0.00  0.00    +0.151 HD
ENDROOT
BRANCH   1  10
ATOM      7  C   UNL     1       1.835   1.678  -8.403  0.00  0.00    +0.007 C 
ATOM      8  C   UNL     1       2.108   0.658  -7.296  0.00  0.00    -0.012 C 
ATOM      9  C   UNL     1       0.968   0.695  -6.276  0.00  0.00    +0.025 C 
ATOM     10  C   UNL     1       1.242  -0.325  -5.168  0.00  0.00    +0.075 C 
ATOM     11  C   UNL     1       1.337  -1.725  -5.777  0.00  0.00    +0.028 C 
ATOM     12  C   UNL     1       2.477  -1.762  -6.796  0.00  0.00    -0.033 C 
ATOM     13  C   UNL     1       2.204  -0.742  -7.904  0.00  0.00    +0.009 C 
ATOM     14  C   UNL     1       3.796  -1.417  -6.100  0.00  0.00    +0.011 C 
ATOM     15  C   UNL     1       2.573  -3.163  -7.405  0.00  0.00    +0.011 C 
ENDBRANCH   1  10
BRANCH   4  16
ATOM     16  C   UNL     1      -0.811   1.623  -1.203  0.00  0.00    +0.101 C 
ATOM     17  C   UNL     1      -0.013   1.086   0.008  0.00  0.00    +0.120 C 
ATOM     18  C   UNL     1      -0.771   1.598   1.213  0.00  0.00    +0.222 C 
ATOM     19  O   UNL     1      -0.332   1.641   2.343  0.00  0.00    -0.275 OA
ATOM     20  N   UNL     1      -2.003   2.000   0.844  0.00  0.00    -0.270 N 
ATOM     21  C   UNL     1      -2.219   1.807  -0.595  0.00  0.00    +0.136 C 
BRANCH  20  22
ATOM     22  C   UNL     1      -2.954   2.534   1.720  0.00  0.00    +0.036 A 
ATOM     23  C   UNL     1      -4.197   2.926   1.243  0.00  0.00    +0.025 A 
ATOM     24  C   UNL     1      -5.136   3.448   2.111  0.00  0.00    +0.022 A 
ATOM     25  C   UNL     1      -4.835   3.590   3.454  0.00  0.00    +0.041 A 
ATOM     26  C   UNL     1      -3.594   3.205   3.932  0.00  0.00    +0.022 A 
ATOM     27  C   UNL     1      -2.654   2.678   3.069  0.00  0.00    +0.025 A 
ATOM     28 CL   UNL     1      -6.015   4.252   4.542  0.00  0.00    -0.084 Cl
ENDBRANCH  20  22
ENDBRANCH   4  16
TORSDOF 3
