REMARK  Name = ZINC12507762
REMARK  4 active torsions:
REMARK  status: ('A' for Active; 'I' for Inactive)
REMARK    1  A    between atoms: C_1  and  C_2
REMARK    2  A    between atoms: C_4  and  C_10
REMARK    3  A    between atoms: C_6  and  C_9
REMARK    4  A    between atoms: C_7  and  O_8
REMARK                            x       y       z     vdW  Elec       q    Type
REMARK                         _______ _______ _______ _____ _____    ______ ____
ROOT
ATOM      1  C   UNL     1       0.028  -2.816  -2.516  0.00  0.00    +0.209 C 
ATOM      2  N   UNL     1      -0.820  -4.018  -2.416  0.00  0.00    -0.294 N 
ATOM      3  C   UNL     1      -0.317  -5.164  -1.861  0.00  0.00    +0.160 C 
ATOM      4  N   UNL     1      -1.165  -6.023  -1.215  0.00  0.00    -0.332 N 
ATOM      5  N   UNL     1       0.969  -5.458  -1.933  0.00  0.00    -0.302 N 
ATOM      6  C   UNL     1       1.802  -4.566  -2.521  0.00  0.00    +0.213 A 
ATOM      7  N   UNL     1       1.384  -3.282  -2.826  0.00  0.00    -0.286 N 
ATOM      8  C   UNL     1       2.437  -2.625  -3.419  0.00  0.00    +0.076 A 
ATOM      9  C   UNL     1       2.614  -1.351  -3.942  0.00  0.00    +0.077 A 
ATOM     10  C   UNL     1       3.835  -0.991  -4.480  0.00  0.00    +0.164 A 
ATOM     11  C   UNL     1       4.891  -1.898  -4.503  0.00  0.00    +0.164 A 
ATOM     12  C   UNL     1       4.732  -3.168  -3.990  0.00  0.00    +0.079 A 
ATOM     13  C   UNL     1       3.502  -3.545  -3.441  0.00  0.00    +0.095 A 
ATOM     14  N   UNL     1       3.054  -4.704  -2.870  0.00  0.00    -0.212 NA
ATOM     15  O   UNL     1       6.090  -1.523  -5.039  0.00  0.00    -0.488 OA
ATOM     16  C   UNL     1       6.104  -1.308  -6.451  0.00  0.00    +0.232 C 
ATOM     17  C   UNL     1       5.642   0.101  -6.788  0.00  0.00    +0.082 C 
ATOM     18  C   UNL     1       4.189   0.339  -6.409  0.00  0.00    +0.232 C 
ATOM     19  O   UNL     1       4.014   0.262  -4.993  0.00  0.00    -0.488 OA
ATOM     20  H   UNL     1      -2.111  -5.817  -1.155  0.00  0.00    +0.145 HD
ATOM     21  H   UNL     1       1.309  -6.293  -1.575  0.00  0.00    +0.171 HD
ATOM     22  H   UNL     1      -0.820  -6.837  -0.817  0.00  0.00    +0.145 HD
ATOM     23  H   UNL     1      -1.733  -3.996  -2.744  0.00  0.00    +0.151 HD
ENDROOT
BRANCH   1  27
ATOM     24  C   UNL     1      -0.018   1.503   0.010  0.00  0.00    +0.047 C 
ATOM     25  C   UNL     1       0.002  -0.004   0.002  0.00  0.00    -0.008 A 
ATOM     26  C   UNL     1       0.006  -0.689  -1.198  0.00  0.00    +0.014 A 
ATOM     27  C   UNL     1       0.024  -2.071  -1.206  0.00  0.00    -0.006 A 
ATOM     28  C   UNL     1       0.040  -2.772  -0.014  0.00  0.00    +0.014 A 
ATOM     29  C   UNL     1       0.036  -2.092   1.188  0.00  0.00    -0.008 A 
ATOM     30  C   UNL     1       0.023  -0.705   1.199  0.00  0.00    +0.123 A 
ATOM     31  C   UNL     1       0.052  -2.856   2.487  0.00  0.00    +0.047 C 
BRANCH  30  32
ATOM     32  O   UNL     1       0.025  -0.033   2.381  0.00  0.00    -0.506 OA
ATOM     33  H   UNL     1      -0.857   0.149   2.731  0.00  0.00    +0.292 HD
ENDBRANCH  30  32
ENDBRANCH   1  27
TORSDOF 2
