REMARK  Name = ZINC48895942
REMARK  5 active torsions:
REMARK  status: ('A' for Active; 'I' for Inactive)
REMARK    1  A    between atoms: C_1  and  C_2
REMARK    2  A    between atoms: C_2  and  C_4
REMARK    3  A    between atoms: C_2  and  N_16
REMARK    4  A    between atoms: N_6  and  C_7
REMARK    5  A    between atoms: C_10  and  N_14
REMARK                            x       y       z     vdW  Elec       q    Type
REMARK                         _______ _______ _______ _____ _____    ______ ____
ROOT
ATOM      1  C   UNL     1      -1.796   0.756   0.211  0.00  0.00    +0.203 C 
ATOM      2  O   UNL     1      -2.538   1.226  -0.625  0.00  0.00    -0.277 OA
ATOM      3  N   UNL     1      -2.236  -0.217   1.033  0.00  0.00    -0.284 N 
ATOM      4  H   UNL     1      -1.623  -0.643   1.652  0.00  0.00    +0.155 HD
ENDROOT
BRANCH   3   5
ATOM      5  C   UNL     1      -3.581  -0.614   0.993  0.00  0.00    +0.070 A 
ATOM      6  C   UNL     1      -3.974  -1.651   0.157  0.00  0.00    +0.065 A 
ATOM      7  C   UNL     1      -5.299  -2.041   0.117  0.00  0.00    +0.044 A 
ATOM      8  C   UNL     1      -6.237  -1.397   0.913  0.00  0.00    +0.027 A 
ATOM      9  C   UNL     1      -5.844  -0.360   1.749  0.00  0.00    +0.044 A 
ATOM     10  C   UNL     1      -4.518   0.027   1.793  0.00  0.00    +0.065 A 
ATOM     11 CL   UNL     1      -4.026   1.318   2.844  0.00  0.00    -0.082 Cl
ATOM     12 CL   UNL     1      -2.802  -2.456  -0.839  0.00  0.00    -0.082 Cl
BRANCH   8  13
ATOM     13  N   UNL     1      -7.579  -1.793   0.873  0.00  0.00    -0.358 N 
ATOM     14  H   UNL     1      -7.853  -2.517   0.289  0.00  0.00    +0.142 HD
ATOM     15  H   UNL     1      -8.234  -1.343   1.429  0.00  0.00    +0.142 HD
ENDBRANCH   8  13
ENDBRANCH   3   5
BRANCH   1  17
ATOM     16  C   UNL     1      -0.162   1.835   1.734  0.00  0.00    -0.004 C 
ATOM     17  C   UNL     1      -0.381   1.262   0.332  0.00  0.00    +0.016 C 
BRANCH  17  18
ATOM     18  N   UNL     1      -0.150   2.313  -0.668  0.00  0.00    +0.388 N 
ATOM     19  C   UNL     1       1.242   2.756  -0.620  0.00  0.00    -0.077 C 
ATOM     20  C   UNL     1       1.265   4.285  -0.673  0.00  0.00    -0.008 C 
ATOM     21  C   UNL     1       0.274   4.924  -1.657  0.00  0.00    +0.067 C 
ATOM     22  S   UNL     1       0.228   4.092  -3.257  0.00  0.00    -0.163 S 
ATOM     23  C   UNL     1      -0.946   2.704  -2.988  0.00  0.00    +0.050 C 
ATOM     24  C   UNL     1      -0.356   1.780  -2.018  0.00  0.00    -0.067 C 
ATOM     25  H   UNL     1      -0.770   3.092  -0.503  0.00  0.00    -0.081 HD
ENDBRANCH  17  18
ENDBRANCH   1  17
TORSDOF 4
