REMARK  Name = ZINC48156815
REMARK  9 active torsions:
REMARK  status: ('A' for Active; 'I' for Inactive)
REMARK    1  A    between atoms: C_1  and  C_2
REMARK    2  A    between atoms: C_4  and  C_7
REMARK    3  A    between atoms: C_7  and  N_8
REMARK    4  A    between atoms: N_8  and  C_9
REMARK    5  A    between atoms: C_10  and  C_12
REMARK    6  A    between atoms: C_17  and  C_22
REMARK    7  A    between atoms: C_22  and  C_23
REMARK    8  A    between atoms: C_22  and  C_24
REMARK    9  A    between atoms: C_22  and  C_25
REMARK                            x       y       z     vdW  Elec       q    Type
REMARK                         _______ _______ _______ _____ _____    ______ ____
ROOT
ATOM      1  C   UNL     1      -3.265  -4.358  -3.308  0.00  0.00    +0.103 A 
ATOM      2  C   UNL     1      -4.333  -4.123  -4.113  0.00  0.00    +0.040 A 
ATOM      3  C   UNL     1      -4.329  -5.105  -5.133  0.00  0.00    +0.000 A 
ATOM      4  C   UNL     1      -5.169  -5.362  -6.225  0.00  0.00    +0.010 A 
ATOM      5  C   UNL     1      -4.901  -6.412  -7.054  0.00  0.00    +0.005 A 
ATOM      6  C   UNL     1      -3.801  -7.231  -6.827  0.00  0.00    -0.040 A 
ATOM      7  C   UNL     1      -2.962  -6.999  -5.761  0.00  0.00    +0.030 A 
ATOM      8  C   UNL     1      -3.214  -5.934  -4.900  0.00  0.00    +0.047 A 
ATOM      9  N   UNL     1      -2.573  -5.455  -3.782  0.00  0.00    -0.351 N 
ATOM     10  H   UNL     1      -1.768  -5.829  -3.389  0.00  0.00    +0.166 HD
ENDROOT
BRANCH   1  13
ATOM     11  N   UNL     1      -1.725  -3.788  -1.500  0.00  0.00    -0.293 N 
ATOM     12  C   UNL     1      -0.753  -4.720  -2.079  0.00  0.00    +0.133 C 
ATOM     13  C   UNL     1      -2.899  -3.566  -2.123  0.00  0.00    +0.263 C 
ATOM     14  O   UNL     1      -3.657  -2.711  -1.706  0.00  0.00    -0.268 OA
BRANCH  11  15
ATOM     15  C   UNL     1      -1.420  -3.099  -0.244  0.00  0.00    +0.166 C 
BRANCH  15  19
ATOM     16  C   UNL     1      -0.614   1.853  -1.124  0.00  0.00    +0.089 C 
ATOM     17  C   UNL     1      -0.393   0.376  -0.925  0.00  0.00    +0.135 A 
ATOM     18  C   UNL     1      -1.345  -0.537  -0.652  0.00  0.00    +0.072 A 
ATOM     19  C   UNL     1      -0.727  -1.795  -0.542  0.00  0.00    +0.101 A 
ATOM     20  N   UNL     1       0.551  -1.636  -0.743  0.00  0.00    -0.081 NA
ATOM     21  O   UNL     1       0.785  -0.262  -0.994  0.00  0.00    -0.360 OA
ENDBRANCH  15  19
ENDBRANCH  11  15
ENDBRANCH   1  13
BRANCH   6  22
ATOM     22  C   UNL     1      -3.526  -8.384  -7.756  0.00  0.00    -0.013 C 
ATOM     23  C   UNL     1      -4.595  -8.425  -8.850  0.00  0.00    +0.015 C 
ATOM     24  C   UNL     1      -2.148  -8.205  -8.397  0.00  0.00    +0.015 C 
ATOM     25  C   UNL     1      -3.554  -9.694  -6.966  0.00  0.00    +0.015 C 
ENDBRANCH   6  22
TORSDOF 4
