REMARK  Name = ZINC40780679
REMARK  3 active torsions:
REMARK  status: ('A' for Active; 'I' for Inactive)
REMARK    1  A    between atoms: C_1  and  C_2
REMARK    2  A    between atoms: C_10  and  N_25
REMARK    3  A    between atoms: C_11  and  N_15
REMARK                            x       y       z     vdW  Elec       q    Type
REMARK                         _______ _______ _______ _____ _____    ______ ____
ROOT
ATOM      1  C   UNL     1       0.016   1.482  -0.141  0.00  0.00    +0.045 C 
ATOM      2  C   UNL     1       0.030  -0.021  -0.030  0.00  0.00    -0.032 A 
ATOM      3  C   UNL     1       0.038  -0.632   1.216  0.00  0.00    +0.008 A 
ATOM      4  C   UNL     1       0.050  -2.014   1.274  0.00  0.00    +0.044 A 
ATOM      5  C   UNL     1       0.055  -2.740   0.087  0.00  0.00    +0.124 A 
ATOM      6  N   UNL     1       0.048  -2.120  -1.083  0.00  0.00    -0.240 NA
ATOM      7  C   UNL     1       0.031  -0.803  -1.168  0.00  0.00    +0.116 A 
ATOM      8  N   UNL     1       0.068  -4.131   0.130  0.00  0.00    -0.283 N 
ATOM      9  C   UNL     1      -0.037  -4.864  -1.048  0.00  0.00    +0.150 A 
ATOM     10  C   UNL     1      -0.132  -6.256  -1.010  0.00  0.00    +0.106 A 
ATOM     11  C   UNL     1      -0.235  -6.943  -2.221  0.00  0.00    +0.148 A 
ATOM     12  N   UNL     1      -0.239  -6.250  -3.357  0.00  0.00    -0.219 NA
ATOM     13  C   UNL     1      -0.148  -4.936  -3.348  0.00  0.00    +0.225 A 
ATOM     14  N   UNL     1      -0.054  -4.249  -2.228  0.00  0.00    -0.219 NA
ATOM     15  H   UNL     1       0.150  -4.589   0.981  0.00  0.00    +0.155 HD
ENDROOT
BRANCH  11  16
ATOM     16  N   UNL     1      -0.332  -8.330  -2.240  0.00  0.00    -0.309 N 
ATOM     17  C   UNL     1      -1.630  -9.009  -2.091  0.00  0.00    +0.111 C 
ATOM     18  C   UNL     1      -1.920  -9.757  -3.392  0.00  0.00    +0.054 C 
ATOM     19  C   UNL     1      -0.717 -10.548  -3.834  0.00  0.00    -0.041 A 
ATOM     20  C   UNL     1      -0.926 -11.594  -4.725  0.00  0.00    +0.004 A 
ATOM     21  C   UNL     1       0.133 -12.352  -5.178  0.00  0.00    +0.000 A 
ATOM     22  C   UNL     1       1.415 -12.071  -4.745  0.00  0.00    +0.000 A 
ATOM     23  C   UNL     1       1.625 -11.035  -3.858  0.00  0.00    +0.005 A 
ATOM     24  C   UNL     1       0.559 -10.275  -3.397  0.00  0.00    -0.027 A 
ATOM     25  C   UNL     1       0.854  -9.175  -2.414  0.00  0.00    +0.142 C 
ENDBRANCH  11  16
BRANCH  10  26
ATOM     26  N   UNL     1      -0.123  -6.947   0.213  0.00  0.00    -0.353 N 
ATOM     27  H   UNL     1      -0.125  -6.454   1.048  0.00  0.00    +0.143 HD
ATOM     28  H   UNL     1      -0.115  -7.917   0.222  0.00  0.00    +0.143 HD
ENDBRANCH  10  26
TORSDOF 2
