REMARK  Name = ZINC34719358
REMARK  8 active torsions:
REMARK  status: ('A' for Active; 'I' for Inactive)
REMARK    1  A    between atoms: C_1  and  C_2
REMARK    2  A    between atoms: C_2  and  C_3
REMARK    3  A    between atoms: N_6  and  C_20
REMARK    4  A    between atoms: C_9  and  C_14
REMARK    5  A    between atoms: C_20  and  C_21
REMARK    6  A    between atoms: C_21  and  C_23
REMARK    7  A    between atoms: C_21  and  O_25
REMARK    8  A    between atoms: C_23  and  O_24
REMARK                            x       y       z     vdW  Elec       q    Type
REMARK                         _______ _______ _______ _____ _____    ______ ____
ROOT
ATOM      1  C   UNL     1       0.742  -0.511   1.242  0.00  0.00    +0.190 C 
ATOM      2  C   UNL     1       0.868  -2.040   1.177  0.00  0.00    +0.149 C 
ATOM      3  N   UNL     1       1.541  -2.484   2.409  0.00  0.00    -0.321 N 
ATOM      4  C   UNL     1       1.156  -1.881   3.617  0.00  0.00    +0.073 A 
ATOM      5  C   UNL     1       1.534  -2.445   4.823  0.00  0.00    +0.036 A 
ATOM      6  C   UNL     1       1.153  -1.841   6.020  0.00  0.00    +0.003 A 
ATOM      7  C   UNL     1       0.392  -0.673   5.995  0.00  0.00    +0.014 A 
ATOM      8  C   UNL     1       0.016  -0.116   4.789  0.00  0.00    +0.048 A 
ATOM      9  C   UNL     1       0.393  -0.715   3.595  0.00  0.00    +0.142 A 
ATOM     10  O   UNL     1       0.009  -0.156   2.416  0.00  0.00    -0.485 OA
ENDROOT
BRANCH   6  11
ATOM     11  C   UNL     1       1.554  -2.439   7.316  0.00  0.00    +0.080 A 
ATOM     12  C   UNL     1       1.178  -1.855   8.492  0.00  0.00    +0.076 A 
ATOM     13  S   UNL     1       1.920  -2.973   9.673  0.00  0.00    -0.060 S 
ATOM     14  C   UNL     1       2.650  -4.098   8.491  0.00  0.00    +0.156 A 
ATOM     15  N   UNL     1       2.280  -3.555   7.346  0.00  0.00    -0.225 NA
ATOM     16  N   UNL     1       3.401  -5.240   8.717  0.00  0.00    -0.338 N 
ATOM     17  H   UNL     1       3.593  -5.522   9.625  0.00  0.00    +0.144 HD
ATOM     18  H   UNL     1       3.736  -5.756   7.967  0.00  0.00    +0.144 HD
ENDBRANCH   6  11
BRANCH   1  20
ATOM     19  C   UNL     1      -0.019   1.526   0.010  0.00  0.00    +0.007 C 
ATOM     20  C   UNL     1       0.002  -0.004   0.002  0.00  0.00    +0.043 C 
ENDBRANCH   1  20
BRANCH   3  21
ATOM     21  C   UNL     1       2.577  -3.519   2.376  0.00  0.00    +0.139 C 
BRANCH  21  22
ATOM     22  C   UNL     1       3.946  -2.865   2.179  0.00  0.00    +0.157 C 
BRANCH  22  23
ATOM     23  O   UNL     1       3.955  -2.142   0.946  0.00  0.00    -0.388 OA
ATOM     24  H   UNL     1       3.786  -2.689   0.168  0.00  0.00    +0.210 HD
ENDBRANCH  22  23
BRANCH  22  25
ATOM     25  C   UNL     1       5.028  -3.946   2.144  0.00  0.00    +0.188 C 
BRANCH  25  26
ATOM     26  O   UNL     1       6.315  -3.330   2.077  0.00  0.00    -0.392 OA
ATOM     27  H   UNL     1       7.051  -3.957   2.052  0.00  0.00    +0.210 HD
ENDBRANCH  25  26
ENDBRANCH  22  25
ENDBRANCH  21  22
ENDBRANCH   3  21
TORSDOF 7
