REMARK  Name = ZINC09186926
REMARK  4 active torsions:
REMARK  status: ('A' for Active; 'I' for Inactive)
REMARK    1  A    between atoms: C_1  and  C_2
REMARK    2  A    between atoms: C_4  and  C_24
REMARK    3  A    between atoms: C_6  and  N_8
REMARK    4  A    between atoms: N_14  and  C_18
REMARK                            x       y       z     vdW  Elec       q    Type
REMARK                         _______ _______ _______ _____ _____    ______ ____
ROOT
ATOM      1  N   UNL     1       0.237  -0.702   3.440  0.00  0.00    -0.177 NA
ATOM      2  C   UNL     1      -0.058  -1.985   3.452  0.00  0.00    +0.204 C 
ATOM      3  N   UNL     1      -0.051  -2.700   2.284  0.00  0.00    -0.369 N 
ATOM      4  N   UNL     1      -0.371  -2.605   4.634  0.00  0.00    -0.313 N 
ATOM      5  C   UNL     1      -0.274  -1.911   5.828  0.00  0.00    +0.137 C 
ATOM      6  N   UNL     1       0.011  -0.660   5.967  0.00  0.00    -0.159 NA
ATOM      7  N   UNL     1       0.033  -0.255   7.298  0.00  0.00    -0.159 N 
ATOM      8  C   UNL     1      -0.251  -1.282   8.126  0.00  0.00    +0.247 C 
ATOM      9  O   UNL     1      -0.311  -1.256   9.337  0.00  0.00    -0.273 OA
ATOM     10  C   UNL     1      -0.487  -2.473   7.218  0.00  0.00    +0.174 C 
ATOM     11  H   UNL     1       0.256  -3.620   2.280  0.00  0.00    +0.159 HD
ATOM     12  H   UNL     1      -0.661  -3.531   4.634  0.00  0.00    +0.170 HD
ATOM     13  H   UNL     1      -0.354  -2.286   1.461  0.00  0.00    +0.159 HD
ENDROOT
BRANCH   1  19
ATOM     14  C   UNL     1       1.717  -1.215  -1.072  0.00  0.00    +0.066 C 
ATOM     15  C   UNL     1       1.408  -0.344   0.118  0.00  0.00    +0.044 A 
ATOM     16  C   UNL     1       1.584   1.029   0.047  0.00  0.00    +0.046 A 
ATOM     17  C   UNL     1       1.288   1.797   1.163  0.00  0.00    +0.044 A 
ATOM     18  N   UNL     1       0.850   1.202   2.259  0.00  0.00    -0.216 NA
ATOM     19  C   UNL     1       0.691  -0.119   2.297  0.00  0.00    +0.254 A 
ATOM     20  N   UNL     1       0.961  -0.881   1.240  0.00  0.00    -0.216 NA
ATOM     21  C   UNL     1       1.466   3.293   1.128  0.00  0.00    +0.066 C 
ENDBRANCH   1  19
BRANCH   7  22
ATOM     22  C   UNL     1       0.315   1.048   7.723  0.00  0.00    +0.060 A 
ATOM     23  C   UNL     1       0.319   1.352   9.079  0.00  0.00    +0.025 A 
ATOM     24  C   UNL     1       0.598   2.639   9.495  0.00  0.00    +0.002 A 
ATOM     25  C   UNL     1       0.873   3.624   8.564  0.00  0.00    +0.000 A 
ATOM     26  C   UNL     1       0.869   3.325   7.214  0.00  0.00    +0.002 A 
ATOM     27  C   UNL     1       0.597   2.038   6.791  0.00  0.00    +0.025 A 
ENDBRANCH   7  22
TORSDOF 2
