REMARK  Name = ZINC12293728
REMARK  6 active torsions:
REMARK  status: ('A' for Active; 'I' for Inactive)
REMARK    1  A    between atoms: C_1  and  C_2
REMARK    2  A    between atoms: C_8  and  O_29
REMARK    3  A    between atoms: C_17  and  C_18
REMARK    4  A    between atoms: C_17  and  N_53
REMARK    5  A    between atoms: C_18  and  C_20
REMARK    6  A    between atoms: C_18  and  O_28
REMARK                            x       y       z     vdW  Elec       q    Type
REMARK                         _______ _______ _______ _____ _____    ______ ____
ROOT
ATOM      1  C   UNL     1       2.532   2.328   9.129  0.00  0.00    +0.044 C 
ATOM      2  C   UNL     1       1.914   2.659   7.795  0.00  0.00    -0.050 A 
ATOM      3  C   UNL     1       2.712   3.081   6.748  0.00  0.00    +0.007 A 
ATOM      4  C   UNL     1       2.145   3.385   5.527  0.00  0.00    +0.046 A 
ATOM      5  C   UNL     1       0.770   3.267   5.346  0.00  0.00    +0.127 A 
ATOM      6  C   UNL     1      -0.026   2.842   6.394  0.00  0.00    +0.023 A 
ATOM      7  C   UNL     1       0.549   2.540   7.618  0.00  0.00    +0.013 A 
ATOM      8  C   UNL     1      -1.518   2.692   6.238  0.00  0.00    +0.152 C 
ATOM      9  C   UNL     1      -1.988   3.476   5.010  0.00  0.00    +0.084 C 
ATOM     10  C   UNL     1      -1.071   3.124   3.833  0.00  0.00    +0.110 C 
ATOM     11  O   UNL     1       0.248   3.579   4.131  0.00  0.00    -0.485 OA
ATOM     12  C   UNL     1      -1.582   3.808   2.565  0.00  0.00    +0.029 C 
ATOM     13  C   UNL     1      -0.703   3.401   1.380  0.00  0.00    -0.075 C 
ATOM     14  C   UNL     1      -0.199   1.267   2.411  0.00  0.00    -0.075 C 
ATOM     15  C   UNL     1      -1.063   1.609   3.627  0.00  0.00    +0.029 C 
ATOM     16  N   UNL     1      -0.766   1.933   1.218  0.00  0.00    +0.382 N 
ATOM     17  H   UNL     1      -1.747   1.651   1.114  0.00  0.00    -0.082 HD
ENDROOT
BRANCH   8  18
ATOM     18  O   UNL     1      -2.171   3.199   7.403  0.00  0.00    -0.387 OA
ATOM     19  H   UNL     1      -1.923   2.747   8.221  0.00  0.00    +0.210 HD
ENDBRANCH   8  18
BRANCH  16  20
ATOM     20  C   UNL     1      -0.019   1.526   0.010  0.00  0.00    -0.042 C 
BRANCH  20  21
ATOM     21  C   UNL     1       0.007  -0.002  -0.069  0.00  0.00    +0.128 C 
BRANCH  21  22
ATOM     22  C   UNL     1       0.718  -0.428  -1.327  0.00  0.00    -0.018 A 
ATOM     23  C   UNL     1       2.038  -0.836  -1.270  0.00  0.00    +0.009 A 
ATOM     24  C   UNL     1       2.692  -1.228  -2.423  0.00  0.00    +0.041 A 
ATOM     25  C   UNL     1       2.026  -1.211  -3.636  0.00  0.00    +0.158 A 
ATOM     26  C   UNL     1       0.702  -0.802  -3.693  0.00  0.00    +0.159 A 
ATOM     27  C   UNL     1       0.048  -0.416  -2.536  0.00  0.00    +0.047 A 
ATOM     28  F   UNL     1       0.050  -0.785  -4.876  0.00  0.00    -0.202 F 
ATOM     29  F   UNL     1       2.664  -1.594  -4.763  0.00  0.00    -0.202 F 
ENDBRANCH  21  22
BRANCH  21  30
ATOM     30  O   UNL     1      -1.333  -0.500  -0.086  0.00  0.00    -0.389 OA
ATOM     31  H   UNL     1      -1.860  -0.185  -0.833  0.00  0.00    +0.210 HD
ENDBRANCH  21  30
ENDBRANCH  20  21
ENDBRANCH  16  20
TORSDOF 5
