REMARK  Name = ZINC63503401
REMARK  6 active torsions:
REMARK  status: ('A' for Active; 'I' for Inactive)
REMARK    1  A    between atoms: C_1  and  O_2
REMARK    2  A    between atoms: O_2  and  C_3
REMARK    3  A    between atoms: C_15  and  N_16
REMARK    4  A    between atoms: C_17  and  C_19
REMARK    5  A    between atoms: C_19  and  C_20
REMARK    6  A    between atoms: C_20  and  C_21
REMARK                            x       y       z     vdW  Elec       q    Type
REMARK                         _______ _______ _______ _____ _____    ______ ____
ROOT
ATOM      1  N   UNL     1      -0.069  -2.776  -0.012  0.00  0.00    -0.282 N 
ATOM      2  C   UNL     1      -0.114  -4.119   0.083  0.00  0.00    +0.218 C 
ATOM      3  O   UNL     1      -1.183  -4.692   0.090  0.00  0.00    -0.275 OA
ATOM      4  H   UNL     1       0.786  -2.323  -0.084  0.00  0.00    +0.155 HD
ENDROOT
BRANCH   1  17
ATOM      5  C   UNL     1      -1.289  -0.780   0.606  0.00  0.00    +0.142 A 
ATOM      6  C   UNL     1      -2.457  -0.043   0.609  0.00  0.00    +0.059 A 
ATOM      7  C   UNL     1      -3.600  -0.556   0.003  0.00  0.00    +0.031 A 
ATOM      8  C   UNL     1      -4.976  -0.054  -0.176  0.00  0.00    +0.028 A 
ATOM      9  C   UNL     1      -5.633   1.114   0.194  0.00  0.00    +0.012 A 
ATOM     10  C   UNL     1      -6.962   1.284  -0.134  0.00  0.00    +0.001 A 
ATOM     11  C   UNL     1      -7.639   0.295  -0.830  0.00  0.00    +0.004 A 
ATOM     12  C   UNL     1      -6.996  -0.867  -1.202  0.00  0.00    +0.047 A 
ATOM     13  C   UNL     1      -5.657  -1.057  -0.881  0.00  0.00    +0.136 A 
ATOM     14  O   UNL     1      -4.800  -2.074  -1.116  0.00  0.00    -0.455 OA
ATOM     15  C   UNL     1      -3.573  -1.817  -0.610  0.00  0.00    +0.138 A 
ATOM     16  C   UNL     1      -2.393  -2.550  -0.605  0.00  0.00    +0.074 A 
ATOM     17  C   UNL     1      -1.257  -2.034  -0.007  0.00  0.00    +0.079 A 
BRANCH   5  19
ATOM     18  C   UNL     1      -0.274   1.006   1.805  0.00  0.00    +0.277 C 
ATOM     19  O   UNL     1      -0.169  -0.283   1.197  0.00  0.00    -0.493 OA
ENDBRANCH   5  19
ENDBRANCH   1  17
BRANCH   2  20
ATOM     20  C   UNL     1       1.165  -4.911   0.180  0.00  0.00    +0.100 C 
BRANCH  20  21
ATOM     21  C   UNL     1       0.836  -6.402   0.276  0.00  0.00    +0.042 C 
BRANCH  21  22
ATOM     22  C   UNL     1       2.115  -7.193   0.373  0.00  0.00    -0.041 C 
ATOM     23  C   UNL     1       2.719  -7.628   1.503  0.00  0.00    -0.001 A 
ATOM     24  C   UNL     1       2.379  -7.498   2.925  0.00  0.00    +0.010 A 
ATOM     25  C   UNL     1       3.197  -8.052   3.849  0.00  0.00    +0.001 A 
ATOM     26  C   UNL     1       4.359  -8.745   3.482  0.00  0.00    +0.002 A 
ATOM     27  C   UNL     1       4.737  -8.906   2.197  0.00  0.00    +0.026 A 
ATOM     28  C   UNL     1       3.951  -8.365   1.143  0.00  0.00    +0.043 A 
ATOM     29  N   UNL     1       4.103  -8.385  -0.159  0.00  0.00    -0.380 N 
ATOM     30  C   UNL     1       2.980  -7.668  -0.773  0.00  0.00    +0.144 C 
ATOM     31  H   UNL     1       4.834  -8.808  -0.637  0.00  0.00    +0.160 HD
ENDBRANCH  21  22
ENDBRANCH  20  21
ENDBRANCH   2  20
TORSDOF 5
