REMARK  Name = ZINC38049982
REMARK  4 active torsions:
REMARK  status: ('A' for Active; 'I' for Inactive)
REMARK    1  A    between atoms: C_6  and  S_7
REMARK    2  A    between atoms: S_7  and  N_10
REMARK    3  A    between atoms: N_10  and  C_11
REMARK    4  A    between atoms: C_17  and  N_19
REMARK                            x       y       z     vdW  Elec       q    Type
REMARK                         _______ _______ _______ _____ _____    ______ ____
ROOT
ATOM      1  S   UNL     1      -1.513  -0.904   0.010  0.00  0.00    +0.059 S 
ATOM      2  O   UNL     1      -1.221  -2.185   0.551  0.00  0.00    -0.153 OA
ATOM      3  O   UNL     1      -2.493  -0.044   0.573  0.00  0.00    -0.153 OA
ENDROOT
BRANCH   1   9
ATOM      4  C   UNL     1      -0.017   1.378   0.010  0.00  0.00    +0.032 A 
ATOM      5  C   UNL     1       1.170   2.088   0.002  0.00  0.00    +0.051 A 
ATOM      6  C   UNL     1       2.382   1.415  -0.013  0.00  0.00    +0.162 A 
ATOM      7  C   UNL     1       2.401   0.025  -0.018  0.00  0.00    +0.164 A 
ATOM      8  C   UNL     1       1.207  -0.681  -0.011  0.00  0.00    +0.078 A 
ATOM      9  C   UNL     1       0.002  -0.004   0.002  0.00  0.00    +0.109 A 
ATOM     10  O   UNL     1       3.579  -0.656  -0.024  0.00  0.00    -0.485 OA
ATOM     11  C   UNL     1       4.746   0.081  -0.406  0.00  0.00    +0.270 C 
ATOM     12  C   UNL     1       4.733   1.422   0.340  0.00  0.00    +0.270 C 
ATOM     13  O   UNL     1       3.542   2.127  -0.024  0.00  0.00    -0.485 OA
ENDBRANCH   1   9
BRANCH   1  14
ATOM     14  N   UNL     1      -1.947  -1.146  -1.570  0.00  0.00    -0.188 NA
ATOM     15  H   UNL     1      -2.753  -0.736  -1.919  0.00  0.00    +0.148 HD
BRANCH  14  16
ATOM     16  C   UNL     1      -1.112  -1.979  -2.440  0.00  0.00    +0.062 C 
ATOM     17  C   UNL     1      -1.657  -3.408  -2.453  0.00  0.00    +0.019 C 
ATOM     18  C   UNL     1      -3.094  -3.401  -2.978  0.00  0.00    +0.001 C 
ATOM     19  C   UNL     1      -3.115  -2.835  -4.400  0.00  0.00    -0.001 C 
ATOM     20  C   UNL     1      -2.570  -1.405  -4.387  0.00  0.00    -0.015 C 
ATOM     21  C   UNL     1      -1.133  -1.412  -3.861  0.00  0.00    -0.056 C 
BRANCH  21  22
ATOM     22  N   UNL     1      -0.609  -0.040  -3.848  0.00  0.00    +0.381 N 
ATOM     23  H   UNL     1       0.338  -0.044  -3.502  0.00  0.00    -0.090 HD
ATOM     24  H   UNL     1      -0.623   0.334  -4.785  0.00  0.00    -0.090 HD
ATOM     25  H   UNL     1      -1.184   0.534  -3.249  0.00  0.00    -0.090 HD
ENDBRANCH  21  22
ENDBRANCH  14  16
ENDBRANCH   1  14
TORSDOF 4
