REMARK  Name = ZINC04306571
REMARK  3 active torsions:
REMARK  status: ('A' for Active; 'I' for Inactive)
REMARK    1  A    between atoms: C_15  and  O_17
REMARK    2  A    between atoms: O_17  and  N_18
REMARK    3  A    between atoms: C_19  and  C_20
REMARK                            x       y       z     vdW  Elec       q    Type
REMARK                         _______ _______ _______ _____ _____    ______ ____
ROOT
ATOM      1  C   UNL     1      -0.017   1.379   0.010  0.00  0.00    +0.002 A 
ATOM      2  C   UNL     1       1.165   2.096   0.002  0.00  0.00    +0.001 A 
ATOM      3  C   UNL     1       2.380   1.431  -0.014  0.00  0.00    +0.017 A 
ATOM      4  C   UNL     1       2.404   0.048  -0.021  0.00  0.00    +0.035 A 
ATOM      5  C   UNL     1       1.212  -0.680  -0.013  0.00  0.00    +0.058 A 
ATOM      6  C   UNL     1       0.002  -0.004   0.002  0.00  0.00    +0.025 A 
ATOM      7  N   UNL     1       1.238  -2.081  -0.016  0.00  0.00    -0.202 N 
ATOM      8  C   UNL     1       2.205  -2.804   0.696  0.00  0.00    +0.058 A 
ATOM      9  C   UNL     1       1.865  -3.988   1.331  0.00  0.00    +0.025 A 
ATOM     10  C   UNL     1       2.824  -4.696   2.034  0.00  0.00    +0.002 A 
ATOM     11  C   UNL     1       4.123  -4.230   2.108  0.00  0.00    +0.001 A 
ATOM     12  C   UNL     1       4.474  -3.048   1.478  0.00  0.00    +0.017 A 
ATOM     13  C   UNL     1       3.519  -2.338   0.774  0.00  0.00    +0.035 A 
ATOM     14  S   UNL     1       3.936  -0.829  -0.041  0.00  0.00    -0.086 S 
ATOM     15  C   UNL     1       0.309  -2.752  -0.725  0.00  0.00    +0.437 C 
ATOM     16  O   UNL     1      -0.537  -2.142  -1.349  0.00  0.00    -0.223 OA
ENDROOT
BRANCH  15  17
ATOM     17  O   UNL     1       0.317  -4.098  -0.741  0.00  0.00    -0.297 OA
BRANCH  17  18
ATOM     18  N   UNL     1      -0.714  -4.671  -1.525  0.00  0.00    -0.057 NA
ATOM     19  C   UNL     1      -0.815  -5.964  -1.622  0.00  0.00    +0.163 C 
ATOM     20  N   UNL     1       0.086  -6.780  -0.960  0.00  0.00    -0.340 N 
ATOM     21  H   UNL     1       0.792  -6.388  -0.424  0.00  0.00    +0.144 HD
ATOM     22  H   UNL     1       0.011  -7.745  -1.033  0.00  0.00    +0.144 HD
BRANCH  19  23
ATOM     23  C   UNL     1      -1.893  -6.564  -2.442  0.00  0.00    +0.020 A 
ATOM     24  C   UNL     1      -2.810  -5.757  -3.123  0.00  0.00    +0.029 A 
ATOM     25  C   UNL     1      -3.800  -6.358  -3.875  0.00  0.00    +0.083 A 
ATOM     26  N   UNL     1      -3.887  -7.671  -3.956  0.00  0.00    -0.367 N 
ATOM     27  C   UNL     1      -3.043  -8.468  -3.329  0.00  0.00    +0.083 A 
ATOM     28  C   UNL     1      -2.019  -7.951  -2.559  0.00  0.00    +0.029 A 
ATOM     29  H   UNL     1      -4.593  -8.064  -4.492  0.00  0.00    +0.165 HD
ENDBRANCH  19  23
ENDBRANCH  17  18
ENDBRANCH  15  17
TORSDOF 3
