REMARK  Name = ZINC40552901
REMARK  5 active torsions:
REMARK  status: ('A' for Active; 'I' for Inactive)
REMARK    1  A    between atoms: C_1  and  C_2
REMARK    2  A    between atoms: C_2  and  N_3
REMARK    3  A    between atoms: C_7  and  C_9
REMARK    4  A    between atoms: C_9  and  N_10
REMARK    5  A    between atoms: C_17  and  C_19
REMARK                            x       y       z     vdW  Elec       q    Type
REMARK                         _______ _______ _______ _____ _____    ______ ____
ROOT
ATOM      1  N   UNL     1      -1.557  -1.711  -2.540  0.00  0.00    -0.301 N 
ATOM      2  C   UNL     1      -2.070  -1.927  -3.767  0.00  0.00    +0.304 C 
ATOM      3  O   UNL     1      -3.004  -2.692  -3.909  0.00  0.00    -0.253 OA
ATOM      4  N   UNL     1      -1.549  -1.294  -4.837  0.00  0.00    -0.262 N 
ATOM      5  C   UNL     1      -0.409  -0.360  -4.708  0.00  0.00    +0.179 C 
ATOM      6  S   UNL     1      -0.608   0.661  -6.235  0.00  0.00    -0.139 S 
ATOM      7  C   UNL     1      -1.366  -0.666  -7.274  0.00  0.00    +0.105 C 
ATOM      8  C   UNL     1      -2.073  -1.499  -6.176  0.00  0.00    +0.201 C 
ATOM      9  H   UNL     1      -0.812  -1.101  -2.426  0.00  0.00    +0.150 HD
ENDROOT
BRANCH   8  10
ATOM     10  C   UNL     1      -1.946  -2.960  -6.522  0.00  0.00    +0.377 C 
ATOM     11  O   UNL     1      -2.486  -3.399  -7.522  0.00  0.00    -0.244 OA
ATOM     12  O   UNL     1      -1.303  -3.703  -5.800  0.00  0.00    -0.244 OA
ENDBRANCH   8  10
BRANCH   1  13
ATOM     13  C   UNL     1      -2.124  -2.399  -1.377  0.00  0.00    +0.090 C 
BRANCH  13  18
ATOM     14  N   UNL     1      -1.376  -0.512   0.012  0.00  0.00    +0.382 N 
ATOM     15  C   UNL     1      -2.028  -0.158   1.291  0.00  0.00    -0.078 C 
ATOM     16  C   UNL     1      -2.935  -1.369   1.623  0.00  0.00    -0.020 C 
ATOM     17  C   UNL     1      -2.064  -2.556   1.133  0.00  0.00    -0.016 C 
ATOM     18  C   UNL     1      -1.364  -1.981  -0.117  0.00  0.00    -0.051 C 
ATOM     19  H   UNL     1      -1.894  -0.109  -0.754  0.00  0.00    -0.081 HD
BRANCH  14  21
ATOM     20  C   UNL     1      -0.019   1.526   0.010  0.00  0.00    -0.017 C 
ATOM     21  C   UNL     1       0.002  -0.004   0.002  0.00  0.00    -0.082 C 
ENDBRANCH  14  21
ENDBRANCH  13  18
ENDBRANCH   1  13
TORSDOF 4
