REMARK  Name = ZINC41650253
REMARK  8 active torsions:
REMARK  status: ('A' for Active; 'I' for Inactive)
REMARK    1  A    between atoms: C_1  and  C_2
REMARK    2  A    between atoms: C_2  and  O_3
REMARK    3  A    between atoms: O_3  and  C_4
REMARK    4  A    between atoms: C_7  and  N_13
REMARK    5  A    between atoms: C_8  and  N_10
REMARK    6  A    between atoms: N_13  and  C_14
REMARK    7  A    between atoms: C_14  and  C_16
REMARK    8  A    between atoms: C_14  and  C_17
REMARK                            x       y       z     vdW  Elec       q    Type
REMARK                         _______ _______ _______ _____ _____    ______ ____
ROOT
ATOM      1  C   UNL     1       0.963  -1.841  -1.164  0.00  0.00    +0.123 A 
ATOM      2  C   UNL     1       0.208  -2.708  -0.388  0.00  0.00    +0.047 A 
ATOM      3  C   UNL     1       0.128  -4.045  -0.725  0.00  0.00    +0.029 A 
ATOM      4  C   UNL     1       0.805  -4.521  -1.841  0.00  0.00    +0.058 A 
ATOM      5  C   UNL     1       1.560  -3.653  -2.617  0.00  0.00    +0.150 A 
ATOM      6  C   UNL     1       1.634  -2.315  -2.281  0.00  0.00    +0.080 A 
ENDROOT
BRANCH   5   7
ATOM      7  N   UNL     1       2.281  -4.159  -3.806  0.00  0.00    +0.058 N 
ATOM      8  O   UNL     1       2.801  -5.250  -3.778  0.00  0.00    -0.126 OA
ATOM      9  O   UNL     1       2.350  -3.481  -4.805  0.00  0.00    -0.126 OA
ENDBRANCH   5   7
BRANCH   4  10
ATOM     10  N   UNL     1       0.725  -5.876  -2.182  0.00  0.00    -0.335 N 
ATOM     11  H   UNL     1       1.126  -6.193  -3.007  0.00  0.00    +0.147 HD
BRANCH  10  12
ATOM     12  C   UNL     1       0.037  -6.816  -1.294  0.00  0.00    +0.105 C 
ATOM     13  C   UNL     1      -1.462  -6.802  -1.600  0.00  0.00    +0.033 C 
BRANCH  12  14
ATOM     14  C   UNL     1       0.581  -8.204  -1.513  0.00  0.00    +0.024 A 
ATOM     15  C   UNL     1       0.933  -9.138  -0.595  0.00  0.00    +0.030 A 
ATOM     16  C   UNL     1       1.414 -10.359  -1.032  0.00  0.00    +0.023 A 
ATOM     17  C   UNL     1       1.520 -10.585  -2.364  0.00  0.00    +0.046 A 
ATOM     18  S   UNL     1       0.923  -9.049  -3.049  0.00  0.00    -0.099 S 
ATOM     19 BR   UNL     1       0.768  -8.777   1.254  0.00  0.00    -0.049 Br
ENDBRANCH  12  14
ENDBRANCH  10  12
ENDBRANCH   4  10
BRANCH   1  20
ATOM     20  O   UNL     1       1.040  -0.524  -0.832  0.00  0.00    -0.492 OA
BRANCH  20  22
ATOM     21  C   UNL     1       0.528   1.396   0.543  0.00  0.00    +0.048 C 
ATOM     22  C   UNL     1       0.324  -0.106   0.331  0.00  0.00    +0.225 C 
ENDBRANCH  20  22
ENDBRANCH   1  20
TORSDOF 6
