REMARK  Name = ZINC51886453
REMARK  4 active torsions:
REMARK  status: ('A' for Active; 'I' for Inactive)
REMARK    1  A    between atoms: C_5  and  N_15
REMARK    2  A    between atoms: C_6  and  N_7
REMARK    3  A    between atoms: C_10  and  C_13
REMARK    4  A    between atoms: C_13  and  O_14
REMARK                            x       y       z     vdW  Elec       q    Type
REMARK                         _______ _______ _______ _____ _____    ______ ____
ROOT
ATOM      1  C   UNL     1      -0.017   1.385   0.010  0.00  0.00    +0.031 A 
ATOM      2  C   UNL     1       1.170   2.091   0.002  0.00  0.00    -0.024 A 
ATOM      3  C   UNL     1       2.381   1.413  -0.013  0.00  0.00    +0.039 A 
ATOM      4  C   UNL     1       2.400   0.025  -0.021  0.00  0.00    +0.058 A 
ATOM      5  C   UNL     1       1.214  -0.682  -0.013  0.00  0.00    +0.149 A 
ATOM      6  C   UNL     1       0.002  -0.004   0.002  0.00  0.00    +0.061 A 
ATOM      7  N   UNL     1       3.583   2.132  -0.020  0.00  0.00    -0.285 N 
ATOM      8  C   UNL     1       3.607   3.425   0.355  0.00  0.00    +0.218 C 
ATOM      9  O   UNL     1       4.653   4.038   0.328  0.00  0.00    -0.275 OA
ATOM     10  C   UNL     1       2.350   4.118   0.806  0.00  0.00    +0.101 C 
ATOM     11  C   UNL     1       1.153   3.597   0.010  0.00  0.00    +0.046 C 
ATOM     12  H   UNL     1       4.404   1.696  -0.297  0.00  0.00    +0.155 HD
ENDROOT
BRANCH   6  13
ATOM     13  N   UNL     1      -1.200  -0.720   0.009  0.00  0.00    -0.328 N 
ATOM     14  C   UNL     1      -1.928  -1.159   1.209  0.00  0.00    +0.105 C 
ATOM     15  C   UNL     1      -3.203  -1.884   0.730  0.00  0.00    +0.026 C 
ATOM     16  C   UNL     1      -3.409  -1.319  -0.700  0.00  0.00    +0.033 C 
ATOM     17  C   UNL     1      -1.949  -1.153  -1.184  0.00  0.00    +0.111 C 
BRANCH  16  18
ATOM     18  C   UNL     1      -4.172  -2.312  -1.578  0.00  0.00    +0.161 C 
BRANCH  18  19
ATOM     19  O   UNL     1      -5.505  -2.458  -1.084  0.00  0.00    -0.395 OA
ATOM     20  H   UNL     1      -6.048  -3.075  -1.594  0.00  0.00    +0.209 HD
ENDBRANCH  18  19
ENDBRANCH  16  18
ENDBRANCH   6  13
BRANCH   5  21
ATOM     21  N   UNL     1       1.235  -2.162  -0.022  0.00  0.00    +0.058 N 
ATOM     22  O   UNL     1       2.290  -2.752  -0.035  0.00  0.00    -0.126 OA
ATOM     23  O   UNL     1       0.196  -2.781  -0.016  0.00  0.00    -0.126 OA
ENDBRANCH   5  21
TORSDOF 4
