REMARK  Name = ZINC38776678
REMARK  5 active torsions:
REMARK  status: ('A' for Active; 'I' for Inactive)
REMARK    1  A    between atoms: C_4  and  C_7
REMARK    2  A    between atoms: C_13  and  C_21
REMARK    3  A    between atoms: C_24  and  O_27
REMARK    4  A    between atoms: O_27  and  C_28
REMARK    5  A    between atoms: C_28  and  C_29
REMARK                            x       y       z     vdW  Elec       q    Type
REMARK                         _______ _______ _______ _____ _____    ______ ____
ROOT
ATOM      1  C   UNL     1       3.439  -1.249  -0.068  0.00  0.00    +0.154 C 
ATOM      2  N   UNL     1       4.420  -0.371  -0.156  0.00  0.00    -0.160 NA
ATOM      3  C   UNL     1       5.702  -0.743  -0.235  0.00  0.00    +0.249 C 
ATOM      4  O   UNL     1       6.601   0.074  -0.289  0.00  0.00    -0.273 OA
ATOM      5  C   UNL     1       5.978  -2.232  -0.254  0.00  0.00    +0.148 C 
ATOM      6  C   UNL     1       6.956  -2.552   0.879  0.00  0.00    +0.047 C 
ATOM      7  C   UNL     1       7.374  -4.020   0.763  0.00  0.00    +0.105 C 
ATOM      8  C   UNL     1       6.176  -4.910   0.600  0.00  0.00    +0.219 C 
ATOM      9  O   UNL     1       6.295  -6.091   0.842  0.00  0.00    -0.275 OA
ATOM     10  N   UNL     1       4.977  -4.454   0.199  0.00  0.00    -0.273 N 
ATOM     11  C   UNL     1       4.774  -3.130  -0.040  0.00  0.00    +0.116 C 
ATOM     12  N   UNL     1       3.596  -2.574   0.023  0.00  0.00    -0.218 NA
ATOM     13  H   UNL     1       4.247  -5.078   0.064  0.00  0.00    +0.156 HD
ENDROOT
BRANCH   1  17
ATOM     14  C   UNL     1      -0.534   0.254  -0.051  0.00  0.00    +0.000 A 
ATOM     15  C   UNL     1       0.533   1.129  -0.147  0.00  0.00    +0.001 A 
ATOM     16  C   UNL     1       1.826   0.648  -0.153  0.00  0.00    +0.011 A 
ATOM     17  C   UNL     1       2.057  -0.726  -0.061  0.00  0.00    +0.017 A 
ATOM     18  C   UNL     1       0.975  -1.605   0.035  0.00  0.00    +0.011 A 
ATOM     19  C   UNL     1      -0.313  -1.110   0.039  0.00  0.00    +0.001 A 
ENDBRANCH   1  17
BRANCH   6  20
ATOM     20  C   UNL     1       6.285  -2.316   2.208  0.00  0.00    -0.042 A 
ATOM     21  C   UNL     1       5.362  -3.227   2.686  0.00  0.00    +0.007 A 
ATOM     22  C   UNL     1       4.745  -3.013   3.903  0.00  0.00    +0.046 A 
ATOM     23  C   UNL     1       5.054  -1.883   4.647  0.00  0.00    +0.121 A 
ATOM     24  C   UNL     1       5.982  -0.971   4.165  0.00  0.00    +0.046 A 
ATOM     25  C   UNL     1       6.599  -1.192   2.949  0.00  0.00    +0.007 A 
BRANCH  23  26
ATOM     26  O   UNL     1       4.449  -1.670   5.845  0.00  0.00    -0.483 OA
BRANCH  26  27
ATOM     27  C   UNL     1       4.816  -0.486   6.555  0.00  0.00    +0.324 C 
BRANCH  27  28
ATOM     28  C   UNL     1       4.048  -0.419   7.851  0.00  0.00    +0.248 C 
ATOM     29  O   UNL     1       3.265  -1.300   8.137  0.00  0.00    -0.272 OA
ATOM     30  N   UNL     1       4.233   0.618   8.691  0.00  0.00    -0.327 N 
ATOM     31  H   UNL     1       4.860   1.322   8.462  0.00  0.00    +0.145 HD
ATOM     32  H   UNL     1       3.739   0.661   9.525  0.00  0.00    +0.145 HD
ENDBRANCH  27  28
ENDBRANCH  26  27
ENDBRANCH  23  26
ENDBRANCH   6  20
TORSDOF 5
