REMARK  Name = ZINC37556308
REMARK  7 active torsions:
REMARK  status: ('A' for Active; 'I' for Inactive)
REMARK    1  A    between atoms: C_1  and  C_2
REMARK    2  A    between atoms: C_2  and  N_3
REMARK    3  A    between atoms: N_3  and  C_4
REMARK    4  A    between atoms: N_3  and  S_9
REMARK    5  A    between atoms: S_9  and  C_12
REMARK    6  A    between atoms: C_13  and  N_20
REMARK    7  A    between atoms: N_20  and  N_21
REMARK                            x       y       z     vdW  Elec       q    Type
REMARK                         _______ _______ _______ _____ _____    ______ ____
ROOT
ATOM      1  C   UNL     1      -0.411   1.169  -3.227  0.00  0.00    +0.222 A 
ATOM      2  C   UNL     1      -1.313   2.113  -2.890  0.00  0.00    +0.179 A 
ATOM      3  N   UNL     1      -1.017   3.239  -3.562  0.00  0.00    -0.203 NA
ATOM      4  C   UNL     1       0.035   3.026  -4.303  0.00  0.00    +0.181 A 
ATOM      5  N   UNL     1       0.478   1.742  -4.141  0.00  0.00    -0.276 N 
ATOM      6  C   UNL     1       1.593   1.371  -4.860  0.00  0.00    +0.102 A 
ATOM      7  C   UNL     1       2.202   2.236  -5.670  0.00  0.00    +0.067 A 
ATOM      8  S   UNL     1       1.193   3.697  -5.472  0.00  0.00    -0.058 S 
ENDROOT
BRANCH   1   9
ATOM      9  S   UNL     1      -0.360  -0.485  -2.621  0.00  0.00    +0.080 S 
ATOM     10  O   UNL     1       0.339  -1.252  -3.592  0.00  0.00    -0.151 OA
ATOM     11  O   UNL     1      -1.679  -0.806  -2.203  0.00  0.00    -0.151 OA
BRANCH   9  12
ATOM     12  N   UNL     1       0.580  -0.478  -1.258  0.00  0.00    -0.172 NA
BRANCH  12  13
ATOM     13  C   UNL     1       2.024  -0.702  -1.363  0.00  0.00    +0.080 C 
ATOM     14  C   UNL     1       2.461  -1.802  -0.374  0.00  0.00    +0.020 C 
ATOM     15  C   UNL     1       3.845  -1.328   0.135  0.00  0.00    +0.002 C 
ATOM     16  C   UNL     1       3.659   0.205   0.253  0.00  0.00    +0.002 C 
ATOM     17  C   UNL     1       2.786   0.575  -0.964  0.00  0.00    +0.020 C 
ENDBRANCH  12  13
BRANCH  12  19
ATOM     18  C   UNL     1       0.021   1.246   0.385  0.00  0.00    +0.022 C 
ATOM     19  C   UNL     1      -0.032  -0.247   0.053  0.00  0.00    +0.106 C 
ENDBRANCH  12  19
ENDBRANCH   9  12
ENDBRANCH   1   9
BRANCH   2  20
ATOM     20  N   UNL     1      -2.379   1.949  -1.991  0.00  0.00    -0.265 N 
ATOM     21  H   UNL     1      -2.515   1.095  -1.551  0.00  0.00    +0.168 HD
BRANCH  20  22
ATOM     22  N   UNL     1      -3.224   2.991  -1.736  0.00  0.00    -0.255 NA
ATOM     23  H   UNL     1      -3.635   3.340  -2.589  0.00  0.00    +0.140 HD
ATOM     24  H   UNL     1      -3.937   2.725  -1.074  0.00  0.00    +0.140 HD
ENDBRANCH  20  22
ENDBRANCH   2  20
TORSDOF 6
