REMARK  Name = ZINC00107733
REMARK  3 active torsions:
REMARK  status: ('A' for Active; 'I' for Inactive)
REMARK    1  A    between atoms: C_1  and  C_2
REMARK    2  A    between atoms: N_4  and  N_5
REMARK    3  A    between atoms: C_6  and  C_8
REMARK                            x       y       z     vdW  Elec       q    Type
REMARK                         _______ _______ _______ _____ _____    ______ ____
ROOT
ATOM      1  C   UNL     1       4.476   5.647   0.051  0.00  0.00    +0.076 A 
ATOM      2  C   UNL     1       4.706   4.356  -0.394  0.00  0.00    +0.025 A 
ATOM      3  C   UNL     1       3.663   3.455  -0.451  0.00  0.00    -0.022 A 
ATOM      4  C   UNL     1       2.418   3.925  -0.044  0.00  0.00    +0.025 A 
ATOM      5  S   UNL     1       2.726   5.612   0.409  0.00  0.00    -0.083 S 
ATOM      6  C   UNL     1       1.155   3.191  -0.003  0.00  0.00    +0.004 A 
ATOM      7  C   UNL     1      -0.070   3.858   0.017  0.00  0.00    +0.030 A 
ATOM      8  C   UNL     1      -1.247   3.136   0.030  0.00  0.00    +0.042 A 
ATOM      9  C   UNL     1      -1.218   1.750   0.017  0.00  0.00    +0.021 A 
ATOM     10  C   UNL     1      -0.013   1.076   0.008  0.00  0.00    +0.017 A 
ATOM     11  C   UNL     1       1.179   1.785   0.000  0.00  0.00    +0.016 A 
ATOM     12  S   UNL     1       2.723   0.940   0.008  0.00  0.00    -0.120 S 
ATOM     13  C   UNL     1       3.837   2.018  -0.930  0.00  0.00    +0.110 C 
ATOM     14 CL   UNL     1      -2.770   3.968   0.056  0.00  0.00    -0.084 Cl
ENDROOT
BRANCH   1  16
ATOM     15  N   UNL     1       4.998   7.949   0.648  0.00  0.00    -0.230 N 
ATOM     16  C   UNL     1       5.422   6.754   0.191  0.00  0.00    +0.267 C 
ATOM     17  O   UNL     1       6.593   6.596  -0.104  0.00  0.00    -0.268 OA
ATOM     18  H   UNL     1       4.066   8.075   0.883  0.00  0.00    +0.173 HD
BRANCH  15  22
ATOM     19  C   UNL     1       6.455  11.345   1.383  0.00  0.00    +0.110 C 
ATOM     20  C   UNL     1       5.481  10.205   1.239  0.00  0.00    +0.226 C 
ATOM     21  O   UNL     1       4.315  10.362   1.534  0.00  0.00    -0.275 OA
ATOM     22  N   UNL     1       5.904   9.009   0.782  0.00  0.00    -0.234 N 
ATOM     23  H   UNL     1       6.837   8.883   0.547  0.00  0.00    +0.173 HD
ENDBRANCH  15  22
ENDBRANCH   1  16
TORSDOF 2
