REMARK  Name = ZINC13567380
REMARK  8 active torsions:
REMARK  status: ('A' for Active; 'I' for Inactive)
REMARK    1  A    between atoms: C_1  and  O_2
REMARK    2  A    between atoms: O_2  and  C_3
REMARK    3  A    between atoms: C_6  and  C_11
REMARK    4  A    between atoms: C_8  and  O_9
REMARK    5  A    between atoms: O_9  and  C_10
REMARK    6  A    between atoms: C_22  and  S_24
REMARK    7  A    between atoms: S_24  and  C_25
REMARK    8  A    between atoms: C_25  and  C_26
REMARK                            x       y       z     vdW  Elec       q    Type
REMARK                         _______ _______ _______ _____ _____    ______ ____
ROOT
ATOM      1  C   UNL     1      -4.987  -2.627   0.035  0.00  0.00    +0.067 C 
ATOM      2  C   UNL     1      -5.764  -2.226   1.290  0.00  0.00    +0.109 C 
ATOM      3  C   UNL     1      -6.242  -0.804   1.166  0.00  0.00    +0.219 C 
ATOM      4  O   UNL     1      -6.285  -0.100   2.151  0.00  0.00    -0.275 OA
ATOM      5  N   UNL     1      -6.622  -0.305  -0.025  0.00  0.00    -0.270 N 
ATOM      6  C   UNL     1      -6.556  -1.085  -1.171  0.00  0.00    +0.137 A 
ATOM      7  C   UNL     1      -5.769  -2.230  -1.187  0.00  0.00    +0.067 A 
ATOM      8  C   UNL     1      -5.720  -2.993  -2.345  0.00  0.00    +0.280 A 
ATOM      9  O   UNL     1      -4.962  -4.115  -2.400  0.00  0.00    -0.265 OA
ATOM     10  N   UNL     1      -6.429  -2.603  -3.401  0.00  0.00    -0.183 NA
ATOM     11  C   UNL     1      -7.171  -1.505  -3.352  0.00  0.00    +0.194 A 
ATOM     12  N   UNL     1      -7.238  -0.754  -2.262  0.00  0.00    -0.206 NA
ATOM     13  H   UNL     1      -6.946   0.608  -0.082  0.00  0.00    +0.156 HD
ENDROOT
BRANCH   1  17
ATOM     14  C   UNL     1      -1.201  -0.638   0.010  0.00  0.00    +0.162 A 
ATOM     15  C   UNL     1      -2.374   0.099   0.019  0.00  0.00    +0.050 A 
ATOM     16  C   UNL     1      -3.596  -0.546   0.027  0.00  0.00    +0.008 A 
ATOM     17  C   UNL     1      -3.652  -1.928   0.026  0.00  0.00    -0.036 A 
ATOM     18  C   UNL     1      -2.485  -2.669   0.017  0.00  0.00    +0.053 A 
ATOM     19  C   UNL     1      -1.257  -2.028   0.003  0.00  0.00    +0.162 A 
BRANCH  14  21
ATOM     20  C   UNL     1      -0.017   1.425   0.010  0.00  0.00    +0.277 C 
ATOM     21  O   UNL     1       0.002  -0.004   0.002  0.00  0.00    -0.491 OA
ENDBRANCH  14  21
BRANCH  19  22
ATOM     22  O   UNL     1      -0.108  -2.756  -0.012  0.00  0.00    -0.491 OA
ATOM     23  C   UNL     1      -0.242  -4.179  -0.018  0.00  0.00    +0.277 C 
ENDBRANCH  19  22
ENDBRANCH   1  17
BRANCH  11  24
ATOM     24  S   UNL     1      -8.093  -1.031  -4.777  0.00  0.00    -0.081 S 
BRANCH  24  25
ATOM     25  C   UNL     1      -7.706  -2.317  -5.997  0.00  0.00    +0.115 C 
BRANCH  25  26
ATOM     26  C   UNL     1      -8.441  -2.028  -7.281  0.00  0.00    -0.002 A 
ATOM     27  C   UNL     1      -9.710  -2.537  -7.481  0.00  0.00    +0.007 A 
ATOM     28  C   UNL     1     -10.384  -2.272  -8.658  0.00  0.00    +0.000 A 
ATOM     29  C   UNL     1      -9.789  -1.498  -9.637  0.00  0.00    +0.003 A 
ATOM     30  C   UNL     1      -8.520  -0.987  -9.439  0.00  0.00    +0.038 A 
ATOM     31  C   UNL     1      -7.846  -1.248  -8.258  0.00  0.00    +0.127 A 
ATOM     32  F   UNL     1      -6.608  -0.746  -8.061  0.00  0.00    -0.205 F 
ENDBRANCH  25  26
ENDBRANCH  24  25
ENDBRANCH  11  24
TORSDOF 6
