REMARK  Name = ZINC63686611
REMARK  9 active torsions:
REMARK  status: ('A' for Active; 'I' for Inactive)
REMARK    1  A    between atoms: C_1  and  C_2
REMARK    2  A    between atoms: C_6  and  O_9
REMARK    3  A    between atoms: C_7  and  C_8
REMARK    4  A    between atoms: O_9  and  C_10
REMARK    5  A    between atoms: C_10  and  C_11
REMARK    6  A    between atoms: C_15  and  S_19
REMARK    7  A    between atoms: N_17  and  C_18
REMARK    8  A    between atoms: S_19  and  C_20
REMARK    9  A    between atoms: C_20  and  C_21
REMARK                            x       y       z     vdW  Elec       q    Type
REMARK                         _______ _______ _______ _____ _____    ______ ____
ROOT
ATOM      1  C   UNL     1      -0.217  -5.105   3.587  0.00  0.00    +0.178 C 
ATOM      2  N   UNL     1       1.000  -4.797   4.372  0.00  0.00    -0.234 NA
ATOM      3  N   UNL     1       0.582  -3.731   5.295  0.00  0.00    -0.229 NA
ATOM      4  C   UNL     1      -0.802  -4.130   5.665  0.00  0.00    +0.200 C 
ATOM      5  N   UNL     1      -1.369  -4.682   4.411  0.00  0.00    -0.261 NA
ATOM      6  C   UNL     1      -2.261  -5.815   4.690  0.00  0.00    +0.109 C 
ATOM      7  H   UNL     1       1.747  -4.482   3.771  0.00  0.00    +0.142 HD
ATOM      8  H   UNL     1       0.588  -2.832   4.837  0.00  0.00    +0.143 HD
ENDROOT
BRANCH   1   9
ATOM      9  C   UNL     1      -0.203  -4.329   2.269  0.00  0.00    +0.265 C 
BRANCH   9  10
ATOM     10  O   UNL     1      -1.354  -4.676   1.498  0.00  0.00    -0.489 OA
BRANCH  10  16
ATOM     11  C   UNL     1      -3.679  -4.416  -2.785  0.00  0.00    +0.044 C 
ATOM     12  C   UNL     1      -2.561  -3.998  -1.866  0.00  0.00    -0.044 A 
ATOM     13  C   UNL     1      -1.622  -3.077  -2.295  0.00  0.00    +0.004 A 
ATOM     14  C   UNL     1      -0.595  -2.691  -1.454  0.00  0.00    +0.004 A 
ATOM     15  C   UNL     1      -0.503  -3.225  -0.184  0.00  0.00    +0.046 A 
ATOM     16  C   UNL     1      -1.443  -4.149   0.249  0.00  0.00    +0.124 A 
ATOM     17  C   UNL     1      -2.477  -4.530  -0.595  0.00  0.00    -0.006 A 
ATOM     18  C   UNL     1      -3.503  -5.529  -0.126  0.00  0.00    +0.048 C 
ENDBRANCH  10  16
ENDBRANCH   9  10
ENDBRANCH   1   9
BRANCH   4  19
ATOM     19  S   UNL     1      -1.754  -2.687   6.215  0.00  0.00    -0.119 S 
BRANCH  19  20
ATOM     20  C   UNL     1      -1.841  -1.632   4.742  0.00  0.00    +0.125 C 
BRANCH  20  21
ATOM     21  C   UNL     1      -2.511  -0.329   5.096  0.00  0.00    +0.030 A 
ATOM     22  N   UNL     1      -3.853  -0.317   5.280  0.00  0.00    -0.356 N 
ATOM     23  C   UNL     1      -4.526   0.840   5.605  0.00  0.00    +0.069 A 
ATOM     24  C   UNL     1      -3.810   2.041   5.751  0.00  0.00    +0.046 A 
ATOM     25  C   UNL     1      -4.481   3.219   6.078  0.00  0.00    +0.014 A 
ATOM     26  C   UNL     1      -5.836   3.200   6.257  0.00  0.00    +0.002 A 
ATOM     27  C   UNL     1      -6.550   2.019   6.115  0.00  0.00    +0.022 A 
ATOM     28  C   UNL     1      -5.907   0.843   5.791  0.00  0.00    +0.065 A 
ATOM     29 CL   UNL     1      -6.813  -0.627   5.616  0.00  0.00    -0.081 Cl
ATOM     30  C   UNL     1      -2.351   2.017   5.549  0.00  0.00    +0.190 A 
ATOM     31  O   UNL     1      -1.682   3.030   5.664  0.00  0.00    -0.287 OA
ATOM     32  C   UNL     1      -1.751   0.778   5.223  0.00  0.00    +0.073 A 
ATOM     33  H   UNL     1      -4.352  -1.142   5.181  0.00  0.00    +0.166 HD
ENDBRANCH  20  21
ENDBRANCH  19  20
ENDBRANCH   4  19
TORSDOF 6
