REMARK  Name = ZINC01872092
REMARK  11 active torsions:
REMARK  status: ('A' for Active; 'I' for Inactive)
REMARK    1  A    between atoms: C_1  and  C_2
REMARK    2  A    between atoms: C_5  and  N_8
REMARK    3  A    between atoms: C_17  and  S_18
REMARK    4  A    between atoms: S_18  and  C_19
REMARK    5  A    between atoms: C_19  and  C_20
REMARK    6  A    between atoms: N_22  and  N_23
REMARK    7  A    between atoms: N_23  and  C_24
REMARK    8  A    between atoms: C_24  and  C_26
REMARK    9  A    between atoms: C_29  and  O_32
REMARK   10  A    between atoms: O_32  and  C_33
REMARK   11  A    between atoms: C_33  and  C_35
REMARK                            x       y       z     vdW  Elec       q    Type
REMARK                         _______ _______ _______ _____ _____    ______ ____
ROOT
ATOM      1  N   UNL     1      -0.179  -4.221  -0.005  0.00  0.00    -0.255 N 
ATOM      2  C   UNL     1      -0.062  -4.890   1.157  0.00  0.00    +0.268 A 
ATOM      3  O   UNL     1      -0.028  -4.287   2.216  0.00  0.00    -0.267 OA
ATOM      4  C   UNL     1       0.020  -6.318   1.133  0.00  0.00    +0.076 A 
ATOM      5  C   UNL     1       0.151  -7.239   2.264  0.00  0.00    -0.023 A 
ATOM      6  C   UNL     1       0.208  -8.555   1.978  0.00  0.00    -0.004 A 
ATOM      7  S   UNL     1       0.093  -8.648   0.211  0.00  0.00    -0.073 S 
ATOM      8  C   UNL     1      -0.031  -6.913  -0.140  0.00  0.00    +0.117 A 
ATOM      9  N   UNL     1      -0.146  -6.196  -1.251  0.00  0.00    -0.215 NA
ATOM     10  C   UNL     1      -0.226  -4.881  -1.201  0.00  0.00    +0.178 A 
ATOM     11  C   UNL     1       0.342  -9.690   2.947  0.00  0.00    +0.043 C 
ATOM     12  C   UNL     1       0.778  -9.119   4.304  0.00  0.00    +0.005 C 
ATOM     13  C   UNL     1      -0.110  -7.917   4.640  0.00  0.00    +0.005 C 
ATOM     14  C   UNL     1       0.221  -6.751   3.708  0.00  0.00    +0.037 C 
ENDROOT
BRANCH   1  19
ATOM     15  C   UNL     1      -0.507   1.444   0.062  0.00  0.00    +0.044 C 
ATOM     16  C   UNL     1      -0.420  -0.061   0.044  0.00  0.00    -0.050 A 
ATOM     17  C   UNL     1       0.815  -0.680  -0.010  0.00  0.00    +0.005 A 
ATOM     18  C   UNL     1       0.898  -2.058  -0.026  0.00  0.00    +0.026 A 
ATOM     19  C   UNL     1      -0.260  -2.823   0.012  0.00  0.00    +0.052 A 
ATOM     20  C   UNL     1      -1.499  -2.198   0.067  0.00  0.00    +0.026 A 
ATOM     21  C   UNL     1      -1.575  -0.819   0.088  0.00  0.00    +0.005 A 
ENDBRANCH   1  19
BRANCH  10  22
ATOM     22  S   UNL     1      -0.388  -3.962  -2.696  0.00  0.00    -0.078 S 
BRANCH  22  23
ATOM     23  C   UNL     1      -0.406  -5.231  -3.991  0.00  0.00    +0.174 C 
BRANCH  23  24
ATOM     24  C   UNL     1      -0.541  -4.571  -5.339  0.00  0.00    +0.239 C 
ATOM     25  O   UNL     1      -0.618  -3.363  -5.418  0.00  0.00    -0.273 OA
ATOM     26  N   UNL     1      -0.577  -5.323  -6.457  0.00  0.00    -0.236 N 
ATOM     27  H   UNL     1      -0.516  -6.289  -6.394  0.00  0.00    +0.173 HD
BRANCH  26  28
ATOM     28  N   UNL     1      -0.703  -4.709  -7.710  0.00  0.00    -0.264 N 
ATOM     29  H   UNL     1      -0.765  -3.743  -7.773  0.00  0.00    +0.170 HD
BRANCH  28  30
ATOM     30  C   UNL     1      -0.740  -5.488  -8.868  0.00  0.00    +0.044 C 
ATOM     31  C   UNL     1      -0.656  -6.816  -8.781  0.00  0.00    +0.035 C 
BRANCH  30  32
ATOM     32  C   UNL     1      -0.874  -4.839 -10.192  0.00  0.00    -0.003 A 
ATOM     33  C   UNL     1      -0.956  -3.450 -10.285  0.00  0.00    +0.013 A 
ATOM     34  C   UNL     1      -1.080  -2.849 -11.520  0.00  0.00    +0.047 A 
ATOM     35  C   UNL     1      -1.122  -3.625 -12.670  0.00  0.00    +0.132 A 
ATOM     36  C   UNL     1      -1.041  -5.008 -12.582  0.00  0.00    +0.047 A 
ATOM     37  C   UNL     1      -0.911  -5.615 -11.350  0.00  0.00    +0.013 A 
BRANCH  35  38
ATOM     38  O   UNL     1      -1.244  -3.030 -13.886  0.00  0.00    -0.426 OA
BRANCH  38  39
ATOM     39  C   UNL     1      -0.151  -2.468 -14.425  0.00  0.00    +0.309 C 
ATOM     40  O   UNL     1       0.919  -2.577 -13.874  0.00  0.00    -0.251 OA
ATOM     41  C   UNL     1      -0.257  -1.702 -15.719  0.00  0.00    +0.136 C 
ENDBRANCH  38  39
ENDBRANCH  35  38
ENDBRANCH  30  32
ENDBRANCH  28  30
ENDBRANCH  26  28
ENDBRANCH  23  24
ENDBRANCH  22  23
ENDBRANCH  10  22
TORSDOF 9
