REMARK  Name = ZINC06680185
REMARK  8 active torsions:
REMARK  status: ('A' for Active; 'I' for Inactive)
REMARK    1  A    between atoms: C_1  and  C_2
REMARK    2  A    between atoms: C_5  and  N_9
REMARK    3  A    between atoms: C_6  and  C_8
REMARK    4  A    between atoms: N_9  and  S_10
REMARK    5  A    between atoms: S_10  and  C_13
REMARK    6  A    between atoms: C_15  and  C_19
REMARK    7  A    between atoms: C_17  and  C_18
REMARK    8  A    between atoms: C_24  and  C_27
REMARK                            x       y       z     vdW  Elec       q    Type
REMARK                         _______ _______ _______ _____ _____    ______ ____
ROOT
ATOM      1  C   UNL     1       2.437   0.147  -2.429  0.00  0.00    +0.119 A 
ATOM      2  C   UNL     1       3.431  -0.113  -3.339  0.00  0.00    +0.049 A 
ATOM      3  C   UNL     1       3.217   0.303  -4.644  0.00  0.00    +0.076 A 
ATOM      4  S   UNL     1       1.602   1.053  -4.529  0.00  0.00    -0.087 S 
ATOM      5  C   UNL     1       1.309   0.782  -2.842  0.00  0.00    +0.014 A 
ATOM      6  C   UNL     1       0.098   1.162  -2.029  0.00  0.00    +0.053 C 
ENDROOT
BRANCH   3   7
ATOM      7  C   UNL     1       4.089   0.164  -5.813  0.00  0.00    +0.256 C 
ATOM      8  O   UNL     1       5.171  -0.384  -5.704  0.00  0.00    -0.269 OA
ATOM      9  N   UNL     1       3.694   0.641  -7.010  0.00  0.00    -0.263 N 
ATOM     10  C   UNL     1       4.523   0.509  -8.122  0.00  0.00    +0.168 A 
ATOM     11  C   UNL     1       5.806  -0.100  -8.161  0.00  0.00    +0.091 A 
ATOM     12  C   UNL     1       6.188   0.025  -9.452  0.00  0.00    +0.136 A 
ATOM     13  O   UNL     1       5.190   0.658 -10.087  0.00  0.00    -0.358 OA
ATOM     14  N   UNL     1       4.275   0.914  -9.340  0.00  0.00    -0.063 NA
ATOM     15  C   UNL     1       7.481  -0.453 -10.060  0.00  0.00    +0.089 C 
ATOM     16  H   UNL     1       2.832   1.077  -7.097  0.00  0.00    +0.157 HD
ENDBRANCH   3   7
BRANCH   1  17
ATOM     17  S   UNL     1       2.619  -0.344  -0.746  0.00  0.00    +0.073 S 
ATOM     18  O   UNL     1       2.303   0.793   0.045  0.00  0.00    -0.150 OA
ATOM     19  O   UNL     1       3.868  -1.015  -0.652  0.00  0.00    -0.150 OA
BRANCH  17  20
ATOM     20  N   UNL     1       1.449  -1.475  -0.438  0.00  0.00    -0.216 N 
ATOM     21  H   UNL     1       0.785  -1.312   0.251  0.00  0.00    +0.174 HD
BRANCH  20  26
ATOM     22  C   UNL     1       1.324  -6.308  -3.403  0.00  0.00    +0.044 C 
ATOM     23  C   UNL     1       1.357  -5.023  -2.615  0.00  0.00    -0.050 A 
ATOM     24  C   UNL     1       2.571  -4.443  -2.292  0.00  0.00    +0.005 A 
ATOM     25  C   UNL     1       2.605  -3.269  -1.565  0.00  0.00    +0.025 A 
ATOM     26  C   UNL     1       1.418  -2.665  -1.168  0.00  0.00    +0.051 A 
ATOM     27  C   UNL     1       0.202  -3.248  -1.499  0.00  0.00    -0.028 A 
ATOM     28  C   UNL     1       0.175  -4.425  -2.221  0.00  0.00    +0.008 A 
ATOM     29  C   UNL     1      -1.088  -2.596  -1.070  0.00  0.00    +0.046 C 
ENDBRANCH  20  26
ENDBRANCH  17  20
ENDBRANCH   1  17
TORSDOF 4
