REMARK  Name = ZINC49036801
REMARK  3 active torsions:
REMARK  status: ('A' for Active; 'I' for Inactive)
REMARK    1  A    between atoms: C_5  and  C_7
REMARK    2  A    between atoms: C_12  and  C_14
REMARK    3  A    between atoms: N_16  and  C_17
REMARK                            x       y       z     vdW  Elec       q    Type
REMARK                         _______ _______ _______ _____ _____    ______ ____
ROOT
ATOM      1  C   UNL     1       2.067  -3.612  -1.896  0.00  0.00    +0.219 C 
ATOM      2  O   UNL     1       2.995  -3.850  -1.152  0.00  0.00    -0.275 OA
ATOM      3  N   UNL     1       2.052  -4.130  -3.140  0.00  0.00    -0.284 N 
ATOM      4  H   UNL     1       1.342  -3.891  -3.757  0.00  0.00    +0.155 HD
ENDROOT
BRANCH   3   5
ATOM      5  C   UNL     1       3.058  -5.011  -3.543  0.00  0.00    +0.052 A 
ATOM      6  C   UNL     1       3.647  -5.851  -2.613  0.00  0.00    +0.033 A 
ATOM      7  C   UNL     1       4.650  -6.727  -3.023  0.00  0.00    -0.010 A 
ATOM      8  C   UNL     1       5.310  -7.641  -2.087  0.00  0.00    +0.026 A 
ATOM      9  C   UNL     1       6.270  -8.464  -2.537  0.00  0.00    +0.086 A 
ATOM     10  N   UNL     1       6.662  -8.485  -3.846  0.00  0.00    -0.329 N 
ATOM     11  H   UNL     1       7.361  -9.101  -4.115  0.00  0.00    +0.168 HD
ATOM     12  C   UNL     1       6.110  -7.681  -4.776  0.00  0.00    +0.257 A 
ATOM     13  O   UNL     1       6.487  -7.729  -5.933  0.00  0.00    -0.267 OA
ATOM     14  C   UNL     1       5.053  -6.747  -4.379  0.00  0.00    +0.048 A 
ATOM     15  C   UNL     1       4.444  -5.889  -5.297  0.00  0.00    +0.035 A 
ATOM     16  C   UNL     1       3.458  -5.040  -4.881  0.00  0.00    +0.063 A 
ATOM     17 CL   UNL     1       2.698  -3.980  -6.027  0.00  0.00    -0.082 Cl
ENDBRANCH   3   5
BRANCH   1  22
ATOM     18  C   UNL     1       1.176  -2.271   0.020  0.00  0.00    +0.031 C 
ATOM     19  C   UNL     1      -0.007  -2.839   0.832  0.00  0.00    -0.072 C 
ATOM     20  N   UNL     1      -0.479  -4.004   0.041  0.00  0.00    +0.380 N 
ATOM     21  C   UNL     1      -0.383  -3.550  -1.370  0.00  0.00    -0.069 C 
ATOM     22  C   UNL     1       0.932  -2.739  -1.429  0.00  0.00    +0.065 C 
ATOM     23  H   UNL     1       0.118  -4.802   0.197  0.00  0.00    -0.086 HD
ATOM     24  H   UNL     1      -1.435  -4.226   0.276  0.00  0.00    -0.086 HD
BRANCH  18  29
ATOM     25  C   UNL     1       0.338   1.345  -0.640  0.00  0.00    +0.003 A 
ATOM     26  C   UNL     1       1.225   1.950   0.238  0.00  0.00    +0.020 A 
ATOM     27  C   UNL     1       2.057   1.159   1.007  0.00  0.00    +0.111 A 
ATOM     28  N   UNL     1       2.015  -0.155   0.913  0.00  0.00    -0.260 NA
ATOM     29  C   UNL     1       1.184  -0.765   0.089  0.00  0.00    +0.043 A 
ATOM     30  C   UNL     1       0.322  -0.040  -0.711  0.00  0.00    +0.023 A 
ENDBRANCH  18  29
ENDBRANCH   1  22
TORSDOF 3
