REMARK  Name = ZINC39670063
REMARK  6 active torsions:
REMARK  status: ('A' for Active; 'I' for Inactive)
REMARK    1  A    between atoms: C_1  and  C_2
REMARK    2  A    between atoms: C_7  and  C_11
REMARK    3  A    between atoms: C_11  and  N_12
REMARK    4  A    between atoms: C_13  and  C_15
REMARK    5  A    between atoms: C_26  and  C_28
REMARK    6  A    between atoms: C_31  and  C_35
REMARK                            x       y       z     vdW  Elec       q    Type
REMARK                         _______ _______ _______ _____ _____    ______ ____
ROOT
ATOM      1  C   UNL     1       2.574  -7.473   3.812  0.00  0.00    +0.100 C 
ATOM      2  C   UNL     1       3.371  -6.338   4.494  0.00  0.00    +0.121 C 
ATOM      3  N   UNL     1       3.407  -6.714   5.927  0.00  0.00    -0.296 N 
ATOM      4  C   UNL     1       3.602  -8.183   5.918  0.00  0.00    +0.115 C 
ATOM      5  C   UNL     1       2.730  -8.683   4.749  0.00  0.00    -0.004 C 
ATOM      6  C   UNL     1       1.367  -9.133   5.263  0.00  0.00    -0.010 C 
ATOM      7  C   UNL     1       1.543 -10.371   6.146  0.00  0.00    -0.082 C 
ATOM      8  N   UNL     1       2.173 -11.444   5.367  0.00  0.00    +0.379 N 
ATOM      9  C   UNL     1       3.521 -11.038   4.954  0.00  0.00    -0.082 C 
ATOM     10  C   UNL     1       3.429  -9.827   4.021  0.00  0.00    -0.010 C 
ATOM     11  C   UNL     1       3.288  -5.902   6.997  0.00  0.00    +0.249 C 
ATOM     12  O   UNL     1       3.432  -6.350   8.118  0.00  0.00    -0.270 OA
ATOM     13  H   UNL     1       2.232 -12.278   5.932  0.00  0.00    -0.086 HD
ATOM     14  H   UNL     1       1.615 -11.635   4.548  0.00  0.00    -0.086 HD
ENDROOT
BRANCH  11  15
ATOM     15  C   UNL     1       2.983  -4.470   6.807  0.00  0.00    +0.072 A 
ATOM     16  C   UNL     1       3.498  -3.783   5.705  0.00  0.00    +0.016 A 
ATOM     17  C   UNL     1       3.209  -2.446   5.533  0.00  0.00    +0.013 A 
ATOM     18  C   UNL     1       2.412  -1.782   6.450  0.00  0.00    +0.058 A 
ATOM     19  C   UNL     1       1.898  -2.453   7.544  0.00  0.00    +0.051 A 
ATOM     20  C   UNL     1       2.174  -3.796   7.726  0.00  0.00    +0.136 A 
ATOM     21  F   UNL     1       1.667  -4.453   8.793  0.00  0.00    -0.205 F 
BRANCH  18  22
ATOM     22  C   UNL     1       2.102  -0.320   6.254  0.00  0.00    +0.418 C 
ATOM     23  F   UNL     1       0.935  -0.188   5.494  0.00  0.00    -0.166 F 
ATOM     24  F   UNL     1       1.918   0.289   7.500  0.00  0.00    -0.166 F 
ATOM     25  F   UNL     1       3.166   0.296   5.587  0.00  0.00    -0.166 F 
ENDBRANCH  18  22
ENDBRANCH  11  15
BRANCH   1  27
ATOM     26  N   UNL     1       0.371  -7.611   2.695  0.00  0.00    -0.309 N 
ATOM     27  C   UNL     1       1.121  -7.091   3.687  0.00  0.00    +0.219 C 
ATOM     28  O   UNL     1       0.627  -6.316   4.478  0.00  0.00    -0.275 OA
ATOM     29  H   UNL     1       0.766  -8.230   2.062  0.00  0.00    +0.149 HD
BRANCH  26  30
ATOM     30  C   UNL     1      -1.041  -7.240   2.573  0.00  0.00    +0.159 C 
BRANCH  30  37
ATOM     31  C   UNL     1      -3.459  -9.561  -4.031  0.00  0.00    +0.044 C 
ATOM     32  C   UNL     1      -3.184  -9.497  -2.551  0.00  0.00    -0.046 A 
ATOM     33  C   UNL     1      -3.647 -10.517  -1.703  0.00  0.00    +0.021 A 
ATOM     34  C   UNL     1      -3.403 -10.463  -0.377  0.00  0.00    +0.093 A 
ATOM     35  N   UNL     1      -2.705  -9.420   0.159  0.00  0.00    -0.308 N 
ATOM     36  C   UNL     1      -2.325  -9.121   1.439  0.00  0.00    +0.115 A 
ATOM     37  C   UNL     1      -1.647  -7.953   1.392  0.00  0.00    +0.051 A 
ATOM     38  N   UNL     1      -1.605  -7.536   0.124  0.00  0.00    -0.342 N 
ATOM     39  C   UNL     1      -2.240  -8.410  -0.643  0.00  0.00    +0.116 A 
ATOM     40  C   UNL     1      -2.482  -8.455  -2.031  0.00  0.00    +0.048 A 
ATOM     41  H   UNL     1      -1.177  -6.722  -0.186  0.00  0.00    +0.167 HD
ENDBRANCH  30  37
ENDBRANCH  26  30
ENDBRANCH   1  27
TORSDOF 5
