REMARK  Name = ZINC11965436
REMARK  8 active torsions:
REMARK  status: ('A' for Active; 'I' for Inactive)
REMARK    1  A    between atoms: C_1  and  C_2
REMARK    2  A    between atoms: C_5  and  C_8
REMARK    3  A    between atoms: C_8  and  C_9
REMARK    4  A    between atoms: C_9  and  N_63
REMARK    5  A    between atoms: C_10  and  N_63
REMARK    6  A    between atoms: C_20  and  C_32
REMARK    7  A    between atoms: C_24  and  S_28
REMARK    8  A    between atoms: S_28  and  C_31
REMARK                            x       y       z     vdW  Elec       q    Type
REMARK                         _______ _______ _______ _____ _____    ______ ____
ROOT
ATOM      1  C   UNL     1      -1.563  10.030   0.501  0.00  0.00    -0.070 C 
ATOM      2  C   UNL     1      -0.396  10.156  -0.504  0.00  0.00    -0.014 C 
ATOM      3  C   UNL     1       0.380   8.923  -0.584  0.00  0.00    +0.017 C 
ATOM      4  C   UNL     1      -0.456   7.726  -1.073  0.00  0.00    +0.108 C 
ATOM      5  N   UNL     1      -1.198   7.203   0.048  0.00  0.00    -0.300 N 
ATOM      6  C   UNL     1      -2.577   7.731   0.146  0.00  0.00    +0.106 C 
ATOM      7  C   UNL     1      -2.673   9.240  -0.139  0.00  0.00    +0.003 C 
ATOM      8  C   UNL     1      -1.196   5.820   0.042  0.00  0.00    +0.219 A 
ATOM      9  N   UNL     1      -2.364   5.179   0.049  0.00  0.00    -0.219 NA
ATOM     10  C   UNL     1      -2.428   3.864   0.043  0.00  0.00    +0.051 A 
ATOM     11  C   UNL     1      -1.226   3.133   0.030  0.00  0.00    +0.022 A 
ATOM     12  C   UNL     1      -1.207   1.731   0.017  0.00  0.00    +0.013 A 
ATOM     13  C   UNL     1      -0.013   1.076   0.008  0.00  0.00    +0.028 A 
ATOM     14  C   UNL     1       1.190   1.779   0.000  0.00  0.00    +0.090 A 
ATOM     15  C   UNL     1       1.209   3.141   0.007  0.00  0.00    +0.055 A 
ATOM     16  C   UNL     1      -0.002   3.850   0.022  0.00  0.00    +0.078 A 
ATOM     17  N   UNL     1      -0.039   5.188   0.029  0.00  0.00    -0.214 NA
ATOM     18  C   UNL     1      -3.760   3.158   0.051  0.00  0.00    +0.066 C 
ENDROOT
BRANCH  14  19
ATOM     19  S   UNL     1       2.712   0.892  -0.018  0.00  0.00    -0.006 S 
ATOM     20  O   UNL     1       3.653   1.773   0.580  0.00  0.00    -0.170 OA
ATOM     21  O   UNL     1       2.410  -0.361   0.581  0.00  0.00    -0.170 OA
ATOM     22  C   UNL     1       3.099   0.666  -1.776  0.00  0.00    +0.200 C 
ENDBRANCH  14  19
BRANCH   1  23
ATOM     23  N   UNL     1      -2.052  11.378   0.849  0.00  0.00    +0.381 N 
ATOM     24  H   UNL     1      -1.260  12.031   0.869  0.00  0.00    -0.086 HD
ATOM     25  H   UNL     1      -2.731  11.685   0.143  0.00  0.00    -0.086 HD
BRANCH  23  26
ATOM     26  C   UNL     1      -2.701  11.361   2.173  0.00  0.00    -0.078 C 
BRANCH  26  27
ATOM     27  C   UNL     1      -3.197  12.769   2.507  0.00  0.00    +0.016 C 
BRANCH  27  32
ATOM     28  C   UNL     1      -5.748  12.736   7.692  0.00  0.00    +0.044 C 
ATOM     29  C   UNL     1      -5.083  12.745   6.340  0.00  0.00    -0.050 A 
ATOM     30  C   UNL     1      -3.728  12.996   6.238  0.00  0.00    +0.003 A 
ATOM     31  C   UNL     1      -3.118  13.004   4.997  0.00  0.00    +0.004 A 
ATOM     32  C   UNL     1      -3.863  12.760   3.859  0.00  0.00    -0.049 A 
ATOM     33  C   UNL     1      -5.219  12.515   3.960  0.00  0.00    +0.004 A 
ATOM     34  C   UNL     1      -5.829  12.502   5.201  0.00  0.00    +0.003 A 
ENDBRANCH  27  32
ENDBRANCH  26  27
ENDBRANCH  23  26
ENDBRANCH   1  23
TORSDOF 5
