REMARK  Name = ZINC00854862
REMARK  8 active torsions:
REMARK  status: ('A' for Active; 'I' for Inactive)
REMARK    1  A    between atoms: C_1  and  C_2
REMARK    2  A    between atoms: C_2  and  C_3
REMARK    3  A    between atoms: C_2  and  C_4
REMARK    4  A    between atoms: C_2  and  C_5
REMARK    5  A    between atoms: C_8  and  C_10
REMARK    6  A    between atoms: C_8  and  O_14
REMARK    7  A    between atoms: C_15  and  C_17
REMARK    8  A    between atoms: C_20  and  N_23
REMARK                            x       y       z     vdW  Elec       q    Type
REMARK                         _______ _______ _______ _____ _____    ______ ____
ROOT
ATOM      1  C   UNL     1      -0.013   1.266   0.025  0.00  0.00    +0.047 C 
ATOM      2  N   UNL     1       0.003  -0.003   0.009  0.00  0.00    -0.183 NA
ATOM      3  N   UNL     1       1.279  -0.564  -0.005  0.00  0.00    -0.148 N 
ATOM      4  C   UNL     1       2.272   0.522   0.005  0.00  0.00    +0.257 C 
ATOM      5  C   UNL     1       1.403   1.796   0.025  0.00  0.00    +0.119 C 
ATOM      6  C   UNL     1       1.557  -1.883  -0.023  0.00  0.00    +0.269 C 
ATOM      7  O   UNL     1       2.707  -2.260  -0.136  0.00  0.00    -0.268 OA
ENDROOT
BRANCH   6   8
ATOM      8  C   UNL     1       0.463  -2.870   0.093  0.00  0.00    +0.039 A 
ATOM      9  C   UNL     1      -0.866  -2.445   0.115  0.00  0.00    +0.015 A 
ATOM     10  C   UNL     1      -1.882  -3.372   0.220  0.00  0.00    +0.033 A 
ATOM     11  C   UNL     1      -1.586  -4.721   0.314  0.00  0.00    +0.126 A 
ATOM     12  C   UNL     1      -0.270  -5.149   0.297  0.00  0.00    +0.033 A 
ATOM     13  C   UNL     1       0.755  -4.232   0.188  0.00  0.00    +0.015 A 
BRANCH  11  14
ATOM     14  N   UNL     1      -2.681  -5.709   0.432  0.00  0.00    +0.056 N 
ATOM     15  O   UNL     1      -2.423  -6.897   0.515  0.00  0.00    -0.126 OA
ATOM     16  O   UNL     1      -3.840  -5.336   0.447  0.00  0.00    -0.126 OA
ENDBRANCH  11  14
ENDBRANCH   6   8
BRANCH   1  18
ATOM     17  C   UNL     1      -2.492   1.215   0.026  0.00  0.00    +0.017 C 
ATOM     18  C   UNL     1      -1.257   2.117   0.037  0.00  0.00    +0.002 C 
ATOM     19  C   UNL     1      -1.270   2.985   1.297  0.00  0.00    +0.017 C 
ATOM     20  C   UNL     1      -1.271   3.016  -1.201  0.00  0.00    +0.017 C 
ENDBRANCH   1  18
BRANCH   4  21
ATOM     21  C   UNL     1       3.146   0.444   1.258  0.00  0.00    +0.438 C 
ATOM     22  F   UNL     1       3.842  -0.769   1.267  0.00  0.00    -0.166 F 
ATOM     23  F   UNL     1       4.058   1.506   1.258  0.00  0.00    -0.166 F 
ATOM     24  F   UNL     1       2.336   0.525   2.396  0.00  0.00    -0.166 F 
ENDBRANCH   4  21
BRANCH   4  25
ATOM     25  O   UNL     1       3.077   0.480  -1.176  0.00  0.00    -0.363 OA
ATOM     26  H   UNL     1       3.589  -0.335  -1.274  0.00  0.00    +0.212 HD
ENDBRANCH   4  25
TORSDOF 5
