REMARK  Name = ZINC10494817
REMARK  13 active torsions:
REMARK  status: ('A' for Active; 'I' for Inactive)
REMARK    1  A    between atoms: C_1  and  C_2
REMARK    2  A    between atoms: C_2  and  C_3
REMARK    3  A    between atoms: C_2  and  C_4
REMARK    4  A    between atoms: C_2  and  C_5
REMARK    5  A    between atoms: C_8  and  C_11
REMARK    6  A    between atoms: C_14  and  S_16
REMARK    7  A    between atoms: S_16  and  C_17
REMARK    8  A    between atoms: C_17  and  C_18
REMARK    9  A    between atoms: C_18  and  C_20
REMARK   10  A    between atoms: C_18  and  O_30
REMARK   11  A    between atoms: C_20  and  O_21
REMARK   12  A    between atoms: O_21  and  C_22
REMARK   13  A    between atoms: C_25  and  C_28
REMARK                            x       y       z     vdW  Elec       q    Type
REMARK                         _______ _______ _______ _____ _____    ______ ____
ROOT
ATOM      1  C   UNL     1       2.695  -1.859  -4.732  0.00  0.00    +0.249 A 
ATOM      2  N   UNL     1       2.179  -2.609  -5.675  0.00  0.00    -0.106 NA
ATOM      3  N   UNL     1       3.066  -2.829  -6.581  0.00  0.00    -0.101 NA
ATOM      4  C   UNL     1       4.185  -2.226  -6.251  0.00  0.00    +0.278 A 
ATOM      5  O   UNL     1       3.974  -1.597  -5.080  0.00  0.00    -0.411 OA
ENDROOT
BRANCH   1   9
ATOM      6  C   UNL     1       0.707  -0.490  -1.238  0.00  0.00    -0.042 A 
ATOM      7  C   UNL     1       0.033  -1.285  -2.147  0.00  0.00    +0.005 A 
ATOM      8  C   UNL     1       0.672  -1.733  -3.285  0.00  0.00    +0.013 A 
ATOM      9  C   UNL     1       2.003  -1.382  -3.517  0.00  0.00    +0.039 A 
ATOM     10  C   UNL     1       2.679  -0.580  -2.595  0.00  0.00    +0.013 A 
ATOM     11  C   UNL     1       2.025  -0.135  -1.464  0.00  0.00    +0.005 A 
BRANCH   6  13
ATOM     12  C   UNL     1      -0.019   1.526   0.010  0.00  0.00    +0.015 C 
ATOM     13  C   UNL     1       0.002  -0.004   0.002  0.00  0.00    -0.013 C 
ATOM     14  C   UNL     1       0.742  -0.511   1.242  0.00  0.00    +0.015 C 
ATOM     15  C   UNL     1      -1.433  -0.534   0.013  0.00  0.00    +0.015 C 
ENDBRANCH   6  13
ENDBRANCH   1   9
BRANCH   4  16
ATOM     16  S   UNL     1       5.685  -2.235  -7.176  0.00  0.00    -0.063 S 
BRANCH  16  17
ATOM     17  C   UNL     1       5.297  -3.245  -8.632  0.00  0.00    +0.113 C 
BRANCH  17  18
ATOM     18  C   UNL     1       6.531  -3.336  -9.533  0.00  0.00    +0.162 C 
BRANCH  18  19
ATOM     19  O   UNL     1       7.569  -4.042  -8.849  0.00  0.00    -0.388 OA
ATOM     20  H   UNL     1       7.331  -4.945  -8.598  0.00  0.00    +0.210 HD
ENDBRANCH  18  19
BRANCH  18  21
ATOM     21  C   UNL     1       6.169  -4.081 -10.819  0.00  0.00    +0.261 C 
BRANCH  21  22
ATOM     22  O   UNL     1       7.287  -4.065 -11.709  0.00  0.00    -0.489 OA
BRANCH  22  23
ATOM     23  C   UNL     1       7.131  -4.687 -12.905  0.00  0.00    +0.121 A 
ATOM     24  C   UNL     1       5.922  -5.297 -13.217  0.00  0.00    +0.047 A 
ATOM     25  C   UNL     1       5.760  -5.929 -14.430  0.00  0.00    +0.022 A 
ATOM     26  C   UNL     1       6.813  -5.958 -15.347  0.00  0.00    +0.052 A 
ATOM     27  C   UNL     1       8.028  -5.343 -15.030  0.00  0.00    +0.022 A 
ATOM     28  C   UNL     1       8.180  -4.708 -13.817  0.00  0.00    +0.047 A 
BRANCH  26  29
ATOM     29  C   UNL     1       6.649  -6.614 -16.609  0.00  0.00    +0.099 C 
ATOM     30  N   UNL     1       6.519  -7.135 -17.610  0.00  0.00    -0.191 NA
ENDBRANCH  26  29
ENDBRANCH  22  23
ENDBRANCH  21  22
ENDBRANCH  18  21
ENDBRANCH  17  18
ENDBRANCH  16  17
ENDBRANCH   4  16
TORSDOF 10
