REMARK  Name = ZINC40551200
REMARK  2 active torsions:
REMARK  status: ('A' for Active; 'I' for Inactive)
REMARK    1  A    between atoms: C_7  and  N_10
REMARK    2  A    between atoms: C_17  and  C_19
REMARK                            x       y       z     vdW  Elec       q    Type
REMARK                         _______ _______ _______ _____ _____    ______ ____
ROOT
ATOM      1  N   UNL     1       0.051   0.002  -2.448  0.00  0.00    -0.298 N 
ATOM      2  C   UNL     1       0.190  -0.658  -3.615  0.00  0.00    +0.304 C 
ATOM      3  O   UNL     1       0.897  -1.645  -3.675  0.00  0.00    -0.253 OA
ATOM      4  N   UNL     1      -0.455  -0.224  -4.716  0.00  0.00    -0.262 N 
ATOM      5  C   UNL     1      -1.320   0.976  -4.688  0.00  0.00    +0.179 C 
ATOM      6  S   UNL     1      -2.410   0.667  -6.147  0.00  0.00    -0.139 S 
ATOM      7  C   UNL     1      -1.167  -0.279  -7.137  0.00  0.00    +0.105 C 
ATOM      8  C   UNL     1      -0.333  -0.906  -5.993  0.00  0.00    +0.201 C 
ATOM      9  H   UNL     1      -0.513   0.789  -2.401  0.00  0.00    +0.150 HD
ENDROOT
BRANCH   1  16
ATOM     10  C   UNL     1      -0.019   1.530   0.011  0.00  0.00    -0.014 C 
ATOM     11  C   UNL     1       1.423   2.043  -0.001  0.00  0.00    -0.078 C 
ATOM     12  N   UNL     1       2.357   0.915  -0.016  0.00  0.00    +0.381 N 
ATOM     13  C   UNL     1       2.193   0.094   1.186  0.00  0.00    -0.078 C 
ATOM     14  C   UNL     1       0.777  -0.484   1.236  0.00  0.00    -0.014 C 
ATOM     15  C   UNL     1       0.002  -0.004   0.002  0.00  0.00    +0.004 C 
ATOM     16  C   UNL     1       0.753  -0.471  -1.252  0.00  0.00    +0.061 C 
ATOM     17  C   UNL     1       2.170   0.107  -1.223  0.00  0.00    -0.056 C 
ATOM     18  H   UNL     1       3.298   1.280  -0.019  0.00  0.00    -0.082 HD
ENDBRANCH   1  16
BRANCH   8  19
ATOM     19  C   UNL     1       1.119  -0.904  -6.399  0.00  0.00    +0.377 C 
ATOM     20  O   UNL     1       1.488  -1.578  -7.346  0.00  0.00    -0.244 OA
ATOM     21  O   UNL     1       1.924  -0.229  -5.780  0.00  0.00    -0.244 OA
ENDBRANCH   8  19
TORSDOF 2
