REMARK  Name = ZINC34930681
REMARK  8 active torsions:
REMARK  status: ('A' for Active; 'I' for Inactive)
REMARK    1  A    between atoms: C_1  and  C_2
REMARK    2  A    between atoms: C_2  and  O_3
REMARK    3  A    between atoms: O_3  and  C_4
REMARK    4  A    between atoms: C_6  and  C_11
REMARK    5  A    between atoms: C_9  and  O_10
REMARK    6  A    between atoms: C_13  and  C_14
REMARK    7  A    between atoms: C_14  and  C_15
REMARK    8  A    between atoms: C_32  and  C_36
REMARK                            x       y       z     vdW  Elec       q    Type
REMARK                         _______ _______ _______ _____ _____    ______ ____
ROOT
ATOM      1  C   UNL     1      -0.366  -4.997  -0.241  0.00  0.00    +0.152 C 
ATOM      2  C   UNL     1      -1.824  -5.350  -0.059  0.00  0.00    +0.077 C 
ATOM      3  C   UNL     1      -1.904  -6.702  -0.082  0.00  0.00    +0.250 C 
ATOM      4  O   UNL     1      -3.042  -7.422   0.049  0.00  0.00    -0.282 OA
ATOM      5  C   UNL     1      -0.552  -7.265  -0.273  0.00  0.00    +0.293 C 
ATOM      6  O   UNL     1      -0.293  -8.451  -0.337  0.00  0.00    -0.266 OA
ATOM      7  N   UNL     1       0.351  -6.272  -0.367  0.00  0.00    -0.232 N 
ATOM      8  C   UNL     1       1.714  -6.425  -0.549  0.00  0.00    +0.169 A 
ATOM      9  N   UNL     1       2.641  -5.500  -0.641  0.00  0.00    -0.224 NA
ATOM     10  C   UNL     1       3.946  -5.796  -0.820  0.00  0.00    +0.080 A 
ATOM     11  C   UNL     1       5.037  -4.903  -0.935  0.00  0.00    +0.029 A 
ATOM     12  C   UNL     1       6.311  -5.373  -1.115  0.00  0.00    +0.005 A 
ATOM     13  C   UNL     1       6.579  -6.733  -1.191  0.00  0.00    -0.049 A 
ATOM     14  C   UNL     1       5.536  -7.635  -1.082  0.00  0.00    +0.020 A 
ATOM     15  C   UNL     1       4.256  -7.173  -0.902  0.00  0.00    +0.041 A 
ATOM     16  S   UNL     1       2.661  -7.932  -0.711  0.00  0.00    -0.052 S 
ATOM     17  C   UNL     1       7.990  -7.221  -1.390  0.00  0.00    +0.044 C 
ENDROOT
BRANCH   1  20
ATOM     18  C   UNL     1       0.821  -2.173   1.970  0.00  0.00    +0.162 A 
ATOM     19  C   UNL     1       0.358  -2.875   0.868  0.00  0.00    +0.055 A 
ATOM     20  C   UNL     1       0.137  -4.236   0.958  0.00  0.00    -0.018 A 
ATOM     21  C   UNL     1       0.376  -4.901   2.147  0.00  0.00    +0.009 A 
ATOM     22  C   UNL     1       0.837  -4.207   3.250  0.00  0.00    +0.049 A 
ATOM     23  C   UNL     1       1.066  -2.843   3.164  0.00  0.00    +0.158 A 
BRANCH  23  24
ATOM     24  O   UNL     1       1.526  -2.160   4.247  0.00  0.00    -0.503 OA
ATOM     25  H   UNL     1       0.827  -1.810   4.817  0.00  0.00    +0.292 HD
ENDBRANCH  23  24
BRANCH  18  26
ATOM     26  O   UNL     1       1.039  -0.834   1.882  0.00  0.00    -0.489 OA
BRANCH  26  28
ATOM     27  C   UNL     1       0.885   1.315   0.788  0.00  0.00    +0.048 C 
ATOM     28  C   UNL     1       0.663  -0.193   0.662  0.00  0.00    +0.226 C 
ENDBRANCH  26  28
ENDBRANCH  18  26
ENDBRANCH   1  20
BRANCH   2  29
ATOM     29  C   UNL     1      -2.936  -4.411   0.110  0.00  0.00    +0.195 C 
ATOM     30  O   UNL     1      -3.557  -4.386   1.156  0.00  0.00    -0.287 OA
BRANCH  29  31
ATOM     31  C   UNL     1      -3.303  -3.495  -0.991  0.00  0.00    +0.022 A 
ATOM     32  C   UNL     1      -2.650  -3.580  -2.222  0.00  0.00    +0.012 A 
ATOM     33  C   UNL     1      -2.997  -2.721  -3.244  0.00  0.00    +0.001 A 
ATOM     34  C   UNL     1      -3.991  -1.778  -3.052  0.00  0.00    +0.000 A 
ATOM     35  C   UNL     1      -4.642  -1.688  -1.834  0.00  0.00    +0.001 A 
ATOM     36  C   UNL     1      -4.309  -2.544  -0.805  0.00  0.00    +0.012 A 
ENDBRANCH  29  31
ENDBRANCH   2  29
TORSDOF 6
