REMARK  Name = ZINC39228653
REMARK  6 active torsions:
REMARK  status: ('A' for Active; 'I' for Inactive)
REMARK    1  A    between atoms: C_1  and  C_2
REMARK    2  A    between atoms: C_5  and  N_9
REMARK    3  A    between atoms: C_6  and  C_7
REMARK    4  A    between atoms: C_10  and  C_12
REMARK    5  A    between atoms: C_12  and  N_13
REMARK    6  A    between atoms: C_26  and  C_28
REMARK                            x       y       z     vdW  Elec       q    Type
REMARK                         _______ _______ _______ _____ _____    ______ ____
ROOT
ATOM      1  N   UNL     1       0.102  -6.809   2.247  0.00  0.00    -0.281 NA
ATOM      2  C   UNL     1      -1.145  -7.078   1.518  0.00  0.00    +0.090 C 
ATOM      3  C   UNL     1      -0.948  -8.289   0.596  0.00  0.00    +0.053 C 
ATOM      4  C   UNL     1      -0.321  -9.395   1.408  0.00  0.00    -0.016 A 
ATOM      5  C   UNL     1      -0.218 -10.806   1.108  0.00  0.00    +0.003 A 
ATOM      6  C   UNL     1      -0.641 -11.581   0.025  0.00  0.00    +0.010 A 
ATOM      7  C   UNL     1      -0.367 -12.925   0.078  0.00  0.00    +0.001 A 
ATOM      8  C   UNL     1       0.297 -13.499   1.150  0.00  0.00    +0.002 A 
ATOM      9  C   UNL     1       0.726 -12.756   2.236  0.00  0.00    +0.026 A 
ATOM     10  C   UNL     1       0.462 -11.389   2.209  0.00  0.00    +0.047 A 
ATOM     11  N   UNL     1       0.739 -10.386   3.095  0.00  0.00    -0.356 N 
ATOM     12  C   UNL     1       0.268  -9.197   2.609  0.00  0.00    +0.042 A 
ATOM     13  H   UNL     1       1.200 -10.500   3.941  0.00  0.00    +0.166 HD
ATOM     14  C   UNL     1       0.362  -7.840   3.266  0.00  0.00    +0.138 C 
ENDROOT
BRANCH  14  15
ATOM     15  C   UNL     1      -0.664  -7.736   4.364  0.00  0.00    +0.022 A 
ATOM     16  C   UNL     1      -1.746  -8.597   4.383  0.00  0.00    +0.029 A 
ATOM     17  C   UNL     1      -2.689  -8.505   5.390  0.00  0.00    +0.045 A 
ATOM     18  C   UNL     1      -2.554  -7.551   6.383  0.00  0.00    +0.069 A 
ATOM     19  C   UNL     1      -1.472  -6.686   6.370  0.00  0.00    +0.168 A 
ATOM     20  C   UNL     1      -0.520  -6.783   5.358  0.00  0.00    +0.171 A 
ATOM     21  O   UNL     1       0.439  -5.834   5.570  0.00  0.00    -0.452 OA
ATOM     22  C   UNL     1      -0.146  -4.895   6.492  0.00  0.00    +0.466 C 
ATOM     23  O   UNL     1      -1.112  -5.676   7.214  0.00  0.00    -0.453 OA
ATOM     24 CL   UNL     1      -4.046  -9.588   5.408  0.00  0.00    -0.083 Cl
ENDBRANCH  14  15
BRANCH   1  25
ATOM     25  C   UNL     1       0.083  -5.469   2.848  0.00  0.00    +0.181 C 
BRANCH  25  27
ATOM     26  N   UNL     1       0.042  -3.120   2.073  0.00  0.00    -0.278 N 
ATOM     27  C   UNL     1       0.062  -4.430   1.756  0.00  0.00    +0.232 C 
ATOM     28  O   UNL     1       0.062  -4.773   0.593  0.00  0.00    -0.274 OA
ATOM     29  H   UNL     1       0.042  -2.846   3.003  0.00  0.00    +0.155 HD
BRANCH  26  34
ATOM     30  C   UNL     1      -0.043   1.494  -0.012  0.00  0.00    +0.045 C 
ATOM     31  C   UNL     1      -0.019  -0.013  -0.017  0.00  0.00    -0.024 A 
ATOM     32  C   UNL     1      -0.013  -0.725  -1.160  0.00  0.00    +0.051 A 
ATOM     33  S   UNL     1       0.018  -2.411  -0.592  0.00  0.00    -0.080 S 
ATOM     34  C   UNL     1       0.022  -2.163   1.068  0.00  0.00    +0.090 A 
ATOM     35  C   UNL     1       0.005  -0.784   1.205  0.00  0.00    +0.083 A 
BRANCH  35  36
ATOM     36  C   UNL     1       0.007  -0.155   2.491  0.00  0.00    +0.102 C 
ATOM     37  N   UNL     1       0.009   0.344   3.512  0.00  0.00    -0.191 NA
ENDBRANCH  35  36
ENDBRANCH  26  34
ENDBRANCH  25  27
ENDBRANCH   1  25
TORSDOF 5
