REMARK  Name = ZINC63731339
REMARK  8 active torsions:
REMARK  status: ('A' for Active; 'I' for Inactive)
REMARK    1  A    between atoms: C_1  and  C_2
REMARK    2  A    between atoms: C_2  and  C_3
REMARK    3  A    between atoms: C_3  and  C_5
REMARK    4  A    between atoms: C_3  and  S_13
REMARK    5  A    between atoms: S_13  and  C_14
REMARK    6  A    between atoms: C_19  and  C_22
REMARK    7  A    between atoms: N_25  and  C_26
REMARK    8  A    between atoms: C_31  and  C_32
REMARK                            x       y       z     vdW  Elec       q    Type
REMARK                         _______ _______ _______ _____ _____    ______ ____
ROOT
ATOM      1  C   UNL     1      -0.416   1.635  -2.495  0.00  0.00    +0.260 C 
ATOM      2  N   UNL     1       0.910   2.256  -2.578  0.00  0.00    -0.230 NA
ATOM      3  C   UNL     1       1.570   2.532  -1.501  0.00  0.00    +0.185 C 
ATOM      4  C   UNL     1       0.957   2.337  -0.143  0.00  0.00    +0.083 C 
ATOM      5  C   UNL     1       1.901   2.705   0.729  0.00  0.00    +0.075 C 
ATOM      6  N   UNL     1       2.980   3.115   0.029  0.00  0.00    -0.152 NA
ATOM      7  N   UNL     1       2.803   3.035  -1.247  0.00  0.00    -0.129 NA
ATOM      8  C   UNL     1       1.782   2.669   2.231  0.00  0.00    +0.068 C 
ATOM      9  C   UNL     1      -0.434   1.850  -0.040  0.00  0.00    +0.133 C 
ATOM     10  N   UNL     1      -0.959   1.358   1.049  0.00  0.00    -0.285 NA
ATOM     11  N   UNL     1      -1.122   1.981  -1.258  0.00  0.00    -0.253 N 
ATOM     12  H   UNL     1      -0.451   1.359   1.876  0.00  0.00    +0.188 HD
ENDROOT
BRANCH  11  13
ATOM     13  C   UNL     1      -2.446   2.429  -1.287  0.00  0.00    +0.041 A 
ATOM     14  C   UNL     1      -3.491   1.518  -1.199  0.00  0.00    +0.024 A 
ATOM     15  C   UNL     1      -4.798   1.964  -1.228  0.00  0.00    +0.002 A 
ATOM     16  C   UNL     1      -5.066   3.316  -1.346  0.00  0.00    +0.000 A 
ATOM     17  C   UNL     1      -4.028   4.225  -1.434  0.00  0.00    +0.005 A 
ATOM     18  C   UNL     1      -2.719   3.786  -1.398  0.00  0.00    -0.029 A 
ATOM     19  C   UNL     1      -1.588   4.779  -1.488  0.00  0.00    +0.045 C 
ENDBRANCH  11  13
BRANCH   1  20
ATOM     20  S   UNL     1      -0.226  -0.167  -2.577  0.00  0.00    -0.102 S 
BRANCH  20  21
ATOM     21  C   UNL     1       0.215  -0.483  -4.308  0.00  0.00    +0.136 C 
BRANCH  21  22
ATOM     22  C   UNL     1      -0.957  -0.149  -5.194  0.00  0.00    +0.229 C 
ATOM     23  O   UNL     1      -2.075  -0.092  -4.726  0.00  0.00    -0.274 OA
ATOM     24  N   UNL     1      -0.764   0.087  -6.507  0.00  0.00    -0.296 N 
ATOM     25  C   UNL     1       0.581   0.017  -7.099  0.00  0.00    +0.136 C 
ATOM     26  C   UNL     1       0.518  -0.882  -8.339  0.00  0.00    +0.179 C 
ATOM     27  O   UNL     1      -0.530  -0.428  -9.197  0.00  0.00    -0.377 OA
ATOM     28  C   UNL     1      -1.835  -0.499  -8.616  0.00  0.00    +0.179 C 
ATOM     29  C   UNL     1      -1.893   0.415  -7.392  0.00  0.00    +0.136 C 
ENDBRANCH  21  22
BRANCH  21  31
ATOM     30  C   UNL     1       1.853  -2.265  -3.689  0.00  0.00    +0.005 C 
ATOM     31  C   UNL     1       0.580  -1.959  -4.480  0.00  0.00    +0.020 C 
ENDBRANCH  21  31
ENDBRANCH  20  21
ENDBRANCH   1  20
TORSDOF 5
