REMARK  Name = ZINC43209019
REMARK  12 active torsions:
REMARK  status: ('A' for Active; 'I' for Inactive)
REMARK    1  A    between atoms: C_3  and  C_9
REMARK    2  A    between atoms: C_9  and  C_11
REMARK    3  A    between atoms: C_9  and  N_26
REMARK    4  A    between atoms: C_11  and  C_13
REMARK    5  A    between atoms: C_11  and  C_23
REMARK    6  A    between atoms: C_13  and  N_14
REMARK    7  A    between atoms: N_14  and  C_15
REMARK    8  A    between atoms: C_15  and  C_16
REMARK    9  A    between atoms: C_16  and  N_17
REMARK   10  A    between atoms: N_26  and  C_27
REMARK   11  A    between atoms: C_27  and  C_28
REMARK   12  A    between atoms: C_28  and  N_29
REMARK                            x       y       z     vdW  Elec       q    Type
REMARK                         _______ _______ _______ _____ _____    ______ ____
ROOT
ATOM      1  C   UNL     1       3.671   2.185  -0.023  0.00  0.00    -0.027 C 
ENDROOT
BRANCH   1   4
ATOM      2  C   UNL     1      -0.017   1.379   0.010  0.00  0.00    +0.020 A 
ATOM      3  C   UNL     1       1.171   2.087   0.002  0.00  0.00    +0.005 A 
ATOM      4  C   UNL     1       2.377   1.413  -0.013  0.00  0.00    -0.042 A 
ATOM      5  C   UNL     1       2.397   0.029  -0.021  0.00  0.00    +0.044 A 
ATOM      6  C   UNL     1       1.210  -0.679  -0.013  0.00  0.00    +0.040 A 
ATOM      7  C   UNL     1       0.002  -0.004   0.002  0.00  0.00    +0.042 A 
ATOM      8 CL   UNL     1      -1.489  -0.893   0.012  0.00  0.00    -0.083 Cl
ATOM      9 CL   UNL     1       3.913  -0.817  -0.041  0.00  0.00    -0.083 Cl
ENDBRANCH   1   4
BRANCH   1  10
ATOM     10  N   UNL     1       3.420   3.556  -0.487  0.00  0.00    +0.385 N 
ATOM     11  H   UNL     1       2.704   3.979   0.084  0.00  0.00    -0.085 HD
ATOM     12  H   UNL     1       4.269   4.096  -0.415  0.00  0.00    -0.085 HD
BRANCH  10  13
ATOM     13  C   UNL     1       2.976   3.526  -1.887  0.00  0.00    -0.066 C 
BRANCH  13  14
ATOM     14  C   UNL     1       2.715   4.953  -2.370  0.00  0.00    +0.065 C 
BRANCH  14  15
ATOM     15  N   UNL     1       2.270   4.923  -3.770  0.00  0.00    -0.300 NA
ATOM     16  C   UNL     1       3.347   4.453  -4.654  0.00  0.00    +0.112 C 
ATOM     17  C   UNL     1       2.824   4.379  -6.091  0.00  0.00    +0.175 C 
ATOM     18  O   UNL     1       2.327   5.663  -6.479  0.00  0.00    -0.377 OA
ATOM     19  C   UNL     1       1.277   6.151  -5.639  0.00  0.00    +0.175 C 
ATOM     20  C   UNL     1       1.784   6.242  -4.198  0.00  0.00    +0.112 C 
ENDBRANCH  14  15
ENDBRANCH  13  14
ENDBRANCH  10  13
ENDBRANCH   1  10
BRANCH   1  21
ATOM     21  C   UNL     1       4.252   2.224   1.392  0.00  0.00    +0.075 C 
BRANCH  21  22
ATOM     22  C   UNL     1       5.546   2.997   1.383  0.00  0.00    +0.356 C 
ATOM     23  O   UNL     1       5.662   4.000   2.066  0.00  0.00    -0.246 OA
ATOM     24  O   UNL     1       6.477   2.618   0.693  0.00  0.00    -0.246 OA
ENDBRANCH  21  22
BRANCH  21  25
ATOM     25  C   UNL     1       4.514   0.797   1.876  0.00  0.00    -0.069 C 
BRANCH  25  26
ATOM     26  N   UNL     1       4.958   0.827   3.276  0.00  0.00    +0.380 N 
ATOM     27  H   UNL     1       5.807   1.367   3.347  0.00  0.00    -0.086 HD
ATOM     28  H   UNL     1       4.241   1.250   3.847  0.00  0.00    -0.086 HD
BRANCH  26  29
ATOM     29  C   UNL     1       5.209  -0.544   3.740  0.00  0.00    -0.067 C 
BRANCH  29  30
ATOM     30  C   UNL     1       5.672  -0.512   5.198  0.00  0.00    +0.065 C 
BRANCH  30  31
ATOM     31  N   UNL     1       5.923  -1.882   5.662  0.00  0.00    -0.300 NA
ATOM     32  C   UNL     1       4.675  -2.658   5.715  0.00  0.00    +0.112 C 
ATOM     33  C   UNL     1       4.990  -4.093   6.145  0.00  0.00    +0.175 C 
ATOM     34  O   UNL     1       5.667  -4.070   7.405  0.00  0.00    -0.377 OA
ATOM     35  C   UNL     1       6.887  -3.324   7.389  0.00  0.00    +0.175 C 
ATOM     36  C   UNL     1       6.591  -1.881   6.972  0.00  0.00    +0.112 C 
ENDBRANCH  30  31
ENDBRANCH  29  30
ENDBRANCH  26  29
ENDBRANCH  25  26
ENDBRANCH  21  25
ENDBRANCH   1  21
TORSDOF 12
