REMARK  Name = ZINC54805596
REMARK  10 active torsions:
REMARK  status: ('A' for Active; 'I' for Inactive)
REMARK    1  A    between atoms: C_1  and  C_2
REMARK    2  A    between atoms: N_6  and  C_8
REMARK    3  A    between atoms: C_8  and  C_9
REMARK    4  A    between atoms: C_8  and  C_10
REMARK    5  A    between atoms: C_8  and  C_11
REMARK    6  A    between atoms: C_11  and  N_12
REMARK    7  A    between atoms: C_19  and  C_21
REMARK    8  A    between atoms: C_21  and  N_22
REMARK    9  A    between atoms: N_22  and  S_23
REMARK   10  A    between atoms: S_23  and  C_26
REMARK                            x       y       z     vdW  Elec       q    Type
REMARK                         _______ _______ _______ _____ _____    ______ ____
ROOT
ATOM      1  N   UNL     1       2.184  -4.461   1.135  0.00  0.00    -0.301 N 
ATOM      2  C   UNL     1       2.323  -5.782   0.909  0.00  0.00    +0.302 C 
ATOM      3  O   UNL     1       2.016  -6.582   1.772  0.00  0.00    -0.253 OA
ATOM      4  N   UNL     1       2.801  -6.217  -0.274  0.00  0.00    -0.285 N 
ATOM      5  C   UNL     1       3.288  -5.264  -1.280  0.00  0.00    +0.109 C 
ATOM      6  C   UNL     1       4.709  -5.662  -1.689  0.00  0.00    +0.019 C 
ATOM      7  C   UNL     1       4.713  -7.121  -2.151  0.00  0.00    +0.008 C 
ATOM      8  C   UNL     1       4.271  -8.024  -0.998  0.00  0.00    +0.022 C 
ATOM      9  C   UNL     1       2.850  -7.653  -0.579  0.00  0.00    +0.114 C 
ATOM     10  H   UNL     1       2.495  -3.821   0.476  0.00  0.00    +0.150 HD
ENDROOT
BRANCH   1  11
ATOM     11  C   UNL     1       1.564  -3.991   2.377  0.00  0.00    +0.093 C 
BRANCH  11  12
ATOM     12  C   UNL     1       1.529  -2.462   2.383  0.00  0.00    -0.055 C 
ATOM     13  C   UNL     1       2.957  -1.919   2.289  0.00  0.00    -0.008 C 
ATOM     14  C   UNL     1       0.881  -1.971   3.679  0.00  0.00    -0.008 C 
BRANCH  12  20
ATOM     15  C   UNL     1      -0.047   1.516   0.004  0.00  0.00    +0.005 C 
ATOM     16  C   UNL     1      -0.021  -0.014  -0.003  0.00  0.00    -0.031 C 
ATOM     17  C   UNL     1      -1.455  -0.550   0.017  0.00  0.00    -0.001 C 
ATOM     18  C   UNL     1      -1.417  -2.079   0.090  0.00  0.00    -0.018 C 
ATOM     19  C   UNL     1      -0.621  -2.506   1.325  0.00  0.00    -0.078 C 
ATOM     20  N   UNL     1       0.748  -1.985   1.234  0.00  0.00    +0.384 N 
ATOM     21  C   UNL     1       0.723  -0.517   1.236  0.00  0.00    -0.075 C 
ATOM     22  H   UNL     1       1.175  -2.312   0.380  0.00  0.00    -0.081 HD
ENDBRANCH  12  20
ENDBRANCH  11  12
ENDBRANCH   1  11
BRANCH   8  23
ATOM     23  C   UNL     1       4.307  -9.485  -1.451  0.00  0.00    +0.110 C 
BRANCH  23  24
ATOM     24  N   UNL     1       4.000 -10.357  -0.314  0.00  0.00    -0.194 NA
ATOM     25  H   UNL     1       4.029 -10.005   0.589  0.00  0.00    +0.148 HD
BRANCH  24  26
ATOM     26  S   UNL     1       3.602 -11.944  -0.571  0.00  0.00    +0.027 S 
ATOM     27  O   UNL     1       3.349 -12.469   0.725  0.00  0.00    -0.158 OA
ATOM     28  O   UNL     1       2.573 -11.905  -1.551  0.00  0.00    -0.158 OA
ATOM     29  C   UNL     1       5.100 -12.693  -1.268  0.00  0.00    +0.214 C 
ENDBRANCH  24  26
ENDBRANCH  23  24
ENDBRANCH   8  23
TORSDOF 6
