REMARK  Name = ZINC37021073
REMARK  2 active torsions:
REMARK  status: ('A' for Active; 'I' for Inactive)
REMARK    1  A    between atoms: C_5  and  N_8
REMARK    2  A    between atoms: C_9  and  C_11
REMARK                            x       y       z     vdW  Elec       q    Type
REMARK                         _______ _______ _______ _____ _____    ______ ____
ROOT
ATOM      1  C   UNL     1       0.142   1.389  -0.568  0.00  0.00    +0.048 A 
ATOM      2  C   UNL     1       1.179   2.085   0.030  0.00  0.00    +0.077 A 
ATOM      3  C   UNL     1       2.240   1.394   0.615  0.00  0.00    +0.144 A 
ATOM      4  C   UNL     1       2.256   0.011   0.597  0.00  0.00    +0.072 A 
ATOM      5  C   UNL     1       1.215  -0.685  -0.004  0.00  0.00    +0.055 A 
ATOM      6  C   UNL     1       0.158   0.006  -0.585  0.00  0.00    +0.064 A 
ATOM      7 CL   UNL     1      -1.141  -0.867  -1.335  0.00  0.00    -0.082 Cl
ATOM      8  O   UNL     1       3.252   2.091   1.197  0.00  0.00    -0.481 OA
ATOM      9  C   UNL     1       3.584   3.352   0.611  0.00  0.00    +0.325 C 
ATOM     10  C   UNL     1       2.324   4.139   0.354  0.00  0.00    +0.255 C 
ATOM     11  O   UNL     1       2.340   5.350   0.412  0.00  0.00    -0.272 OA
ATOM     12  N   UNL     1       1.178   3.489   0.057  0.00  0.00    -0.280 N 
ATOM     13  H   UNL     1       0.366   3.984  -0.134  0.00  0.00    +0.155 HD
ENDROOT
BRANCH   5  14
ATOM     14  N   UNL     1       1.229  -2.086  -0.023  0.00  0.00    -0.286 N 
ATOM     15  C   UNL     1       2.398  -2.746  -0.140  0.00  0.00    +0.203 C 
ATOM     16  O   UNL     1       3.444  -2.132  -0.146  0.00  0.00    -0.277 OA
ATOM     17  H   UNL     1       0.397  -2.580   0.048  0.00  0.00    +0.155 HD
BRANCH  15  18
ATOM     18  C   UNL     1       2.406  -4.248  -0.262  0.00  0.00    +0.016 C 
ATOM     19  C   UNL     1       1.754  -4.864   0.978  0.00  0.00    -0.007 C 
ATOM     20  C   UNL     1       1.764  -6.390   0.848  0.00  0.00    -0.003 C 
ATOM     21  C   UNL     1       3.206  -6.866   0.654  0.00  0.00    -0.019 C 
ATOM     22  C   UNL     1       3.804  -6.176  -0.574  0.00  0.00    -0.082 C 
ATOM     23  N   UNL     1       3.790  -4.722  -0.377  0.00  0.00    +0.387 N 
ATOM     24  H   UNL     1       4.234  -4.273  -1.164  0.00  0.00    -0.085 HD
ATOM     25  H   UNL     1       4.294  -4.492   0.467  0.00  0.00    -0.085 HD
ENDBRANCH  15  18
ENDBRANCH   5  14
TORSDOF 2
