REMARK  Name = ZINC66957074
REMARK  5 active torsions:
REMARK  status: ('A' for Active; 'I' for Inactive)
REMARK    1  A    between atoms: C_3  and  N_16
REMARK    2  A    between atoms: C_6  and  C_7
REMARK    3  A    between atoms: N_19  and  C_20
REMARK    4  A    between atoms: C_20  and  C_21
REMARK    5  A    between atoms: C_21  and  C_22
REMARK                            x       y       z     vdW  Elec       q    Type
REMARK                         _______ _______ _______ _____ _____    ______ ____
ROOT
ATOM      1  C   UNL     1       0.061   1.145  -0.378  0.00  0.00    +0.013 A 
ATOM      2  C   UNL     1       1.196   1.924  -0.328  0.00  0.00    +0.024 A 
ATOM      3  C   UNL     1       2.431   1.340  -0.071  0.00  0.00    +0.035 A 
ATOM      4  C   UNL     1       2.525  -0.031   0.138  0.00  0.00    +0.024 A 
ATOM      5  C   UNL     1       1.393  -0.816   0.090  0.00  0.00    +0.013 A 
ATOM      6  C   UNL     1       0.152  -0.232  -0.169  0.00  0.00    +0.019 A 
ENDROOT
BRANCH   6   7
ATOM      7  C   UNL     1      -1.065  -1.071  -0.221  0.00  0.00    +0.164 A 
ATOM      8  N   UNL     1      -2.226  -0.742  -0.751  0.00  0.00    -0.129 NA
ATOM      9  N   UNL     1      -3.059  -1.716  -0.617  0.00  0.00    -0.134 NA
ATOM     10  C   UNL     1      -2.485  -2.707  -0.004  0.00  0.00    +0.134 A 
ATOM     11  N   UNL     1      -1.201  -2.335   0.264  0.00  0.00    -0.311 N 
ATOM     12  C   UNL     1      -0.214  -3.171   0.947  0.00  0.00    +0.125 C 
ATOM     13  C   UNL     1      -0.947  -4.311   1.663  0.00  0.00    +0.022 C 
ATOM     14  C   UNL     1      -1.905  -5.000   0.687  0.00  0.00    +0.009 C 
ATOM     15  C   UNL     1      -3.068  -4.048   0.366  0.00  0.00    +0.076 C 
ENDBRANCH   6   7
BRANCH   3  16
ATOM     16  N   UNL     1       3.581   2.134  -0.022  0.00  0.00    -0.269 N 
ATOM     17  C   UNL     1       3.510   3.395   0.447  0.00  0.00    +0.304 C 
ATOM     18  O   UNL     1       2.469   3.812   0.915  0.00  0.00    -0.253 OA
ATOM     19  N   UNL     1       4.594   4.195   0.397  0.00  0.00    -0.299 N 
ATOM     20  H   UNL     1       4.430   1.776  -0.326  0.00  0.00    +0.156 HD
ATOM     21  H   UNL     1       5.425   3.862   0.023  0.00  0.00    +0.150 HD
BRANCH  19  22
ATOM     22  C   UNL     1       4.517   5.566   0.907  0.00  0.00    +0.108 C 
BRANCH  22  23
ATOM     23  C   UNL     1       5.874   6.252   0.733  0.00  0.00    +0.050 C 
BRANCH  23  24
ATOM     24  C   UNL     1       5.793   7.684   1.265  0.00  0.00    +0.120 C 
ATOM     25  C   UNL     1       7.120   8.422   0.984  0.00  0.00    +0.034 C 
ATOM     26  C   UNL     1       7.315   9.254   2.281  0.00  0.00    +0.031 C 
ATOM     27  C   UNL     1       6.714   8.294   3.339  0.00  0.00    +0.160 C 
ATOM     28  O   UNL     1       5.599   7.664   2.684  0.00  0.00    -0.376 OA
ENDBRANCH  23  24
ENDBRANCH  22  23
ENDBRANCH  19  22
ENDBRANCH   3  16
TORSDOF 5
