REMARK  Name = ZINC10803088
REMARK  9 active torsions:
REMARK  status: ('A' for Active; 'I' for Inactive)
REMARK    1  A    between atoms: C_1  and  C_2
REMARK    2  A    between atoms: C_3  and  C_13
REMARK    3  A    between atoms: C_4  and  C_12
REMARK    4  A    between atoms: C_9  and  C_10
REMARK    5  A    between atoms: C_13  and  C_14
REMARK    6  A    between atoms: C_14  and  C_15
REMARK    7  A    between atoms: N_17  and  N_18
REMARK    8  A    between atoms: C_21  and  C_25
REMARK    9  A    between atoms: C_21  and  C_26
REMARK                            x       y       z     vdW  Elec       q    Type
REMARK                         _______ _______ _______ _____ _____    ______ ____
ROOT
ATOM      1  C   UNL     1      -1.577   2.732   1.152  0.00  0.00    +0.230 C 
ATOM      2  O   UNL     1      -0.916   2.619   2.163  0.00  0.00    -0.274 OA
ATOM      3  N   UNL     1      -1.186   2.115   0.019  0.00  0.00    -0.224 N 
ATOM      4  H   UNL     1      -1.714   2.204  -0.789  0.00  0.00    +0.174 HD
ENDROOT
BRANCH   3   5
ATOM      5  N   UNL     1      -0.016   1.343   0.009  0.00  0.00    -0.137 N 
ATOM      6  C   UNL     1       0.002  -0.004   0.002  0.00  0.00    +0.267 C 
ATOM      7  O   UNL     1      -0.954  -0.749   0.008  0.00  0.00    -0.271 OA
ATOM      8  C   UNL     1       1.467  -0.394  -0.014  0.00  0.00    +0.137 C 
ATOM      9  N   UNL     1       2.170   0.901  -0.014  0.00  0.00    -0.280 N 
ATOM     10  C   UNL     1       1.220   1.854   0.000  0.00  0.00    +0.327 C 
ATOM     11  O   UNL     1       1.460   3.045   0.004  0.00  0.00    -0.251 OA
ATOM     12  C   UNL     1       1.799  -1.187  -1.280  0.00  0.00    +0.047 C 
ATOM     13  H   UNL     1       3.130   1.039  -0.022  0.00  0.00    +0.152 HD
BRANCH   8  14
ATOM     14  C   UNL     1       1.818  -1.188   1.218  0.00  0.00    -0.015 A 
ATOM     15  C   UNL     1       0.860  -1.975   1.829  0.00  0.00    +0.006 A 
ATOM     16  C   UNL     1       1.183  -2.707   2.956  0.00  0.00    +0.000 A 
ATOM     17  C   UNL     1       2.461  -2.644   3.478  0.00  0.00    +0.000 A 
ATOM     18  C   UNL     1       3.418  -1.853   2.870  0.00  0.00    +0.000 A 
ATOM     19  C   UNL     1       3.096  -1.125   1.740  0.00  0.00    +0.006 A 
ENDBRANCH   8  14
ENDBRANCH   3   5
BRANCH   1  20
ATOM     20  C   UNL     1      -2.835   3.561   1.163  0.00  0.00    +0.102 C 
BRANCH  20  21
ATOM     21  C   UNL     1      -3.048   4.146   2.560  0.00  0.00    +0.046 C 
BRANCH  21  24
ATOM     22  C   UNL     1      -2.965   6.935   1.724  0.00  0.00    +0.045 C 
ATOM     23  C   UNL     1      -4.263   6.311   2.170  0.00  0.00    -0.023 A 
ATOM     24  C   UNL     1      -4.306   4.976   2.571  0.00  0.00    -0.024 A 
ATOM     25  C   UNL     1      -5.478   4.424   2.976  0.00  0.00    +0.019 A 
ATOM     26  N   UNL     1      -6.625   5.146   2.997  0.00  0.00    -0.325 N 
ATOM     27  H   UNL     1      -7.448   4.726   3.291  0.00  0.00    +0.169 HD
ATOM     28  C   UNL     1      -6.639   6.437   2.615  0.00  0.00    +0.267 A 
ATOM     29  O   UNL     1      -7.681   7.070   2.640  0.00  0.00    -0.266 OA
ATOM     30  C   UNL     1      -5.438   7.058   2.183  0.00  0.00    +0.119 A 
ATOM     31  C   UNL     1      -5.504   2.981   3.411  0.00  0.00    +0.063 C 
BRANCH  30  32
ATOM     32  C   UNL     1      -5.434   8.431   1.774  0.00  0.00    +0.105 C 
ATOM     33  N   UNL     1      -5.431   9.519   1.449  0.00  0.00    -0.191 NA
ENDBRANCH  30  32
ENDBRANCH  21  24
ENDBRANCH  20  21
ENDBRANCH   1  20
TORSDOF 6
