REMARK  Name = ZINC33421923
REMARK  8 active torsions:
REMARK  status: ('A' for Active; 'I' for Inactive)
REMARK    1  A    between atoms: C_1  and  C_2
REMARK    2  A    between atoms: C_2  and  C_3
REMARK    3  A    between atoms: C_3  and  C_5
REMARK    4  A    between atoms: C_3  and  C_6
REMARK    5  A    between atoms: C_6  and  C_38
REMARK    6  A    between atoms: C_11  and  C_14
REMARK    7  A    between atoms: N_26  and  C_29
REMARK    8  A    between atoms: C_33  and  N_35
REMARK                            x       y       z     vdW  Elec       q    Type
REMARK                         _______ _______ _______ _____ _____    ______ ____
ROOT
ATOM      1  C   UNL     1       3.570   4.612  -0.616  0.00  0.00    +0.051 C 
ATOM      2  C   UNL     1       3.267   3.759  -1.854  0.00  0.00    +0.086 C 
ATOM      3  C   UNL     1       4.109   2.499  -1.401  0.00  0.00    +0.077 C 
ATOM      4  C   UNL     1       3.648   2.279  -0.021  0.00  0.00    -0.026 C 
ATOM      5  N   UNL     1       3.393   3.658   0.512  0.00  0.00    +0.396 N 
ATOM      6  C   UNL     1       4.227   1.774  -2.647  0.00  0.00    +0.229 C 
ATOM      7  O   UNL     1       4.225   0.573  -2.808  0.00  0.00    -0.275 OA
ATOM      8  N   UNL     1       4.342   2.751  -3.605  0.00  0.00    -0.210 N 
ATOM      9  C   UNL     1       4.020   3.992  -3.135  0.00  0.00    +0.229 C 
ATOM     10  O   UNL     1       4.285   5.060  -3.645  0.00  0.00    -0.275 OA
ATOM     11  H   UNL     1       4.108   3.900   1.312  0.00  0.00    -0.083 HD
ATOM     12  H   UNL     1       2.367   3.737   0.901  0.00  0.00    -0.083 HD
ENDROOT
BRANCH   4  13
ATOM     13  C   UNL     1       2.378   1.468  -0.012  0.00  0.00    -0.053 A 
ATOM     14  C   UNL     1       1.168   2.091   0.002  0.00  0.00    +0.002 A 
ATOM     15  C   UNL     1      -0.016   1.357   0.009  0.00  0.00    +0.001 A 
ATOM     16  C   UNL     1       0.002  -0.004   0.002  0.00  0.00    +0.008 A 
ATOM     17  C   UNL     1       1.232  -0.682  -0.013  0.00  0.00    -0.018 A 
ATOM     18  C   UNL     1       2.437   0.064  -0.021  0.00  0.00    -0.016 A 
ATOM     19  C   UNL     1       3.668  -0.615  -0.036  0.00  0.00    +0.009 A 
ATOM     20  C   UNL     1       3.687  -1.976  -0.045  0.00  0.00    +0.001 A 
ATOM     21  C   UNL     1       2.502  -2.709  -0.037  0.00  0.00    +0.001 A 
ATOM     22  C   UNL     1       1.292  -2.087  -0.022  0.00  0.00    +0.008 A 
ENDBRANCH   4  13
BRANCH   8  23
ATOM     23  C   UNL     1       4.748   2.500  -4.923  0.00  0.00    +0.046 A 
ATOM     24  C   UNL     1       4.835   3.545  -5.834  0.00  0.00    +0.024 A 
ATOM     25  C   UNL     1       5.239   3.296  -7.131  0.00  0.00    +0.004 A 
ATOM     26  C   UNL     1       5.548   2.007  -7.526  0.00  0.00    +0.033 A 
ATOM     27  C   UNL     1       5.458   0.964  -6.622  0.00  0.00    +0.128 A 
ATOM     28  C   UNL     1       5.059   1.208  -5.322  0.00  0.00    +0.056 A 
BRANCH  27  29
ATOM     29  N   UNL     1       5.790  -0.414  -7.048  0.00  0.00    +0.056 N 
ATOM     30  O   UNL     1       5.711  -1.333  -6.252  0.00  0.00    -0.126 OA
ATOM     31  O   UNL     1       6.142  -0.629  -8.194  0.00  0.00    -0.126 OA
ENDBRANCH  27  29
ENDBRANCH   8  23
BRANCH   1  32
ATOM     32  C   UNL     1       4.991   5.111  -0.646  0.00  0.00    +0.347 C 
ATOM     33  O   UNL     1       5.569   5.228  -1.700  0.00  0.00    -0.248 OA
ATOM     34  O   UNL     1       5.616   5.426   0.500  0.00  0.00    -0.248 OA
ENDBRANCH   1  32
BRANCH   1  35
ATOM     35  C   UNL     1       2.588   5.781  -0.509  0.00  0.00    -0.014 C 
ATOM     36  C   UNL     1       2.615   6.590  -1.808  0.00  0.00    +0.006 C 
BRANCH  35  38
ATOM     37  C   UNL     1       1.943   7.779   0.846  0.00  0.00    +0.004 C 
ATOM     38  C   UNL     1       2.992   6.681   0.661  0.00  0.00    -0.001 C 
ENDBRANCH  35  38
ENDBRANCH   1  35
TORSDOF 6
