REMARK  Name = ZINC09837075
REMARK  10 active torsions:
REMARK  status: ('A' for Active; 'I' for Inactive)
REMARK    1  A    between atoms: C_1  and  C_2
REMARK    2  A    between atoms: C_2  and  N_3
REMARK    3  A    between atoms: N_3  and  C_4
REMARK    4  A    between atoms: C_5  and  N_20
REMARK    5  A    between atoms: N_6  and  C_13
REMARK    6  A    between atoms: C_13  and  C_14
REMARK    7  A    between atoms: C_21  and  C_23
REMARK    8  A    between atoms: C_23  and  S_24
REMARK    9  A    between atoms: S_24  and  C_25
REMARK   10  A    between atoms: C_28  and  C_31
REMARK                            x       y       z     vdW  Elec       q    Type
REMARK                         _______ _______ _______ _____ _____    ______ ____
ROOT
ATOM      1  N   UNL     1       2.359   3.681   0.046  0.00  0.00    -0.264 N 
ATOM      2  C   UNL     1       2.319   5.023  -0.093  0.00  0.00    +0.230 C 
ATOM      3  O   UNL     1       1.252   5.598  -0.129  0.00  0.00    -0.274 OA
ENDROOT
BRANCH   1   4
ATOM      4  C   UNL     1       1.160   2.937   0.046  0.00  0.00    +0.140 A 
ATOM      5  C   UNL     1       0.749   2.269   1.181  0.00  0.00    +0.128 A 
ATOM      6  N   UNL     1      -0.425   1.551   1.149  0.00  0.00    -0.276 N 
ATOM      7  C   UNL     1      -1.165   1.506   0.027  0.00  0.00    +0.331 A 
ATOM      8  O   UNL     1      -2.201   0.870   0.021  0.00  0.00    -0.246 OA
ATOM      9  N   UNL     1      -0.777   2.146  -1.090  0.00  0.00    -0.273 N 
ATOM     10  H   UNL     1      -1.342   2.090  -1.914  0.00  0.00    +0.173 HD
ATOM     11  C   UNL     1       0.364   2.863  -1.113  0.00  0.00    +0.277 A 
ATOM     12  O   UNL     1       0.704   3.443  -2.130  0.00  0.00    -0.266 OA
BRANCH   5  13
ATOM     13  N   UNL     1       1.502   2.319   2.329  0.00  0.00    -0.343 N 
ATOM     14  H   UNL     1       2.349   2.791   2.333  0.00  0.00    +0.144 HD
ATOM     15  H   UNL     1       1.187   1.883   3.136  0.00  0.00    +0.144 HD
ENDBRANCH   5  13
BRANCH   6  16
ATOM     16  C   UNL     1      -0.874   0.837   2.347  0.00  0.00    +0.163 C 
BRANCH  16  17
ATOM     17  C   UNL     1      -1.744   1.746   3.177  0.00  0.00    -0.028 A 
ATOM     18  C   UNL     1      -1.177   2.544   4.153  0.00  0.00    +0.005 A 
ATOM     19  C   UNL     1      -1.975   3.381   4.911  0.00  0.00    +0.000 A 
ATOM     20  C   UNL     1      -3.341   3.412   4.699  0.00  0.00    +0.000 A 
ATOM     21  C   UNL     1      -3.908   2.610   3.727  0.00  0.00    +0.000 A 
ATOM     22  C   UNL     1      -3.110   1.777   2.966  0.00  0.00    +0.005 A 
ENDBRANCH  16  17
ENDBRANCH   6  16
ENDBRANCH   1   4
BRANCH   1  24
ATOM     23  C   UNL     1       4.247   2.731  -1.183  0.00  0.00    +0.025 C 
ATOM     24  C   UNL     1       3.646   2.998   0.198  0.00  0.00    +0.110 C 
ENDBRANCH   1  24
BRANCH   2  25
ATOM     25  C   UNL     1       3.602   5.807  -0.205  0.00  0.00    +0.173 C 
BRANCH  25  26
ATOM     26  S   UNL     1       3.219   7.567  -0.380  0.00  0.00    -0.077 S 
BRANCH  26  27
ATOM     27  C   UNL     1       4.850   8.225  -0.486  0.00  0.00    +0.190 A 
ATOM     28  N   UNL     1       5.185   9.542  -0.632  0.00  0.00    -0.316 N 
ATOM     29  H   UNL     1       4.580  10.297  -0.697  0.00  0.00    +0.169 HD
ATOM     30  C   UNL     1       6.560   9.573  -0.666  0.00  0.00    +0.165 A 
ATOM     31  N   UNL     1       6.977   8.335  -0.546  0.00  0.00    -0.128 NA
ATOM     32  N   UNL     1       5.972   7.542  -0.435  0.00  0.00    -0.122 NA
BRANCH  30  33
ATOM     33  C   UNL     1       7.408  10.776  -0.811  0.00  0.00    +0.054 A 
ATOM     34  C   UNL     1       8.798  10.655  -0.830  0.00  0.00    +0.014 A 
ATOM     35  C   UNL     1       9.584  11.781  -0.965  0.00  0.00    +0.001 A 
ATOM     36  C   UNL     1       8.997  13.029  -1.082  0.00  0.00    +0.003 A 
ATOM     37  C   UNL     1       7.620  13.158  -1.065  0.00  0.00    +0.039 A 
ATOM     38  C   UNL     1       6.821  12.038  -0.935  0.00  0.00    +0.134 A 
ATOM     39  F   UNL     1       5.476  12.164  -0.924  0.00  0.00    -0.205 F 
ENDBRANCH  30  33
ENDBRANCH  26  27
ENDBRANCH  25  26
ENDBRANCH   2  25
TORSDOF 9
