REMARK  Name = ZINC63491366
REMARK  8 active torsions:
REMARK  status: ('A' for Active; 'I' for Inactive)
REMARK    1  A    between atoms: C_1  and  C_2
REMARK    2  A    between atoms: C_8  and  C_11
REMARK    3  A    between atoms: C_11  and  C_12
REMARK    4  A    between atoms: C_12  and  N_13
REMARK    5  A    between atoms: N_13  and  C_14
REMARK    6  A    between atoms: C_14  and  C_32
REMARK    7  A    between atoms: C_16  and  C_31
REMARK    8  A    between atoms: N_18  and  C_21
REMARK                            x       y       z     vdW  Elec       q    Type
REMARK                         _______ _______ _______ _____ _____    ______ ____
ROOT
ATOM      1  C   UNL     1      -2.364  -3.093   6.134  0.00  0.00    +0.015 C 
ATOM      2  C   UNL     1      -2.384  -2.615   7.434  0.00  0.00    +0.077 C 
ATOM      3  C   UNL     1      -3.562  -2.281   8.247  0.00  0.00    +0.070 C 
ATOM      4  N   UNL     1      -3.137  -1.869   9.402  0.00  0.00    -0.179 NA
ATOM      5  N   UNL     1      -1.744  -1.888   9.466  0.00  0.00    -0.158 N 
ATOM      6  C   UNL     1      -1.233  -2.338   8.302  0.00  0.00    +0.271 C 
ATOM      7  O   UNL     1      -0.054  -2.482   8.025  0.00  0.00    -0.268 OA
ATOM      8  C   UNL     1      -5.002  -2.395   7.818  0.00  0.00    +0.068 C 
ATOM      9  C   UNL     1      -3.656  -3.432   5.436  0.00  0.00    +0.061 C 
ENDROOT
BRANCH   5  10
ATOM     10  C   UNL     1      -0.952  -1.483  10.630  0.00  0.00    +0.249 C 
ATOM     11  N   UNL     1      -1.268  -0.106  11.032  0.00  0.00    -0.315 N 
ATOM     12  C   UNL     1      -1.806   0.086  12.303  0.00  0.00    +0.043 A 
ATOM     13  C   UNL     1      -2.169   1.326  12.859  0.00  0.00    +0.024 A 
ATOM     14  C   UNL     1      -2.693   1.412  14.128  0.00  0.00    +0.002 A 
ATOM     15  C   UNL     1      -2.882   0.281  14.901  0.00  0.00    +0.001 A 
ATOM     16  C   UNL     1      -2.533  -0.954  14.379  0.00  0.00    +0.016 A 
ATOM     17  C   UNL     1      -2.008  -1.038  13.109  0.00  0.00    +0.032 A 
ATOM     18  S   UNL     1      -1.456  -2.417  12.130  0.00  0.00    -0.080 S 
ATOM     19  H   UNL     1      -1.109   0.641  10.434  0.00  0.00    +0.149 HD
ENDBRANCH   5  10
BRANCH   1  20
ATOM     20  N   UNL     1      -1.189  -3.256   5.493  0.00  0.00    -0.346 N 
ATOM     21  H   UNL     1      -0.357  -3.038   5.943  0.00  0.00    +0.146 HD
BRANCH  20  22
ATOM     22  C   UNL     1      -1.168  -3.762   4.119  0.00  0.00    +0.105 C 
BRANCH  22  23
ATOM     23  C   UNL     1       0.279  -3.851   3.630  0.00  0.00    +0.052 C 
BRANCH  23  31
ATOM     24  C   UNL     1       0.456  -0.263  -0.704  0.00  0.00    +0.044 C 
ATOM     25  C   UNL     1       0.418  -1.747  -0.445  0.00  0.00    -0.050 A 
ATOM     26  C   UNL     1       0.423  -2.630  -1.534  0.00  0.00    +0.005 A 
ATOM     27  C   UNL     1       0.391  -3.971  -1.385  0.00  0.00    +0.026 A 
ATOM     28  C   UNL     1       0.349  -4.550  -0.086  0.00  0.00    +0.043 A 
ATOM     29  N   UNL     1       0.312  -5.798   0.312  0.00  0.00    -0.380 N 
ATOM     30  C   UNL     1       0.278  -5.819   1.779  0.00  0.00    +0.144 C 
ATOM     31  C   UNL     1       0.300  -4.372   2.216  0.00  0.00    -0.040 C 
ATOM     32  C   UNL     1       0.342  -3.638   1.080  0.00  0.00    -0.001 A 
ATOM     33  C   UNL     1       0.385  -2.192   0.831  0.00  0.00    +0.013 A 
ATOM     34  H   UNL     1       0.307  -6.577  -0.265  0.00  0.00    +0.160 HD
ENDBRANCH  23  31
ENDBRANCH  22  23
ENDBRANCH  20  22
ENDBRANCH   1  20
TORSDOF 5
