REMARK  Name = ZINC67606536
REMARK  7 active torsions:
REMARK  status: ('A' for Active; 'I' for Inactive)
REMARK    1  A    between atoms: C_3  and  C_16
REMARK    2  A    between atoms: C_5  and  N_7
REMARK    3  A    between atoms: C_8  and  C_10
REMARK    4  A    between atoms: C_16  and  N_17
REMARK    5  A    between atoms: N_20  and  N_21
REMARK    6  A    between atoms: N_21  and  C_22
REMARK    7  A    between atoms: C_26  and  N_28
REMARK                            x       y       z     vdW  Elec       q    Type
REMARK                         _______ _______ _______ _____ _____    ______ ____
ROOT
ATOM      1  N   UNL     1       4.277   2.441   0.895  0.00  0.00    -0.294 N 
ATOM      2  C   UNL     1       5.438   3.122   0.960  0.00  0.00    +0.316 C 
ATOM      3  O   UNL     1       5.963   3.527  -0.059  0.00  0.00    -0.251 OA
ATOM      4  N   UNL     1       6.017   3.354   2.155  0.00  0.00    -0.220 N 
ATOM      5  H   UNL     1       3.858   2.117   1.708  0.00  0.00    +0.151 HD
ATOM      6  H   UNL     1       6.853   3.844   2.202  0.00  0.00    +0.174 HD
ENDROOT
BRANCH   4   7
ATOM      7  N   UNL     1       5.412   2.887   3.329  0.00  0.00    -0.263 N 
ATOM      8  H   UNL     1       4.576   2.396   3.282  0.00  0.00    +0.170 HD
BRANCH   7   9
ATOM      9  C   UNL     1       6.012   3.127   4.567  0.00  0.00    +0.047 A 
ATOM     10  C   UNL     1       7.206   3.834   4.636  0.00  0.00    +0.024 A 
ATOM     11  C   UNL     1       7.796   4.070   5.862  0.00  0.00    +0.004 A 
ATOM     12  C   UNL     1       7.201   3.603   7.020  0.00  0.00    +0.033 A 
ATOM     13  C   UNL     1       6.013   2.899   6.954  0.00  0.00    +0.128 A 
ATOM     14  C   UNL     1       5.414   2.665   5.732  0.00  0.00    +0.057 A 
BRANCH  13  15
ATOM     15  N   UNL     1       5.379   2.402   8.196  0.00  0.00    +0.056 N 
ATOM     16  O   UNL     1       5.900   2.611   9.266  0.00  0.00    -0.126 OA
ATOM     17  O   UNL     1       4.340   1.786   8.139  0.00  0.00    -0.126 OA
ENDBRANCH  13  15
ENDBRANCH   7   9
ENDBRANCH   4   7
BRANCH   1  18
ATOM     18  C   UNL     1       3.648   2.188  -0.404  0.00  0.00    +0.141 C 
BRANCH  18  21
ATOM     19  C   UNL     1       0.004   1.379   0.172  0.00  0.00    +0.002 A 
ATOM     20  C   UNL     1       1.178   2.086  -0.013  0.00  0.00    +0.005 A 
ATOM     21  C   UNL     1       2.371   1.414  -0.202  0.00  0.00    -0.029 A 
ATOM     22  C   UNL     1       2.394   0.033  -0.205  0.00  0.00    +0.028 A 
ATOM     23  C   UNL     1       1.217  -0.680  -0.018  0.00  0.00    +0.034 A 
ATOM     24  C   UNL     1       0.020  -0.002   0.170  0.00  0.00    +0.023 A 
BRANCH  23  25
ATOM     25  N   UNL     1       1.237  -2.080  -0.021  0.00  0.00    -0.283 N 
ATOM     26  C   UNL     1       2.311  -2.739   0.458  0.00  0.00    +0.246 C 
ATOM     27  O   UNL     1       3.217  -2.125   0.978  0.00  0.00    -0.273 OA
ATOM     28  H   UNL     1       0.479  -2.575  -0.368  0.00  0.00    +0.155 HD
BRANCH  26  29
ATOM     29  C   UNL     1       2.384  -4.240   0.346  0.00  0.00    +0.204 C 
ATOM     30  C   UNL     1       1.272  -4.884   1.202  0.00  0.00    +0.043 C 
ATOM     31  C   UNL     1       1.996  -6.118   1.808  0.00  0.00    +0.031 C 
ATOM     32  C   UNL     1       3.430  -5.560   1.984  0.00  0.00    +0.161 C 
ATOM     33  O   UNL     1       3.643  -4.704   0.849  0.00  0.00    -0.367 OA
ENDBRANCH  26  29
ENDBRANCH  23  25
ENDBRANCH  18  21
ENDBRANCH   1  18
TORSDOF 7
