REMARK  Name = ZINC20852555
REMARK  5 active torsions:
REMARK  status: ('A' for Active; 'I' for Inactive)
REMARK    1  A    between atoms: C_4  and  C_7
REMARK    2  A    between atoms: C_10  and  C_12
REMARK    3  A    between atoms: C_12  and  C_14
REMARK    4  A    between atoms: C_12  and  N_21
REMARK    5  A    between atoms: N_21  and  C_22
REMARK                            x       y       z     vdW  Elec       q    Type
REMARK                         _______ _______ _______ _____ _____    ______ ____
ROOT
ATOM      1  C   UNL     1       2.638   4.064   0.578  0.00  0.00    +0.049 C 
ENDROOT
BRANCH   1   2
ATOM      2  C   UNL     1       3.690   4.149  -0.497  0.00  0.00    -0.051 A 
ATOM      3  C   UNL     1       3.344   4.556  -1.772  0.00  0.00    +0.002 A 
ATOM      4  C   UNL     1       4.309   4.639  -2.758  0.00  0.00    +0.002 A 
ATOM      5  C   UNL     1       5.620   4.304  -2.472  0.00  0.00    +0.020 A 
ATOM      6  C   UNL     1       5.966   3.891  -1.198  0.00  0.00    +0.041 A 
ATOM      7  C   UNL     1       5.000   3.814  -0.210  0.00  0.00    +0.022 A 
ATOM      8 CL   UNL     1       7.611   3.470  -0.839  0.00  0.00    -0.084 Cl
ENDBRANCH   1   2
BRANCH   1  12
ATOM      9  C   UNL     1       2.343   7.173   2.416  0.00  0.00    +0.248 A 
ATOM     10  N   UNL     1       1.681   7.430   1.312  0.00  0.00    -0.107 NA
ATOM     11  N   UNL     1       1.710   6.394   0.550  0.00  0.00    -0.113 NA
ATOM     12  C   UNL     1       2.377   5.440   1.136  0.00  0.00    +0.208 A 
ATOM     13  O   UNL     1       2.797   5.907   2.324  0.00  0.00    -0.422 OA
BRANCH   9  17
ATOM     14  C   UNL     1       2.946   9.837   5.669  0.00  0.00    +0.000 A 
ATOM     15  C   UNL     1       2.221  10.250   4.566  0.00  0.00    +0.001 A 
ATOM     16  C   UNL     1       2.022   9.390   3.506  0.00  0.00    +0.013 A 
ATOM     17  C   UNL     1       2.553   8.100   3.548  0.00  0.00    +0.038 A 
ATOM     18  C   UNL     1       3.279   7.687   4.667  0.00  0.00    +0.013 A 
ATOM     19  C   UNL     1       3.476   8.559   5.718  0.00  0.00    +0.001 A 
ENDBRANCH   9  17
ENDBRANCH   1  12
BRANCH   1  20
ATOM     20  N   UNL     1       1.397   3.524   0.008  0.00  0.00    +0.391 N 
ATOM     21  H   UNL     1       0.540   3.862   0.608  0.00  0.00    -0.084 HD
ATOM     22  H   UNL     1       1.283   3.881  -1.027  0.00  0.00    -0.084 HD
BRANCH  20  23
ATOM     23  C   UNL     1       1.417   2.055  -0.000  0.00  0.00    -0.070 C 
ATOM     24  C   UNL     1      -0.019   1.526   0.010  0.00  0.00    -0.016 C 
ATOM     25  C   UNL     1       0.002  -0.004   0.002  0.00  0.00    -0.002 C 
ATOM     26  C   UNL     1       0.718  -0.497  -1.257  0.00  0.00    -0.000 C 
ATOM     27  C   UNL     1       2.154   0.032  -1.268  0.00  0.00    -0.002 C 
ATOM     28  C   UNL     1       2.133   1.562  -1.259  0.00  0.00    -0.016 C 
ENDBRANCH  20  23
ENDBRANCH   1  20
TORSDOF 5
