REMARK  Name = ZINC63486207
REMARK  7 active torsions:
REMARK  status: ('A' for Active; 'I' for Inactive)
REMARK    1  A    between atoms: C_1  and  C_2
REMARK    2  A    between atoms: C_6  and  O_8
REMARK    3  A    between atoms: O_8  and  C_9
REMARK    4  A    between atoms: C_9  and  C_10
REMARK    5  A    between atoms: N_12  and  C_13
REMARK    6  A    between atoms: C_13  and  C_14
REMARK    7  A    between atoms: C_14  and  C_15
REMARK                            x       y       z     vdW  Elec       q    Type
REMARK                         _______ _______ _______ _____ _____    ______ ____
ROOT
ATOM      1  C   UNL     1       0.045  -1.975   3.584  0.00  0.00    +0.324 C 
ENDROOT
BRANCH   1   2
ATOM      2  C   UNL     1       0.063  -2.891   4.781  0.00  0.00    +0.251 C 
ATOM      3  O   UNL     1       0.079  -4.094   4.623  0.00  0.00    -0.272 OA
ATOM      4  N   UNL     1       0.061  -2.374   6.026  0.00  0.00    -0.312 N 
ATOM      5  H   UNL     1       0.048  -1.413   6.151  0.00  0.00    +0.149 HD
BRANCH   4   6
ATOM      6  C   UNL     1       0.078  -3.265   7.189  0.00  0.00    +0.108 C 
BRANCH   6   7
ATOM      7  C   UNL     1       0.071  -2.430   8.470  0.00  0.00    +0.052 C 
BRANCH   7   8
ATOM      8  C   UNL     1       0.089  -3.346   9.667  0.00  0.00    -0.040 C 
ATOM      9  C   UNL     1       1.173  -3.747  10.369  0.00  0.00    +0.000 A 
ATOM     10  C   UNL     1       2.607  -3.460  10.233  0.00  0.00    +0.030 A 
ATOM     11  C   UNL     1       3.474  -4.022  11.107  0.00  0.00    +0.042 A 
ATOM     12  C   UNL     1       3.038  -4.869  12.137  0.00  0.00    +0.022 A 
ATOM     13  C   UNL     1       1.738  -5.178  12.325  0.00  0.00    +0.027 A 
ATOM     14  C   UNL     1       0.739  -4.643  11.464  0.00  0.00    +0.043 A 
ATOM     15  N   UNL     1      -0.563  -4.791  11.440  0.00  0.00    -0.380 N 
ATOM     16  C   UNL     1      -1.104  -3.999  10.330  0.00  0.00    +0.144 C 
ATOM     17 CL   UNL     1       5.170  -3.686  10.950  0.00  0.00    -0.084 Cl
ATOM     18  H   UNL     1      -1.083  -5.330  12.056  0.00  0.00    +0.160 HD
ENDBRANCH   7   8
ENDBRANCH   6   7
ENDBRANCH   4   6
ENDBRANCH   1   2
BRANCH   1  19
ATOM     19  O   UNL     1       0.051  -2.755   2.387  0.00  0.00    -0.482 OA
BRANCH  19  25
ATOM     20  C   UNL     1      -0.018   1.503   0.010  0.00  0.00    +0.044 C 
ATOM     21  C   UNL     1       0.002  -0.004   0.002  0.00  0.00    -0.043 A 
ATOM     22  C   UNL     1       0.005  -0.680  -1.202  0.00  0.00    +0.050 A 
ATOM     23  C   UNL     1       0.025  -2.067  -1.221  0.00  0.00    +0.143 A 
ATOM     24  C   UNL     1       0.042  -2.776  -0.007  0.00  0.00    +0.063 A 
ATOM     25  C   UNL     1       0.037  -2.079   1.211  0.00  0.00    +0.132 A 
ATOM     26  C   UNL     1       0.023  -0.695   1.202  0.00  0.00    +0.050 A 
ATOM     27  C   UNL     1       0.065  -4.239  -0.038  0.00  0.00    -0.023 A 
ATOM     28  C   UNL     1       0.073  -4.859  -1.245  0.00  0.00    +0.041 A 
ATOM     29  C   UNL     1       0.057  -4.083  -2.426  0.00  0.00    +0.341 A 
ATOM     30  O   UNL     1       0.068  -4.646  -3.505  0.00  0.00    -0.245 OA
ATOM     31  O   UNL     1       0.029  -2.742  -2.391  0.00  0.00    -0.422 OA
ATOM     32  C   UNL     1       0.098  -6.361  -1.056  0.00  0.00    +0.043 C 
ATOM     33  C   UNL     1       0.540  -6.575   0.408  0.00  0.00    +0.010 C 
ATOM     34  C   UNL     1       0.084  -5.259   1.077  0.00  0.00    +0.037 C 
ENDBRANCH  19  25
ENDBRANCH   1  19
TORSDOF 6
