REMARK  Name = ZINC65690433
REMARK  8 active torsions:
REMARK  status: ('A' for Active; 'I' for Inactive)
REMARK    1  A    between atoms: C_1  and  C_2
REMARK    2  A    between atoms: C_6  and  C_8
REMARK    3  A    between atoms: C_6  and  C_9
REMARK    4  A    between atoms: N_12  and  C_13
REMARK    5  A    between atoms: C_13  and  C_14
REMARK    6  A    between atoms: C_13  and  C_15
REMARK    7  A    between atoms: C_15  and  O_16
REMARK    8  A    between atoms: O_16  and  C_17
REMARK                            x       y       z     vdW  Elec       q    Type
REMARK                         _______ _______ _______ _____ _____    ______ ____
ROOT
ATOM      1  C   UNL     1      -0.025   1.524   0.013  0.00  0.00    +0.039 C 
ATOM      2  C   UNL     1      -0.002  -0.006   0.004  0.00  0.00    +0.133 C 
ATOM      3  C   UNL     1       0.722  -0.500  -1.254  0.00  0.00    +0.140 C 
ATOM      4  N   UNL     1       0.895  -1.957  -1.148  0.00  0.00    -0.280 N 
ATOM      5  C   UNL     1       1.481  -2.496   0.090  0.00  0.00    +0.143 C 
ATOM      6  C   UNL     1       0.720  -1.905   1.282  0.00  0.00    +0.080 C 
ATOM      7  O   UNL     1       0.689  -0.481   1.161  0.00  0.00    -0.368 OA
ATOM      8  C   UNL     1      -0.710  -2.448   1.295  0.00  0.00    +0.043 C 
ATOM      9  C   UNL     1       1.427  -2.292   2.582  0.00  0.00    +0.043 C 
ATOM     10  C   UNL     1       0.528  -2.775  -2.155  0.00  0.00    +0.303 C 
ATOM     11  O   UNL     1       0.762  -3.966  -2.087  0.00  0.00    -0.253 OA
ATOM     12  N   UNL     1      -0.098  -2.272  -3.237  0.00  0.00    -0.293 N 
ATOM     13  H   UNL     1      -0.219  -1.313  -3.326  0.00  0.00    +0.151 HD
ENDROOT
BRANCH  12  14
ATOM     14  C   UNL     1      -0.595  -3.172  -4.280  0.00  0.00    +0.109 C 
ATOM     15  C   UNL     1       0.534  -3.489  -5.262  0.00  0.00    +0.031 C 
BRANCH  14  16
ATOM     16  C   UNL     1      -1.748  -2.499  -5.028  0.00  0.00    +0.251 C 
BRANCH  16  17
ATOM     17  O   UNL     1      -1.258  -1.350  -5.723  0.00  0.00    -0.487 OA
BRANCH  17  18
ATOM     18  C   UNL     1      -2.162  -0.633  -6.442  0.00  0.00    +0.156 A 
ATOM     19  C   UNL     1      -3.492  -1.023  -6.475  0.00  0.00    +0.048 A 
ATOM     20  C   UNL     1      -4.408  -0.293  -7.207  0.00  0.00    +0.004 A 
ATOM     21  C   UNL     1      -4.000   0.827  -7.908  0.00  0.00    +0.003 A 
ATOM     22  C   UNL     1      -2.675   1.219  -7.879  0.00  0.00    +0.042 A 
ATOM     23  C   UNL     1      -1.755   0.496  -7.143  0.00  0.00    +0.165 A 
ATOM     24  F   UNL     1      -0.461   0.882  -7.109  0.00  0.00    -0.202 F 
ENDBRANCH  17  18
ENDBRANCH  16  17
ENDBRANCH  14  16
ENDBRANCH  12  14
TORSDOF 4
