REMARK  Name = ZINC67242758
REMARK  5 active torsions:
REMARK  status: ('A' for Active; 'I' for Inactive)
REMARK    1  A    between atoms: C_1  and  C_2
REMARK    2  A    between atoms: C_2  and  N_3
REMARK    3  A    between atoms: C_4  and  C_6
REMARK    4  A    between atoms: C_6  and  N_7
REMARK    5  A    between atoms: C_13  and  C_15
REMARK                            x       y       z     vdW  Elec       q    Type
REMARK                         _______ _______ _______ _____ _____    ______ ____
ROOT
ATOM      1  N   UNL     1       1.552  -3.749  -2.673  0.00  0.00    -0.261 N 
ATOM      2  C   UNL     1       1.097  -4.543  -3.665  0.00  0.00    +0.111 A 
ATOM      3  C   UNL     1       1.294  -5.828  -3.292  0.00  0.00    +0.065 A 
ATOM      4  C   UNL     1       1.894  -5.821  -2.023  0.00  0.00    +0.147 A 
ATOM      5  N   UNL     1       2.053  -4.571  -1.655  0.00  0.00    -0.156 NA
ATOM      6  N   UNL     1       2.263  -6.951  -1.280  0.00  0.00    -0.269 N 
ATOM      7  C   UNL     1       2.048  -8.184  -1.778  0.00  0.00    +0.225 C 
ATOM      8  O   UNL     1       1.535  -8.317  -2.869  0.00  0.00    -0.275 OA
ATOM      9  H   UNL     1       2.673  -6.845  -0.408  0.00  0.00    +0.156 HD
ENDROOT
BRANCH   7  10
ATOM     10  C   UNL     1       2.445  -9.399  -0.980  0.00  0.00    +0.117 C 
ATOM     11  C   UNL     1       2.083 -10.668  -1.757  0.00  0.00    +0.055 C 
ATOM     12  C   UNL     1       2.202 -11.868  -0.852  0.00  0.00    -0.004 A 
ATOM     13  C   UNL     1       2.289 -13.127  -1.423  0.00  0.00    +0.027 A 
ATOM     14  C   UNL     1       2.395 -14.249  -0.624  0.00  0.00    +0.041 A 
ATOM     15  C   UNL     1       2.414 -14.118   0.753  0.00  0.00    +0.023 A 
ATOM     16  C   UNL     1       2.329 -12.866   1.327  0.00  0.00    +0.047 A 
ATOM     17  C   UNL     1       2.224 -11.734   0.525  0.00  0.00    +0.124 A 
ATOM     18  O   UNL     1       2.153 -10.518   1.127  0.00  0.00    -0.491 OA
ATOM     19  C   UNL     1       1.683  -9.415   0.351  0.00  0.00    +0.242 C 
ATOM     20 CL   UNL     1       2.505 -15.823  -1.348  0.00  0.00    -0.084 Cl
ENDBRANCH   7  10
BRANCH   1  21
ATOM     21  C   UNL     1       1.532  -2.285  -2.665  0.00  0.00    +0.239 C 
BRANCH  21  23
ATOM     22  N   UNL     1       0.688  -0.476  -1.203  0.00  0.00    -0.314 N 
ATOM     23  C   UNL     1       0.827  -1.799  -1.425  0.00  0.00    +0.234 C 
ATOM     24  O   UNL     1       0.384  -2.597  -0.627  0.00  0.00    -0.274 OA
ATOM     25  H   UNL     1       1.042   0.162  -1.842  0.00  0.00    +0.149 HD
BRANCH  22  27
ATOM     26  C   UNL     1      -0.019   1.526   0.010  0.00  0.00    +0.024 C 
ATOM     27  C   UNL     1       0.002  -0.004   0.002  0.00  0.00    +0.101 C 
ENDBRANCH  22  27
ENDBRANCH  21  23
ENDBRANCH   1  21
TORSDOF 4
