REMARK  Name = ZINC00493704
REMARK  5 active torsions:
REMARK  status: ('A' for Active; 'I' for Inactive)
REMARK    1  A    between atoms: C_2  and  O_3
REMARK    2  A    between atoms: O_3  and  C_4
REMARK    3  A    between atoms: C_7  and  C_10
REMARK    4  A    between atoms: C_12  and  C_23
REMARK    5  A    between atoms: C_13  and  N_22
REMARK                            x       y       z     vdW  Elec       q    Type
REMARK                         _______ _______ _______ _____ _____    ______ ____
ROOT
ATOM      1  C   UNL     1      -7.128   3.946  -0.375  0.00  0.00    +0.101 C 
ATOM      2  C   UNL     1      -7.144   4.706  -1.671  0.00  0.00    +0.098 C 
ATOM      3  C   UNL     1      -6.866   6.032  -1.691  0.00  0.00    +0.198 C 
ATOM      4  O   UNL     1      -6.566   6.701  -0.567  0.00  0.00    -0.445 OA
ATOM      5  C   UNL     1      -6.944   6.208   0.627  0.00  0.00    +0.115 C 
ATOM      6  C   UNL     1      -7.228   4.903   0.788  0.00  0.00    +0.046 C 
ATOM      7  C   UNL     1      -7.626   4.389   2.038  0.00  0.00    +0.163 C 
ATOM      8  O   UNL     1      -7.854   3.201   2.148  0.00  0.00    -0.292 OA
ATOM      9  C   UNL     1      -7.775   5.285   3.237  0.00  0.00    +0.080 C 
ATOM     10  C   UNL     1      -8.127   6.697   2.758  0.00  0.00    +0.016 C 
ATOM     11  C   UNL     1      -7.039   7.167   1.791  0.00  0.00    +0.075 C 
ENDROOT
BRANCH   1  15
ATOM     12  C   UNL     1      -3.486   1.730  -0.077  0.00  0.00    +0.128 A 
ATOM     13  C   UNL     1      -3.451   3.113  -0.172  0.00  0.00    +0.046 A 
ATOM     14  C   UNL     1      -4.630   3.827  -0.274  0.00  0.00    +0.008 A 
ATOM     15  C   UNL     1      -5.843   3.164  -0.270  0.00  0.00    -0.034 A 
ATOM     16  C   UNL     1      -5.880   1.786  -0.169  0.00  0.00    +0.008 A 
ATOM     17  C   UNL     1      -4.705   1.067  -0.073  0.00  0.00    +0.046 A 
BRANCH  12  18
ATOM     18  O   UNL     1      -2.328   1.025   0.019  0.00  0.00    -0.464 OA
BRANCH  18  20
ATOM     19  C   UNL     1      -1.301  -1.051  -0.008  0.00  0.00    +0.049 C 
ATOM     20  C   UNL     1      -2.403  -0.329   0.002  0.00  0.00    +0.188 C 
ENDBRANCH  18  20
ENDBRANCH  12  18
ENDBRANCH   1  15
BRANCH   3  21
ATOM     21  N   UNL     1      -6.893   6.706  -2.887  0.00  0.00    -0.328 N 
ATOM     22  H   UNL     1      -6.696   7.656  -2.913  0.00  0.00    +0.145 HD
ATOM     23  H   UNL     1      -7.109   6.233  -3.706  0.00  0.00    +0.145 HD
ENDBRANCH   3  21
BRANCH   2  24
ATOM     24  C   UNL     1      -7.454   4.025  -2.892  0.00  0.00    +0.101 C 
ATOM     25  N   UNL     1      -7.700   3.485  -3.861  0.00  0.00    -0.191 NA
ENDBRANCH   2  24
TORSDOF 5
