REMARK  Name = ZINC01600204
REMARK  4 active torsions:
REMARK  status: ('A' for Active; 'I' for Inactive)
REMARK    1  A    between atoms: C_1  and  C_2
REMARK    2  A    between atoms: C_2  and  C_9
REMARK    3  A    between atoms: C_9  and  C_10
REMARK    4  A    between atoms: C_10  and  C_17
REMARK                            x       y       z     vdW  Elec       q    Type
REMARK                         _______ _______ _______ _____ _____    ______ ____
ROOT
ATOM      1  C   UNL     1       1.635   1.714  -0.000  0.00  0.00    +0.140 C 
ATOM      2  C   UNL     1       0.220   1.186  -0.135  0.00  0.00    +0.249 C 
ATOM      3  O   UNL     1      -0.795   1.837  -0.263  0.00  0.00    -0.273 OA
ATOM      4  N   UNL     1       0.327  -0.157  -0.089  0.00  0.00    -0.238 N 
ATOM      5  C   UNL     1       1.598  -0.546   0.055  0.00  0.00    +0.307 C 
ATOM      6  O   UNL     1       1.945  -1.709   0.122  0.00  0.00    -0.252 OA
ATOM      7  N   UNL     1       2.450   0.493   0.117  0.00  0.00    -0.281 N 
ATOM      8  H   UNL     1      -0.426  -0.765  -0.152  0.00  0.00    +0.159 HD
ATOM      9  H   UNL     1       3.414   0.447   0.219  0.00  0.00    +0.152 HD
ENDROOT
BRANCH   1  10
ATOM     10  C   UNL     1       2.027   2.498  -1.226  0.00  0.00    -0.015 A 
ATOM     11  C   UNL     1       1.794   3.859  -1.280  0.00  0.00    +0.006 A 
ATOM     12  C   UNL     1       2.159   4.579  -2.402  0.00  0.00    +0.000 A 
ATOM     13  C   UNL     1       2.748   3.936  -3.475  0.00  0.00    +0.000 A 
ATOM     14  C   UNL     1       2.976   2.573  -3.423  0.00  0.00    +0.000 A 
ATOM     15  C   UNL     1       2.616   1.854  -2.299  0.00  0.00    +0.006 A 
ENDBRANCH   1  10
BRANCH   1  16
ATOM     16  C   UNL     1       1.771   2.575   1.257  0.00  0.00    +0.075 C 
BRANCH  16  18
ATOM     17  C   UNL     1       1.521   2.577   3.760  0.00  0.00    +0.042 C 
ATOM     18  C   UNL     1       1.504   1.716   2.495  0.00  0.00    +0.112 C 
ATOM     19  C   UNL     1       2.522   0.597   2.597  0.00  0.00    +0.244 C 
ATOM     20  O   UNL     1       3.723   0.709   2.719  0.00  0.00    -0.273 OA
ATOM     21  N   UNL     1       1.813  -0.547   2.525  0.00  0.00    -0.238 N 
ATOM     22  C   UNL     1       0.503  -0.310   2.393  0.00  0.00    +0.307 C 
ATOM     23  O   UNL     1      -0.337  -1.184   2.309  0.00  0.00    -0.252 OA
ATOM     24  N   UNL     1       0.220   1.005   2.365  0.00  0.00    -0.285 N 
ATOM     25  H   UNL     1       2.205  -1.434   2.565  0.00  0.00    +0.159 HD
ATOM     26  H   UNL     1      -0.659   1.407   2.277  0.00  0.00    +0.151 HD
ENDBRANCH  16  18
ENDBRANCH   1  16
TORSDOF 3
