REMARK  Name = ZINC13956920
REMARK  8 active torsions:
REMARK  status: ('A' for Active; 'I' for Inactive)
REMARK    1  A    between atoms: C_1  and  C_2
REMARK    2  A    between atoms: C_7  and  C_10
REMARK    3  A    between atoms: N_15  and  C_16
REMARK    4  A    between atoms: C_16  and  C_17
REMARK    5  A    between atoms: C_17  and  C_18
REMARK    6  A    between atoms: C_18  and  S_19
REMARK    7  A    between atoms: S_19  and  C_20
REMARK    8  A    between atoms: N_33  and  C_34
REMARK                            x       y       z     vdW  Elec       q    Type
REMARK                         _______ _______ _______ _____ _____    ______ ____
ROOT
ATOM      1  C   UNL     1      -1.876  -3.857   2.245  0.00  0.00    +0.039 C 
ATOM      2  C   UNL     1      -2.444  -2.634   1.522  0.00  0.00    +0.133 C 
ATOM      3  C   UNL     1      -1.770  -1.367   2.056  0.00  0.00    +0.139 C 
ATOM      4  N   UNL     1      -2.374  -0.190   1.413  0.00  0.00    -0.296 N 
ATOM      5  C   UNL     1      -3.820  -0.140   1.671  0.00  0.00    +0.139 C 
ATOM      6  C   UNL     1      -4.473  -1.419   1.141  0.00  0.00    +0.133 C 
ATOM      7  O   UNL     1      -3.853  -2.553   1.754  0.00  0.00    -0.371 OA
ATOM      8  C   UNL     1      -5.965  -1.409   1.478  0.00  0.00    +0.039 C 
ATOM      9  C   UNL     1      -1.758   0.968   1.828  0.00  0.00    +0.201 A 
ATOM     10  N   UNL     1      -2.089   1.667   2.895  0.00  0.00    -0.196 NA
ATOM     11  C   UNL     1      -1.293   2.732   3.007  0.00  0.00    +0.170 A 
ATOM     12  C   UNL     1      -0.397   2.699   1.945  0.00  0.00    +0.153 A 
ATOM     13  N   UNL     1      -0.713   1.571   1.200  0.00  0.00    -0.306 N 
ATOM     14  C   UNL     1       0.558   3.724   1.821  0.00  0.00    +0.280 A 
ATOM     15  O   UNL     1       1.351   3.719   0.895  0.00  0.00    -0.265 OA
ATOM     16  N   UNL     1       0.594   4.708   2.743  0.00  0.00    -0.273 N 
ATOM     17  H   UNL     1       1.340   5.512   2.660  0.00  0.00    +0.173 HD
ATOM     18  C   UNL     1      -0.274   4.727   3.769  0.00  0.00    +0.331 A 
ATOM     19  O   UNL     1      -0.213   5.631   4.581  0.00  0.00    -0.246 OA
ATOM     20  N   UNL     1      -1.208   3.770   3.921  0.00  0.00    -0.280 N 
ATOM     21  C   UNL     1      -2.136   3.825   5.054  0.00  0.00    +0.155 C 
ENDROOT
BRANCH  13  22
ATOM     22  C   UNL     1      -0.046   1.114  -0.021  0.00  0.00    +0.126 C 
BRANCH  22  23
ATOM     23  C   UNL     1      -0.806   1.635  -1.243  0.00  0.00    +0.033 C 
BRANCH  23  24
ATOM     24  C   UNL     1      -0.109   1.158  -2.518  0.00  0.00    +0.076 C 
BRANCH  24  25
ATOM     25  S   UNL     1      -1.010   1.776  -3.967  0.00  0.00    -0.125 S 
BRANCH  25  26
ATOM     26  C   UNL     1      -0.095   1.149  -5.337  0.00  0.00    +0.008 A 
ATOM     27  C   UNL     1       1.040   0.378  -5.121  0.00  0.00    +0.017 A 
ATOM     28  C   UNL     1       1.752  -0.116  -6.196  0.00  0.00    +0.039 A 
ATOM     29  C   UNL     1       1.342   0.166  -7.489  0.00  0.00    +0.123 A 
ATOM     30  C   UNL     1       0.213   0.939  -7.706  0.00  0.00    +0.039 A 
ATOM     31  C   UNL     1      -0.505   1.431  -6.634  0.00  0.00    +0.017 A 
ATOM     32  F   UNL     1       2.042  -0.314  -8.539  0.00  0.00    -0.205 F 
ENDBRANCH  25  26
ENDBRANCH  24  25
ENDBRANCH  23  24
ENDBRANCH  22  23
ENDBRANCH  13  22
TORSDOF 5
