REMARK  Name = ZINC45127444
REMARK  4 active torsions:
REMARK  status: ('A' for Active; 'I' for Inactive)
REMARK    1  A    between atoms: N_9  and  C_11
REMARK    2  A    between atoms: C_11  and  C_12
REMARK    3  A    between atoms: C_12  and  N_13
REMARK    4  A    between atoms: N_16  and  C_17
REMARK                            x       y       z     vdW  Elec       q    Type
REMARK                         _______ _______ _______ _____ _____    ______ ____
ROOT
ATOM      1  N   UNL     1       7.184  -2.877   0.988  0.00  0.00    -0.301 N 
ATOM      2  C   UNL     1       8.254  -2.516   1.723  0.00  0.00    +0.300 C 
ATOM      3  O   UNL     1       8.161  -1.609   2.529  0.00  0.00    -0.253 OA
ATOM      4  N   UNL     1       9.428  -3.158   1.566  0.00  0.00    -0.292 N 
ATOM      5  H   UNL     1       7.259  -3.600   0.346  0.00  0.00    +0.150 HD
ATOM      6  H   UNL     1       9.503  -3.881   0.923  0.00  0.00    +0.151 HD
ENDROOT
BRANCH   4   7
ATOM      7  C   UNL     1      10.592  -2.765   2.365  0.00  0.00    +0.111 C 
ATOM      8  C   UNL     1      11.550  -3.952   2.487  0.00  0.00    +0.068 C 
ATOM      9  C   UNL     1      12.878  -3.442   3.062  0.00  0.00    +0.231 C 
ATOM     10  O   UNL     1      13.461  -2.543   2.119  0.00  0.00    -0.492 OA
ATOM     11  C   UNL     1      12.675  -1.560   1.609  0.00  0.00    +0.125 A 
ATOM     12  C   UNL     1      11.295  -1.613   1.693  0.00  0.00    +0.015 A 
ATOM     13  C   UNL     1      10.533  -0.590   1.154  0.00  0.00    +0.009 A 
ATOM     14  C   UNL     1      11.144   0.483   0.535  0.00  0.00    +0.001 A 
ATOM     15  C   UNL     1      12.523   0.539   0.452  0.00  0.00    +0.004 A 
ATOM     16  C   UNL     1      13.287  -0.476   0.987  0.00  0.00    +0.046 A 
ENDBRANCH   4   7
BRANCH   1  17
ATOM     17  C   UNL     1       5.908  -2.179   1.160  0.00  0.00    +0.087 C 
BRANCH  17  18
ATOM     18  C   UNL     1       4.866  -2.780   0.214  0.00  0.00    -0.059 C 
BRANCH  18  27
ATOM     19  C   UNL     1      -0.017   1.376   0.010  0.00  0.00    +0.000 A 
ATOM     20  C   UNL     1       1.173   2.080   0.002  0.00  0.00    +0.000 A 
ATOM     21  C   UNL     1       2.375   1.401  -0.015  0.00  0.00    +0.002 A 
ATOM     22  C   UNL     1       2.395   0.014  -0.023  0.00  0.00    -0.061 A 
ATOM     23  C   UNL     1       1.208  -0.687  -0.013  0.00  0.00    -0.048 A 
ATOM     24  C   UNL     1       0.002  -0.004   0.002  0.00  0.00    +0.004 A 
ATOM     25  C   UNL     1       1.186  -2.194  -0.014  0.00  0.00    +0.017 C 
ATOM     26  C   UNL     1       2.554  -2.732  -0.434  0.00  0.00    -0.074 C 
ATOM     27  N   UNL     1       3.587  -2.079   0.386  0.00  0.00    +0.384 N 
ATOM     28  C   UNL     1       3.728  -0.686  -0.046  0.00  0.00    -0.043 C 
ATOM     29  H   UNL     1       3.313  -2.106   1.357  0.00  0.00    -0.081 HD
ENDBRANCH  18  27
ENDBRANCH  17  18
ENDBRANCH   1  17
TORSDOF 4
