REMARK  Name = ZINC67620163
REMARK  14 active torsions:
REMARK  status: ('A' for Active; 'I' for Inactive)
REMARK    1  A    between atoms: C_1  and  C_2
REMARK    2  A    between atoms: C_4  and  O_29
REMARK    3  A    between atoms: C_5  and  O_27
REMARK    4  A    between atoms: C_7  and  C_8
REMARK    5  A    between atoms: C_8  and  C_10
REMARK    6  A    between atoms: C_8  and  N_11
REMARK    7  A    between atoms: N_14  and  C_15
REMARK    8  A    between atoms: C_15  and  C_16
REMARK    9  A    between atoms: C_16  and  C_18
REMARK   10  A    between atoms: C_16  and  O_26
REMARK   11  A    between atoms: C_18  and  N_19
REMARK   12  A    between atoms: C_22  and  C_25
REMARK   13  A    between atoms: O_27  and  C_28
REMARK   14  A    between atoms: O_29  and  C_30
REMARK                            x       y       z     vdW  Elec       q    Type
REMARK                         _______ _______ _______ _____ _____    ______ ____
ROOT
ATOM      1  N   UNL     1       0.920  -0.765   3.394  0.00  0.00    -0.293 N 
ATOM      2  C   UNL     1       1.412  -0.196   4.513  0.00  0.00    +0.300 C 
ATOM      3  O   UNL     1       1.378   1.012   4.646  0.00  0.00    -0.253 OA
ATOM      4  N   UNL     1       1.942  -0.966   5.484  0.00  0.00    -0.297 N 
ATOM      5  H   UNL     1       0.948  -1.729   3.288  0.00  0.00    +0.151 HD
ATOM      6  H   UNL     1       1.970  -1.930   5.378  0.00  0.00    +0.150 HD
ENDROOT
BRANCH   1   7
ATOM      7  C   UNL     1       0.344   0.072   2.339  0.00  0.00    +0.102 C 
ATOM      8  C   UNL     1      -1.123   0.361   2.661  0.00  0.00    +0.033 C 
BRANCH   7  15
ATOM      9  C   UNL     1       0.386   1.575  -0.124  0.00  0.00    +0.044 C 
ATOM     10  C   UNL     1       0.456   0.070  -0.160  0.00  0.00    -0.042 A 
ATOM     11  C   UNL     1       0.546  -0.587  -1.374  0.00  0.00    +0.053 A 
ATOM     12  C   UNL     1       0.611  -1.970  -1.409  0.00  0.00    +0.162 A 
ATOM     13  C   UNL     1       0.585  -2.695  -0.221  0.00  0.00    +0.162 A 
ATOM     14  C   UNL     1       0.495  -2.031   0.991  0.00  0.00    +0.055 A 
ATOM     15  C   UNL     1       0.436  -0.650   1.019  0.00  0.00    -0.021 A 
BRANCH  13  16
ATOM     16  O   UNL     1       0.648  -4.054  -0.251  0.00  0.00    -0.491 OA
ATOM     17  C   UNL     1       0.617  -4.732   1.007  0.00  0.00    +0.277 C 
ENDBRANCH  13  16
BRANCH  12  18
ATOM     18  O   UNL     1       0.699  -2.618  -2.601  0.00  0.00    -0.491 OA
ATOM     19  C   UNL     1       0.720  -1.809  -3.779  0.00  0.00    +0.277 C 
ENDBRANCH  12  18
ENDBRANCH   7  15
ENDBRANCH   1   7
BRANCH   4  20
ATOM     20  C   UNL     1       2.477  -0.347   6.700  0.00  0.00    +0.135 C 
BRANCH  20  21
ATOM     21  C   UNL     1       3.014  -1.435   7.632  0.00  0.00    +0.115 C 
BRANCH  21  22
ATOM     22  O   UNL     1       1.955  -2.331   7.978  0.00  0.00    -0.392 OA
ATOM     23  H   UNL     1       1.214  -1.907   8.432  0.00  0.00    +0.210 HD
ENDBRANCH  21  22
BRANCH  21  24
ATOM     24  C   UNL     1       3.572  -0.789   8.901  0.00  0.00    -0.046 C 
BRANCH  24  25
ATOM     25  N   UNL     1       4.101  -1.833   9.789  0.00  0.00    +0.381 N 
ATOM     26  C   UNL     1       4.495  -1.231  11.069  0.00  0.00    -0.078 C 
ATOM     27  C   UNL     1       4.972  -2.325  12.027  0.00  0.00    -0.016 C 
ATOM     28  C   UNL     1       6.173  -3.048  11.410  0.00  0.00    -0.018 C 
ATOM     29  C   UNL     1       5.771  -3.608  10.042  0.00  0.00    -0.016 C 
ATOM     30  C   UNL     1       5.265  -2.466   9.158  0.00  0.00    -0.078 C 
ATOM     31  C   UNL     1       6.605  -4.195  12.325  0.00  0.00    +0.007 C 
ATOM     32  H   UNL     1       3.389  -2.528   9.952  0.00  0.00    -0.082 HD
ENDBRANCH  24  25
ENDBRANCH  21  24
ENDBRANCH  20  21
ENDBRANCH   4  20
TORSDOF 9
