REMARK  Name = ZINC05861851
REMARK  11 active torsions:
REMARK  status: ('A' for Active; 'I' for Inactive)
REMARK    1  A    between atoms: C_1  and  C_2
REMARK    2  A    between atoms: C_2  and  C_3
REMARK    3  A    between atoms: C_2  and  C_4
REMARK    4  A    between atoms: C_4  and  C_6
REMARK    5  A    between atoms: C_4  and  N_24
REMARK    6  A    between atoms: C_6  and  O_8
REMARK    7  A    between atoms: O_8  and  C_9
REMARK    8  A    between atoms: C_9  and  C_10
REMARK    9  A    between atoms: C_10  and  C_12
REMARK   10  A    between atoms: C_12  and  C_22
REMARK   11  A    between atoms: C_25  and  C_27
REMARK                            x       y       z     vdW  Elec       q    Type
REMARK                         _______ _______ _______ _____ _____    ______ ____
ROOT
ATOM      1  C   UNL     1       6.886   6.090   1.262  0.00  0.00    +0.312 C 
ENDROOT
BRANCH   1   2
ATOM      2  C   UNL     1       7.432   7.495   1.297  0.00  0.00    +0.214 C 
ATOM      3  O   UNL     1       6.761   8.418   0.878  0.00  0.00    -0.288 OA
BRANCH   2   4
ATOM      4  C   UNL     1       8.715   7.737   1.815  0.00  0.00    +0.133 C 
ATOM      5  C   UNL     1       9.224   9.047   1.849  0.00  0.00    +0.114 C 
ATOM      6  N   UNL     1       8.575  10.155   1.406  0.00  0.00    -0.300 N 
ATOM      7  C   UNL     1       9.400  11.255   1.610  0.00  0.00    +0.054 A 
ATOM      8  C   UNL     1       9.253  12.611   1.353  0.00  0.00    +0.025 A 
ATOM      9  C   UNL     1      10.273  13.485   1.667  0.00  0.00    +0.002 A 
ATOM     10  C   UNL     1      11.444  13.016   2.239  0.00  0.00    +0.002 A 
ATOM     11  C   UNL     1      11.601  11.669   2.498  0.00  0.00    +0.025 A 
ATOM     12  C   UNL     1      10.581  10.781   2.186  0.00  0.00    +0.054 A 
ATOM     13  N   UNL     1      10.445   9.405   2.324  0.00  0.00    -0.300 N 
ATOM     14  H   UNL     1       7.566  10.066   0.976  0.00  0.00    +0.153 HD
ATOM     15  H   UNL     1      11.125   8.639   2.725  0.00  0.00    +0.153 HD
BRANCH   4  16
ATOM     16  C   UNL     1       9.505   6.649   2.310  0.00  0.00    +0.106 C 
ATOM     17  N   UNL     1      10.131   5.786   2.702  0.00  0.00    -0.191 NA
ENDBRANCH   4  16
ENDBRANCH   2   4
ENDBRANCH   1   2
BRANCH   1  18
ATOM     18  O   UNL     1       5.553   6.103   0.686  0.00  0.00    -0.455 OA
BRANCH  18  19
ATOM     19  C   UNL     1       4.923   4.923   0.582  0.00  0.00    +0.328 C 
ATOM     20  O   UNL     1       5.466   3.912   0.960  0.00  0.00    -0.249 OA
BRANCH  19  21
ATOM     21  C   UNL     1       3.536   4.859  -0.006  0.00  0.00    +0.185 C 
BRANCH  21  22
ATOM     22  N   UNL     1       3.071   3.469  -0.009  0.00  0.00    -0.296 N 
ATOM     23  C   UNL     1       1.751   3.200   0.003  0.00  0.00    +0.280 C 
ATOM     24  O   UNL     1       0.944   4.112   0.015  0.00  0.00    -0.267 OA
ATOM     25  H   UNL     1       3.800   2.645  -0.020  0.00  0.00    +0.150 HD
BRANCH  23  26
ATOM     26  C   UNL     1       1.285   1.810  -0.001  0.00  0.00    +0.189 A 
ATOM     27  C   UNL     1      -0.017   1.399   0.010  0.00  0.00    +0.054 A 
ATOM     28  C   UNL     1       0.002  -0.004   0.002  0.00  0.00    +0.042 A 
ATOM     29  C   UNL     1       1.299  -0.384  -0.012  0.00  0.00    +0.196 A 
ATOM     30  O   UNL     1       2.069   0.712  -0.014  0.00  0.00    -0.458 OA
ENDBRANCH  23  26
ENDBRANCH  21  22
BRANCH  21  32
ATOM     31  C   UNL     1       2.158   5.324  -2.037  0.00  0.00    +0.009 C 
ATOM     32  C   UNL     1       3.565   5.390  -1.440  0.00  0.00    +0.014 C 
ATOM     33  C   UNL     1       4.051   6.841  -1.437  0.00  0.00    +0.009 C 
ENDBRANCH  21  32
ENDBRANCH  19  21
ENDBRANCH  18  19
ENDBRANCH   1  18
TORSDOF 9
