REMARK  Name = ZINC50707364
REMARK  6 active torsions:
REMARK  status: ('A' for Active; 'I' for Inactive)
REMARK    1  A    between atoms: C_1  and  C_2
REMARK    2  A    between atoms: C_2  and  C_3
REMARK    3  A    between atoms: C_6  and  N_9
REMARK    4  A    between atoms: C_10  and  C_12
REMARK    5  A    between atoms: C_14  and  N_21
REMARK    6  A    between atoms: C_17  and  N_18
REMARK                            x       y       z     vdW  Elec       q    Type
REMARK                         _______ _______ _______ _____ _____    ______ ____
ROOT
ATOM      1  N   UNL     1       4.016  -2.972  -1.937  0.00  0.00    -0.308 N 
ATOM      2  C   UNL     1       4.221  -4.276  -1.664  0.00  0.00    +0.247 C 
ATOM      3  O   UNL     1       3.992  -5.117  -2.511  0.00  0.00    -0.270 OA
ATOM      4  H   UNL     1       4.199  -2.301  -1.261  0.00  0.00    +0.149 HD
ENDROOT
BRANCH   1   8
ATOM      5  C   UNL     1       1.838  -0.293  -2.488  0.00  0.00    -0.011 C 
ATOM      6  C   UNL     1       3.365  -0.201  -2.471  0.00  0.00    +0.005 C 
ATOM      7  C   UNL     1       3.944  -1.128  -3.541  0.00  0.00    +0.022 C 
ATOM      8  C   UNL     1       3.517  -2.569  -3.254  0.00  0.00    +0.073 C 
ATOM      9  C   UNL     1       1.990  -2.661  -3.271  0.00  0.00    +0.022 C 
ATOM     10  C   UNL     1       1.411  -1.734  -2.200  0.00  0.00    +0.005 C 
BRANCH   5  12
ATOM     11  C   UNL     1       1.581   2.087  -1.773  0.00  0.00    +0.004 C 
ATOM     12  C   UNL     1       1.259   0.634  -1.417  0.00  0.00    -0.000 C 
ENDBRANCH   5  12
ENDBRANCH   1   8
BRANCH   2  13
ATOM     13  C   UNL     1       4.724  -4.684  -0.335  0.00  0.00    +0.069 A 
ATOM     14  C   UNL     1       5.904  -4.133   0.165  0.00  0.00    +0.038 A 
ATOM     15  C   UNL     1       6.370  -4.520   1.413  0.00  0.00    +0.025 A 
ATOM     16  C   UNL     1       5.661  -5.453   2.160  0.00  0.00    +0.025 A 
ATOM     17  C   UNL     1       4.492  -5.998   1.665  0.00  0.00    +0.035 A 
ATOM     18  C   UNL     1       4.016  -5.615   0.427  0.00  0.00    +0.138 A 
BRANCH  18  19
ATOM     19  N   UNL     1       2.760  -6.197  -0.097  0.00  0.00    +0.057 N 
ATOM     20  O   UNL     1       2.213  -7.093   0.504  0.00  0.00    -0.126 OA
ATOM     21  O   UNL     1       2.281  -5.777  -1.124  0.00  0.00    -0.126 OA
ENDBRANCH  18  19
BRANCH  15  22
ATOM     22  N   UNL     1       7.552  -3.973   1.918  0.00  0.00    -0.358 N 
ATOM     23  H   UNL     1       8.047  -3.322   1.396  0.00  0.00    +0.142 HD
ATOM     24  H   UNL     1       7.878  -4.244   2.790  0.00  0.00    +0.142 HD
ENDBRANCH  15  22
ENDBRANCH   2  13
TORSDOF 5
