REMARK  Name = ZINC15587235
REMARK  8 active torsions:
REMARK  status: ('A' for Active; 'I' for Inactive)
REMARK    1  A    between atoms: C_1  and  C_2
REMARK    2  A    between atoms: C_4  and  N_12
REMARK    3  A    between atoms: C_5  and  N_9
REMARK    4  A    between atoms: C_7  and  C_8
REMARK    5  A    between atoms: C_13  and  C_15
REMARK    6  A    between atoms: C_15  and  S_16
REMARK    7  A    between atoms: S_16  and  C_17
REMARK    8  A    between atoms: C_19  and  N_24
REMARK                            x       y       z     vdW  Elec       q    Type
REMARK                         _______ _______ _______ _____ _____    ______ ____
ROOT
ATOM      1  N   UNL     1      -5.131   0.340   0.030  0.00  0.00    -0.283 N 
ATOM      2  C   UNL     1      -4.116   1.226   0.026  0.00  0.00    +0.228 C 
ATOM      3  O   UNL     1      -4.349   2.416   0.019  0.00  0.00    -0.275 OA
ATOM      4  H   UNL     1      -4.923  -0.736  -0.055  0.00  0.00    +0.155 HD
ENDROOT
BRANCH   1   8
ATOM      5  C   UNL     1      -8.321   3.767   1.533  0.00  0.00    +0.044 C 
ATOM      6  C   UNL     1      -8.026   2.448   0.867  0.00  0.00    -0.046 A 
ATOM      7  C   UNL     1      -6.722   2.006   0.757  0.00  0.00    +0.029 A 
ATOM      8  C   UNL     1      -6.452   0.790   0.143  0.00  0.00    +0.064 A 
ATOM      9  C   UNL     1      -7.494   0.024  -0.363  0.00  0.00    +0.148 A 
ATOM     10  C   UNL     1      -8.796   0.469  -0.245  0.00  0.00    +0.038 A 
ATOM     11  C   UNL     1      -9.062   1.680   0.367  0.00  0.00    -0.045 A 
ATOM     12  C   UNL     1     -10.484   2.164   0.489  0.00  0.00    +0.044 C 
BRANCH   9  13
ATOM     13  N   UNL     1      -7.209  -1.269  -1.024  0.00  0.00    +0.058 N 
ATOM     14  O   UNL     1      -8.112  -1.897  -1.547  0.00  0.00    -0.126 OA
ATOM     15  O   UNL     1      -6.072  -1.706  -1.044  0.00  0.00    -0.126 OA
ENDBRANCH   9  13
ENDBRANCH   1   8
BRANCH   2  16
ATOM     16  C   UNL     1      -2.690   0.738   0.031  0.00  0.00    +0.173 C 
BRANCH  16  17
ATOM     17  S   UNL     1      -1.566   2.156   0.024  0.00  0.00    -0.078 S 
BRANCH  17  18
ATOM     18  C   UNL     1      -0.016   1.319   0.030  0.00  0.00    +0.171 A 
ATOM     19  N   UNL     1       1.102   2.030   0.022  0.00  0.00    -0.209 NA
ATOM     20  C   UNL     1       2.290   1.431   0.021  0.00  0.00    +0.124 A 
ATOM     21  C   UNL     1       2.346   0.039   0.028  0.00  0.00    +0.113 A 
ATOM     22  C   UNL     1       1.153  -0.672   0.037  0.00  0.00    +0.254 A 
ATOM     23  N   UNL     1       0.002  -0.006   0.038  0.00  0.00    -0.302 N 
ATOM     24  O   UNL     1       1.161  -2.027   0.044  0.00  0.00    -0.268 OA
ATOM     25  H   UNL     1      -0.943  -0.569   0.045  0.00  0.00    +0.171 HD
BRANCH  20  26
ATOM     26  N   UNL     1       3.455   2.181   0.012  0.00  0.00    -0.343 N 
ATOM     27  H   UNL     1       4.433   1.677   0.011  0.00  0.00    +0.144 HD
ATOM     28  H   UNL     1       3.402   3.280   0.006  0.00  0.00    +0.144 HD
ENDBRANCH  20  26
ENDBRANCH  17  18
ENDBRANCH  16  17
ENDBRANCH   2  16
TORSDOF 6
