REMARK  Name = ZINC39543176
REMARK  10 active torsions:
REMARK  status: ('A' for Active; 'I' for Inactive)
REMARK    1  A    between atoms: C_1  and  C_2
REMARK    2  A    between atoms: C_5  and  C_28
REMARK    3  A    between atoms: C_7  and  N_8
REMARK    4  A    between atoms: C_9  and  C_11
REMARK    5  A    between atoms: C_11  and  N_12
REMARK    6  A    between atoms: C_17  and  C_24
REMARK    7  A    between atoms: C_20  and  C_22
REMARK    8  A    between atoms: C_20  and  C_23
REMARK    9  A    between atoms: C_28  and  O_30
REMARK   10  A    between atoms: O_30  and  C_31
REMARK                            x       y       z     vdW  Elec       q    Type
REMARK                         _______ _______ _______ _____ _____    ______ ____
ROOT
ATOM      1  C   UNL     1      -0.179   0.227   4.970  0.00  0.00    +0.214 C 
ENDROOT
BRANCH   1   2
ATOM      2  N   UNL     1      -0.249  -0.759   6.051  0.00  0.00    -0.215 N 
ATOM      3  C   UNL     1      -1.398  -1.289   6.520  0.00  0.00    +0.247 C 
ATOM      4  O   UNL     1      -2.525  -1.049   6.143  0.00  0.00    -0.273 OA
ATOM      5  C   UNL     1      -0.984  -2.245   7.615  0.00  0.00    +0.113 C 
ATOM      6  C   UNL     1      -1.411  -3.667   7.268  0.00  0.00    +0.038 C 
ATOM      7  C   UNL     1      -0.956  -4.623   8.374  0.00  0.00    -0.011 C 
ATOM      8  C   UNL     1      -1.579  -4.196   9.705  0.00  0.00    +0.009 C 
ATOM      9  C   UNL     1      -1.123  -2.776  10.050  0.00  0.00    -0.032 C 
ATOM     10  C   UNL     1      -1.579  -1.813   8.951  0.00  0.00    +0.041 C 
ATOM     11  C   UNL     1       0.403  -2.743  10.157  0.00  0.00    +0.011 C 
ATOM     12  C   UNL     1      -1.737  -2.354  11.386  0.00  0.00    +0.011 C 
ATOM     13  C   UNL     1      -1.404  -6.046   8.035  0.00  0.00    +0.007 C 
ATOM     14  N   UNL     1       0.480  -2.140   7.645  0.00  0.00    -0.285 N 
ATOM     15  C   UNL     1       0.818  -1.252   6.691  0.00  0.00    +0.310 C 
ATOM     16  O   UNL     1       1.964  -0.929   6.443  0.00  0.00    -0.252 OA
ATOM     17  H   UNL     1       1.085  -2.619   8.233  0.00  0.00    +0.151 HD
ENDBRANCH   1   2
BRANCH   1  19
ATOM     18  N   UNL     1       0.013   0.226   2.504  0.00  0.00    -0.284 N 
ATOM     19  C   UNL     1      -0.066  -0.484   3.647  0.00  0.00    +0.235 C 
ATOM     20  O   UNL     1      -0.047  -1.697   3.610  0.00  0.00    -0.274 OA
ATOM     21  H   UNL     1       0.060   1.194   2.537  0.00  0.00    +0.155 HD
BRANCH  18  28
ATOM     22  C   UNL     1      -1.274   1.478   0.302  0.00  0.00    +0.045 C 
ATOM     23  C   UNL     1      -0.589   0.143   0.167  0.00  0.00    -0.029 A 
ATOM     24  C   UNL     1      -0.572  -0.502  -1.056  0.00  0.00    +0.006 A 
ATOM     25  C   UNL     1       0.053  -1.724  -1.189  0.00  0.00    +0.015 A 
ATOM     26  C   UNL     1       0.673  -2.315  -0.085  0.00  0.00    +0.061 A 
ATOM     27  C   UNL     1       0.656  -1.664   1.149  0.00  0.00    +0.038 A 
ATOM     28  C   UNL     1       0.029  -0.433   1.270  0.00  0.00    +0.037 A 
BRANCH  26  29
ATOM     29  C   UNL     1       1.343  -3.624  -0.223  0.00  0.00    +0.339 C 
ATOM     30  O   UNL     1       1.881  -4.136   0.738  0.00  0.00    -0.245 OA
BRANCH  29  31
ATOM     31  O   UNL     1       1.358  -4.250  -1.415  0.00  0.00    -0.464 OA
ATOM     32  C   UNL     1       2.024  -5.513  -1.477  0.00  0.00    +0.280 C 
ENDBRANCH  29  31
ENDBRANCH  26  29
ENDBRANCH  18  28
ENDBRANCH   1  19
TORSDOF 5
