REMARK  Name = ZINC39601341
REMARK  7 active torsions:
REMARK  status: ('A' for Active; 'I' for Inactive)
REMARK    1  A    between atoms: C_1  and  C_2
REMARK    2  A    between atoms: C_2  and  C_3
REMARK    3  A    between atoms: C_2  and  C_4
REMARK    4  A    between atoms: C_4  and  C_5
REMARK    5  A    between atoms: C_5  and  N_6
REMARK    6  A    between atoms: C_7  and  C_9
REMARK    7  A    between atoms: C_20  and  C_22
REMARK                            x       y       z     vdW  Elec       q    Type
REMARK                         _______ _______ _______ _____ _____    ______ ____
ROOT
ATOM      1  C   UNL     1       0.770  -0.931   6.093  0.00  0.00    +0.100 C 
ATOM      2  C   UNL     1       0.812  -2.474   6.164  0.00  0.00    +0.121 C 
ATOM      3  N   UNL     1       0.664  -2.787   7.605  0.00  0.00    -0.297 N 
ATOM      4  C   UNL     1      -0.337  -1.808   8.094  0.00  0.00    +0.115 C 
ATOM      5  C   UNL     1       0.015  -0.498   7.361  0.00  0.00    -0.004 C 
ATOM      6  C   UNL     1      -1.258   0.255   6.987  0.00  0.00    -0.010 C 
ATOM      7  C   UNL     1      -1.961   0.726   8.263  0.00  0.00    -0.082 C 
ATOM      8  N   UNL     1      -1.060   1.598   9.027  0.00  0.00    +0.379 N 
ATOM      9  C   UNL     1       0.119   0.840   9.463  0.00  0.00    -0.082 C 
ATOM     10  C   UNL     1       0.910   0.374   8.237  0.00  0.00    -0.010 C 
ATOM     11  C   UNL     1       1.296  -3.745   8.312  0.00  0.00    +0.260 C 
ATOM     12  O   UNL     1       2.161  -4.414   7.787  0.00  0.00    -0.271 OA
ATOM     13  H   UNL     1      -0.767   2.369   8.445  0.00  0.00    -0.086 HD
ATOM     14  H   UNL     1      -1.546   1.956   9.835  0.00  0.00    -0.086 HD
ENDROOT
BRANCH  11  15
ATOM     15  C   UNL     1       0.927  -3.985   9.753  0.00  0.00    +0.296 C 
ATOM     16  C   UNL     1      -0.494  -4.559   9.835  0.00  0.00    +0.283 C 
ATOM     17  O   UNL     1      -0.806  -4.788  11.213  0.00  0.00    -0.484 OA
ATOM     18  C   UNL     1       0.145  -5.413  11.960  0.00  0.00    +0.162 A 
ATOM     19  C   UNL     1      -0.209  -5.985  13.173  0.00  0.00    +0.049 A 
ATOM     20  C   UNL     1       0.746  -6.620  13.944  0.00  0.00    +0.004 A 
ATOM     21  C   UNL     1       2.057  -6.687  13.508  0.00  0.00    +0.004 A 
ATOM     22  C   UNL     1       2.416  -6.120  12.300  0.00  0.00    +0.049 A 
ATOM     23  C   UNL     1       1.462  -5.482  11.521  0.00  0.00    +0.163 A 
ATOM     24  O   UNL     1       1.829  -4.935  10.330  0.00  0.00    -0.473 OA
ENDBRANCH  11  15
BRANCH   1  26
ATOM     25  N   UNL     1       0.240   0.750   4.358  0.00  0.00    -0.315 N 
ATOM     26  C   UNL     1       0.028  -0.482   4.861  0.00  0.00    +0.218 C 
ATOM     27  O   UNL     1      -0.761  -1.229   4.322  0.00  0.00    -0.275 OA
ATOM     28  H   UNL     1       0.871   1.348   4.789  0.00  0.00    +0.149 HD
BRANCH  25  29
ATOM     29  C   UNL     1      -0.481   1.187   3.160  0.00  0.00    +0.104 C 
BRANCH  29  30
ATOM     30  C   UNL     1      -0.059   2.613   2.802  0.00  0.00    +0.022 C 
BRANCH  30  32
ATOM     31  C   UNL     1      -2.309   3.155   1.860  0.00  0.00    +0.007 C 
ATOM     32  C   UNL     1      -0.813   3.069   1.551  0.00  0.00    -0.016 C 
ATOM     33  C   UNL     1      -0.301   4.445   1.121  0.00  0.00    +0.007 C 
ENDBRANCH  30  32
ENDBRANCH  29  30
ENDBRANCH  25  29
ENDBRANCH   1  26
TORSDOF 5
