REMARK  Name = ZINC39345281
REMARK  10 active torsions:
REMARK  status: ('A' for Active; 'I' for Inactive)
REMARK    1  A    between atoms: C_1  and  C_2
REMARK    2  A    between atoms: C_2  and  C_26
REMARK    3  A    between atoms: N_3  and  N_4
REMARK    4  A    between atoms: C_5  and  C_7
REMARK    5  A    between atoms: C_10  and  C_13
REMARK    6  A    between atoms: N_15  and  N_16
REMARK    7  A    between atoms: C_17  and  C_18
REMARK    8  A    between atoms: C_17  and  C_25
REMARK    9  A    between atoms: C_20  and  O_24
REMARK   10  A    between atoms: C_28  and  O_32
REMARK                            x       y       z     vdW  Elec       q    Type
REMARK                         _______ _______ _______ _____ _____    ______ ____
ROOT
ATOM      1  C   UNL     1       0.046   0.087   4.788  0.00  0.00    +0.038 A 
ATOM      2  C   UNL     1       0.021   1.483   4.796  0.00  0.00    +0.014 A 
ATOM      3  C   UNL     1       0.024   2.166   5.993  0.00  0.00    +0.014 A 
ATOM      4  C   UNL     1       0.050   1.461   7.198  0.00  0.00    +0.038 A 
ATOM      5  C   UNL     1       0.074   0.066   7.190  0.00  0.00    +0.014 A 
ATOM      6  C   UNL     1       0.067  -0.617   5.993  0.00  0.00    +0.014 A 
ENDROOT
BRANCH   1   8
ATOM      7  N   UNL     1       0.024   0.035   2.340  0.00  0.00    -0.203 N 
ATOM      8  C   UNL     1       0.044  -0.645   3.503  0.00  0.00    +0.263 C 
ATOM      9  O   UNL     1       0.060  -1.861   3.496  0.00  0.00    -0.268 OA
ATOM     10  H   UNL     1       0.011   1.005   2.345  0.00  0.00    +0.178 HD
BRANCH   7  13
ATOM     11  C   UNL     1      -0.018   1.503   0.010  0.00  0.00    +0.068 C 
ATOM     12  C   UNL     1       0.002  -0.004   0.002  0.00  0.00    +0.063 C 
ATOM     13  N   UNL     1       0.022  -0.659   1.122  0.00  0.00    -0.184 NA
BRANCH  12  14
ATOM     14  C   UNL     1      -0.000  -0.735  -1.279  0.00  0.00    +0.001 A 
ATOM     15  C   UNL     1       0.013  -2.131  -1.290  0.00  0.00    +0.055 A 
ATOM     16  C   UNL     1       0.010  -2.809  -2.497  0.00  0.00    +0.117 A 
ATOM     17  C   UNL     1      -0.005  -2.102  -3.692  0.00  0.00    +0.045 A 
ATOM     18  C   UNL     1      -0.018  -0.719  -3.683  0.00  0.00    +0.004 A 
ATOM     19  C   UNL     1      -0.021  -0.032  -2.487  0.00  0.00    +0.010 A 
BRANCH  16  20
ATOM     20  O   UNL     1       0.023  -4.168  -2.512  0.00  0.00    -0.507 OA
ATOM     21  H   UNL     1      -0.857  -4.570  -2.509  0.00  0.00    +0.292 HD
ENDBRANCH  16  20
ENDBRANCH  12  14
ENDBRANCH   7  13
ENDBRANCH   1   8
BRANCH   4  22
ATOM     22  C   UNL     1       0.053   2.194   8.483  0.00  0.00    +0.263 C 
ATOM     23  O   UNL     1       0.033   3.410   8.490  0.00  0.00    -0.268 OA
ATOM     24  N   UNL     1       0.078   1.514   9.646  0.00  0.00    -0.203 N 
ATOM     25  H   UNL     1       0.095   0.544   9.641  0.00  0.00    +0.178 HD
BRANCH  24  26
ATOM     26  N   UNL     1       0.081   2.208  10.863  0.00  0.00    -0.184 NA
ATOM     27  C   UNL     1       0.106   1.553  11.984  0.00  0.00    +0.063 C 
ATOM     28  C   UNL     1       0.131   0.046  11.975  0.00  0.00    +0.068 C 
BRANCH  27  29
ATOM     29  C   UNL     1       0.109   2.284  13.265  0.00  0.00    +0.001 A 
ATOM     30  C   UNL     1       0.080   3.680  13.276  0.00  0.00    +0.055 A 
ATOM     31  C   UNL     1       0.083   4.358  14.482  0.00  0.00    +0.117 A 
ATOM     32  C   UNL     1       0.115   3.651  15.677  0.00  0.00    +0.045 A 
ATOM     33  C   UNL     1       0.144   2.269  15.669  0.00  0.00    +0.004 A 
ATOM     34  C   UNL     1       0.135   1.582  14.472  0.00  0.00    +0.010 A 
BRANCH  31  35
ATOM     35  O   UNL     1       0.054   5.717  14.498  0.00  0.00    -0.507 OA
ATOM     36  H   UNL     1      -0.837   6.091  14.514  0.00  0.00    +0.292 HD
ENDBRANCH  31  35
ENDBRANCH  27  29
ENDBRANCH  24  26
ENDBRANCH   4  22
TORSDOF 8
