REMARK  Name = ZINC65557228
REMARK  9 active torsions:
REMARK  status: ('A' for Active; 'I' for Inactive)
REMARK    1  A    between atoms: C_1  and  C_2
REMARK    2  A    between atoms: N_6  and  C_8
REMARK    3  A    between atoms: C_8  and  C_9
REMARK    4  A    between atoms: C_8  and  C_10
REMARK    5  A    between atoms: C_10  and  N_11
REMARK    6  A    between atoms: C_12  and  C_14
REMARK    7  A    between atoms: N_16  and  C_17
REMARK    8  A    between atoms: C_19  and  N_25
REMARK    9  A    between atoms: C_26  and  C_28
REMARK                            x       y       z     vdW  Elec       q    Type
REMARK                         _______ _______ _______ _____ _____    ______ ____
ROOT
ATOM      1  C   UNL     1      -1.703  -6.088   2.313  0.00  0.00    +0.303 C 
ATOM      2  O   UNL     1      -2.588  -5.278   2.128  0.00  0.00    -0.265 OA
ATOM      3  N   UNL     1      -2.003  -7.395   2.450  0.00  0.00    -0.275 N 
ATOM      4  H   UNL     1      -1.293  -8.051   2.519  0.00  0.00    +0.155 HD
ENDROOT
BRANCH   3   5
ATOM      5  C   UNL     1      -3.340  -7.805   2.493  0.00  0.00    +0.071 A 
ATOM      6  C   UNL     1      -4.326  -6.917   2.901  0.00  0.00    +0.052 A 
ATOM      7  C   UNL     1      -5.651  -7.326   2.942  0.00  0.00    +0.071 A 
ATOM      8  C   UNL     1      -5.989  -8.624   2.574  0.00  0.00    +0.147 A 
ATOM      9  C   UNL     1      -5.005  -9.507   2.168  0.00  0.00    +0.080 A 
ATOM     10  C   UNL     1      -3.684  -9.100   2.120  0.00  0.00    +0.147 A 
ATOM     11  F   UNL     1      -2.725  -9.963   1.716  0.00  0.00    -0.203 F 
ATOM     12  F   UNL     1      -7.279  -9.022   2.614  0.00  0.00    -0.203 F 
BRANCH   7  13
ATOM     13  N   UNL     1      -6.648  -6.432   3.355  0.00  0.00    -0.283 N 
ATOM     14  C   UNL     1      -6.337  -5.407   4.173  0.00  0.00    +0.214 C 
ATOM     15  O   UNL     1      -5.183  -5.214   4.493  0.00  0.00    -0.276 OA
ATOM     16  C   UNL     1      -7.424  -4.500   4.691  0.00  0.00    +0.109 C 
ATOM     17  H   UNL     1      -7.561  -6.550   3.051  0.00  0.00    +0.155 HD
ENDBRANCH   7  13
ENDBRANCH   3   5
BRANCH   1  19
ATOM     18  N   UNL     1       0.019  -4.330   2.251  0.00  0.00    -0.309 N 
ATOM     19  C   UNL     1      -0.281  -5.637   2.388  0.00  0.00    +0.299 C 
ATOM     20  O   UNL     1       0.603  -6.447   2.573  0.00  0.00    -0.265 OA
ATOM     21  H   UNL     1      -0.688  -3.683   2.104  0.00  0.00    +0.149 HD
BRANCH  18  22
ATOM     22  C   UNL     1       1.414  -3.888   2.325  0.00  0.00    +0.089 C 
BRANCH  22  23
ATOM     23  C   UNL     1       1.468  -2.360   2.261  0.00  0.00    -0.054 C 
ATOM     24  C   UNL     1       2.927  -1.903   2.212  0.00  0.00    -0.012 C 
BRANCH  23  30
ATOM     25  C   UNL     1       1.471  -2.444  -2.634  0.00  0.00    +0.005 C 
ATOM     26  C   UNL     1       0.719  -1.954  -1.395  0.00  0.00    -0.031 C 
ATOM     27  C   UNL     1       0.601  -0.428  -1.437  0.00  0.00    -0.001 C 
ATOM     28  C   UNL     1      -0.082   0.057  -0.156  0.00  0.00    -0.018 C 
ATOM     29  C   UNL     1       0.715  -0.429   1.057  0.00  0.00    -0.078 C 
ATOM     30  N   UNL     1       0.769  -1.896   1.055  0.00  0.00    +0.383 N 
ATOM     31  C   UNL     1       1.487  -2.366  -0.136  0.00  0.00    -0.075 C 
ATOM     32  H   UNL     1      -0.169  -2.266   1.049  0.00  0.00    -0.081 HD
ENDBRANCH  23  30
ENDBRANCH  22  23
ENDBRANCH  18  22
ENDBRANCH   1  19
TORSDOF 6
