REMARK  Name = ZINC39011895
REMARK  7 active torsions:
REMARK  status: ('A' for Active; 'I' for Inactive)
REMARK    1  A    between atoms: C_1  and  O_2
REMARK    2  A    between atoms: O_2  and  C_3
REMARK    3  A    between atoms: C_7  and  N_17
REMARK    4  A    between atoms: C_8  and  C_13
REMARK    5  A    between atoms: C_13  and  O_15
REMARK    6  A    between atoms: O_15  and  C_16
REMARK    7  A    between atoms: C_18  and  C_20
REMARK                            x       y       z     vdW  Elec       q    Type
REMARK                         _______ _______ _______ _____ _____    ______ ____
ROOT
ATOM      1  C   UNL     1       0.096  -5.572   1.403  0.00  0.00    +0.122 A 
ATOM      2  C   UNL     1       0.870  -6.165   2.413  0.00  0.00    +0.046 A 
ATOM      3  C   UNL     1       1.678  -5.428   3.210  0.00  0.00    +0.015 A 
ATOM      4  C   UNL     1       1.754  -4.025   3.030  0.00  0.00    +0.018 A 
ATOM      5  C   UNL     1       2.476  -3.041   3.680  0.00  0.00    +0.053 C 
ATOM      6  C   UNL     1       2.104  -1.741   3.003  0.00  0.00    +0.234 C 
ATOM      7  N   UNL     1       1.142  -2.093   1.953  0.00  0.00    -0.367 N 
ATOM      8  C   UNL     1       0.944  -3.397   1.971  0.00  0.00    +0.048 A 
ATOM      9  C   UNL     1       0.125  -4.230   1.172  0.00  0.00    +0.071 A 
ATOM     10  H   UNL     1       0.719  -1.467   1.345  0.00  0.00    +0.161 HD
ENDROOT
BRANCH   5  11
ATOM     11  N   UNL     1       3.343  -3.208   4.719  0.00  0.00    -0.286 N 
ATOM     12  C   UNL     1       3.859  -2.132   5.346  0.00  0.00    +0.223 C 
ATOM     13  O   UNL     1       3.483  -1.019   5.047  0.00  0.00    -0.275 OA
ATOM     14  H   UNL     1       3.588  -4.101   5.007  0.00  0.00    +0.155 HD
BRANCH  12  15
ATOM     15  C   UNL     1       4.903  -2.313   6.418  0.00  0.00    +0.049 C 
ATOM     16  C   UNL     1       6.125  -3.017   5.825  0.00  0.00    +0.019 C 
ATOM     17  C   UNL     1       7.185  -3.201   6.913  0.00  0.00    -0.008 C 
ATOM     18  C   UNL     1       7.599  -1.833   7.458  0.00  0.00    +0.007 C 
ATOM     19  C   UNL     1       6.377  -1.129   8.050  0.00  0.00    -0.008 C 
ATOM     20  C   UNL     1       5.317  -0.945   6.963  0.00  0.00    +0.019 C 
ATOM     21  C   UNL     1       5.800  -1.976   9.186  0.00  0.00    +0.026 C 
ATOM     22  C   UNL     1       5.386  -3.345   8.641  0.00  0.00    +0.047 C 
ATOM     23  C   UNL     1       6.608  -4.049   8.049  0.00  0.00    +0.026 C 
ATOM     24  C   UNL     1       4.326  -3.161   7.553  0.00  0.00    +0.039 C 
ATOM     25 CL   UNL     1       4.707  -4.344   9.979  0.00  0.00    -0.118 Cl
ENDBRANCH  12  15
ENDBRANCH   5  11
BRANCH   1  27
ATOM     26  C   UNL     1      -0.694  -7.758   0.913  0.00  0.00    +0.277 C 
ATOM     27  O   UNL     1      -0.698  -6.357   0.632  0.00  0.00    -0.495 OA
ENDBRANCH   1  27
BRANCH   6  28
ATOM     28  C   UNL     1       3.327  -1.105   2.395  0.00  0.00    +0.335 C 
ATOM     29  O   UNL     1       3.751  -1.500   1.335  0.00  0.00    -0.248 OA
BRANCH  28  30
ATOM     30  O   UNL     1       3.946  -0.098   3.031  0.00  0.00    -0.466 OA
ATOM     31  C   UNL     1       5.099   0.459   2.397  0.00  0.00    +0.280 C 
ENDBRANCH  28  30
ENDBRANCH   6  28
TORSDOF 5
