REMARK  Name = ZINC39205118
REMARK  4 active torsions:
REMARK  status: ('A' for Active; 'I' for Inactive)
REMARK    1  A    between atoms: C_1  and  C_2
REMARK    2  A    between atoms: N_16  and  N_17
REMARK    3  A    between atoms: C_18  and  C_19
REMARK    4  A    between atoms: C_24  and  O_25
REMARK                            x       y       z     vdW  Elec       q    Type
REMARK                         _______ _______ _______ _____ _____    ______ ____
ROOT
ATOM      1  C   UNL     1      -0.018   1.503   0.010  0.00  0.00    +0.046 C 
ATOM      2  C   UNL     1       0.002  -0.004   0.002  0.00  0.00    -0.027 A 
ATOM      3  C   UNL     1       0.006  -0.681  -1.168  0.00  0.00    +0.005 A 
ATOM      4  C   UNL     1       0.022  -2.082  -1.210  0.00  0.00    +0.001 A 
ATOM      5  C   UNL     1       0.066  -2.840  -0.090  0.00  0.00    +0.012 A 
ATOM      6  C   UNL     1       0.096  -2.236   1.187  0.00  0.00    +0.025 A 
ATOM      7  C   UNL     1       0.258  -2.710   2.463  0.00  0.00    +0.115 C 
ATOM      8  C   UNL     1      -0.070  -1.533   3.375  0.00  0.00    +0.253 C 
ATOM      9  N   UNL     1      -0.015  -0.359   2.515  0.00  0.00    -0.358 N 
ATOM     10  C   UNL     1       0.024  -0.753   1.264  0.00  0.00    +0.049 A 
ATOM     11  N   UNL     1       0.940  -1.550   4.436  0.00  0.00    -0.220 NA
ATOM     12  C   UNL     1       1.484  -2.699   4.754  0.00  0.00    +0.227 C 
ATOM     13  N   UNL     1       1.208  -3.864   4.119  0.00  0.00    -0.247 N 
ATOM     14  N   UNL     1       0.625  -3.890   2.966  0.00  0.00    -0.171 NA
ATOM     15  N   UNL     1       2.390  -2.723   5.794  0.00  0.00    -0.206 N 
ATOM     16  H   UNL     1       2.809  -3.559   6.053  0.00  0.00    +0.177 HD
ATOM     17  H   UNL     1       1.465  -4.700   4.539  0.00  0.00    +0.192 HD
ATOM     18  H   UNL     1      -0.004   0.563   2.817  0.00  0.00    +0.162 HD
ENDROOT
BRANCH  15  19
ATOM     19  N   UNL     1       2.705  -1.541   6.477  0.00  0.00    -0.187 NA
ATOM     20  C   UNL     1       3.558  -1.564   7.456  0.00  0.00    +0.142 C 
BRANCH  20  21
ATOM     21  C   UNL     1       3.888  -0.321   8.175  0.00  0.00    +0.038 A 
ATOM     22  C   UNL     1       4.809  -0.341   9.225  0.00  0.00    +0.033 A 
ATOM     23  C   UNL     1       5.115   0.827   9.894  0.00  0.00    +0.043 A 
ATOM     24  C   UNL     1       4.512   2.019   9.528  0.00  0.00    +0.039 A 
ATOM     25  C   UNL     1       3.599   2.051   8.491  0.00  0.00    +0.061 A 
ATOM     26  C   UNL     1       3.285   0.888   7.805  0.00  0.00    +0.139 A 
ATOM     27 BR   UNL     1       2.782   3.685   8.001  0.00  0.00    -0.046 Br
ATOM     28 CL   UNL     1       6.259   0.801  11.199  0.00  0.00    -0.083 Cl
BRANCH  26  29
ATOM     29  O   UNL     1       2.392   0.920   6.781  0.00  0.00    -0.505 OA
ATOM     30  H   UNL     1       1.476   0.775   7.054  0.00  0.00    +0.292 HD
ENDBRANCH  26  29
ENDBRANCH  20  21
ENDBRANCH  15  19
TORSDOF 3
