REMARK  Name = ZINC43087836
REMARK  7 active torsions:
REMARK  status: ('A' for Active; 'I' for Inactive)
REMARK    1  A    between atoms: C_1  and  C_2
REMARK    2  A    between atoms: C_2  and  C_4
REMARK    3  A    between atoms: C_2  and  N_23
REMARK    4  A    between atoms: C_4  and  C_6
REMARK    5  A    between atoms: C_4  and  O_13
REMARK    6  A    between atoms: O_13  and  C_14
REMARK    7  A    between atoms: C_19  and  C_20
REMARK                            x       y       z     vdW  Elec       q    Type
REMARK                         _______ _______ _______ _____ _____    ______ ____
ROOT
ATOM      1  C   UNL     1       0.750  -0.511   1.252  0.00  0.00    +0.190 C 
ENDROOT
BRANCH   1   2
ATOM      2  C   UNL     1       2.166   0.002   1.300  0.00  0.00    +0.009 A 
ATOM      3  C   UNL     1       3.199  -0.773   0.808  0.00  0.00    +0.008 A 
ATOM      4  C   UNL     1       4.498  -0.303   0.852  0.00  0.00    +0.000 A 
ATOM      5  C   UNL     1       4.765   0.944   1.387  0.00  0.00    +0.001 A 
ATOM      6  C   UNL     1       3.733   1.720   1.880  0.00  0.00    +0.020 A 
ATOM      7  C   UNL     1       2.432   1.252   1.831  0.00  0.00    +0.048 A 
ATOM      8 CL   UNL     1       1.134   2.229   2.443  0.00  0.00    -0.083 Cl
ENDBRANCH   1   2
BRANCH   1  10
ATOM      9  C   UNL     1       0.049   1.540   0.010  0.00  0.00    -0.010 C 
ATOM     10  C   UNL     1       0.061   0.010  -0.010  0.00  0.00    -0.032 C 
BRANCH  10  11
ATOM     11  N   UNL     1      -1.320  -0.490  -0.057  0.00  0.00    +0.382 N 
ATOM     12  H   UNL     1      -1.774  -0.146  -0.889  0.00  0.00    -0.089 HD
ATOM     13  H   UNL     1      -1.312  -1.499  -0.070  0.00  0.00    -0.089 HD
ATOM     14  H   UNL     1      -1.821  -0.168   0.757  0.00  0.00    -0.089 HD
ENDBRANCH  10  11
ENDBRANCH   1  10
BRANCH   1  15
ATOM     15  O   UNL     1       0.761  -1.940   1.234  0.00  0.00    -0.485 OA
BRANCH  15  16
ATOM     16  C   UNL     1      -0.213  -2.573   1.933  0.00  0.00    +0.133 A 
ATOM     17  C   UNL     1      -1.231  -1.841   2.528  0.00  0.00    +0.046 A 
ATOM     18  C   UNL     1      -2.222  -2.487   3.240  0.00  0.00    +0.004 A 
ATOM     19  C   UNL     1      -2.210  -3.867   3.365  0.00  0.00    +0.001 A 
ATOM     20  C   UNL     1      -1.207  -4.609   2.780  0.00  0.00    +0.017 A 
ATOM     21  C   UNL     1      -0.201  -3.969   2.052  0.00  0.00    +0.078 A 
BRANCH  21  22
ATOM     22  C   UNL     1       0.873  -4.758   1.419  0.00  0.00    +0.245 C 
ATOM     23  O   UNL     1       1.750  -4.197   0.790  0.00  0.00    -0.270 OA
ATOM     24  N   UNL     1       0.881  -6.101   1.536  0.00  0.00    -0.325 N 
ATOM     25  H   UNL     1       0.182  -6.548   2.037  0.00  0.00    +0.145 HD
ATOM     26  H   UNL     1       1.587  -6.619   1.119  0.00  0.00    +0.145 HD
ENDBRANCH  21  22
ENDBRANCH  15  16
ENDBRANCH   1  15
TORSDOF 6
