REMARK  Name = ZINC45551260
REMARK  5 active torsions:
REMARK  status: ('A' for Active; 'I' for Inactive)
REMARK    1  A    between atoms: C_1  and  C_2
REMARK    2  A    between atoms: C_7  and  N_12
REMARK    3  A    between atoms: C_9  and  C_11
REMARK    4  A    between atoms: N_15  and  N_16
REMARK    5  A    between atoms: C_17  and  C_19
REMARK                            x       y       z     vdW  Elec       q    Type
REMARK                         _______ _______ _______ _____ _____    ______ ____
ROOT
ATOM      1  N   UNL     1       2.811  -3.388   4.628  0.00  0.00    -0.228 N 
ATOM      2  C   UNL     1       3.463  -3.835   5.720  0.00  0.00    +0.279 C 
ATOM      3  O   UNL     1       3.224  -4.943   6.160  0.00  0.00    -0.267 OA
ATOM      4  H   UNL     1       3.002  -2.504   4.277  0.00  0.00    +0.173 HD
ENDROOT
BRANCH   2   5
ATOM      5  C   UNL     1       4.464  -2.981   6.380  0.00  0.00    +0.136 A 
ATOM      6  C   UNL     1       5.138  -3.427   7.488  0.00  0.00    +0.081 A 
ATOM      7  S   UNL     1       6.180  -2.017   7.836  0.00  0.00    -0.060 S 
ATOM      8  C   UNL     1       5.623  -0.985   6.488  0.00  0.00    +0.162 A 
ATOM      9  N   UNL     1       4.734  -1.762   5.905  0.00  0.00    -0.220 NA
ATOM     10  N   UNL     1       6.025   0.295   6.144  0.00  0.00    -0.305 N 
ATOM     11  C   UNL     1       5.435   0.989   4.987  0.00  0.00    +0.135 C 
ATOM     12  C   UNL     1       4.979   2.380   5.440  0.00  0.00    +0.179 C 
ATOM     13  O   UNL     1       6.065   3.043   6.092  0.00  0.00    -0.377 OA
ATOM     14  C   UNL     1       6.518   2.393   7.281  0.00  0.00    +0.179 C 
ATOM     15  C   UNL     1       7.049   1.004   6.927  0.00  0.00    +0.135 C 
ENDBRANCH   2   5
BRANCH   1  19
ATOM     16  N   UNL     1       1.471  -2.526   2.420  0.00  0.00    -0.295 N 
ATOM     17  C   UNL     1       1.207  -3.754   2.907  0.00  0.00    +0.316 C 
ATOM     18  O   UNL     1       0.380  -4.460   2.362  0.00  0.00    -0.251 OA
ATOM     19  N   UNL     1       1.859  -4.201   3.999  0.00  0.00    -0.218 N 
ATOM     20  H   UNL     1       2.131  -1.963   2.855  0.00  0.00    +0.151 HD
ATOM     21  H   UNL     1       1.668  -5.085   4.350  0.00  0.00    +0.174 HD
BRANCH  16  27
ATOM     22  C   UNL     1      -0.019   1.526   0.010  0.00  0.00    +0.008 C 
ATOM     23  C   UNL     1       0.002  -0.004   0.002  0.00  0.00    -0.009 C 
ATOM     24  C   UNL     1       0.718  -0.497  -1.257  0.00  0.00    +0.003 C 
ATOM     25  C   UNL     1       0.739  -2.027  -1.265  0.00  0.00    +0.002 C 
ATOM     26  C   UNL     1       1.479  -2.534  -0.026  0.00  0.00    +0.022 C 
ATOM     27  C   UNL     1       0.763  -2.041   1.233  0.00  0.00    +0.078 C 
ATOM     28  C   UNL     1       0.742  -0.511   1.242  0.00  0.00    +0.009 C 
ATOM     29  C   UNL     1       0.026  -0.018   2.500  0.00  0.00    +0.009 C 
ENDBRANCH  16  27
ENDBRANCH   1  19
TORSDOF 3
