REMARK  Name = ZINC03288552
REMARK  3 active torsions:
REMARK  status: ('A' for Active; 'I' for Inactive)
REMARK    1  A    between atoms: N_12  and  C_16
REMARK    2  A    between atoms: C_16  and  C_17
REMARK    3  A    between atoms: N_19  and  C_20
REMARK                            x       y       z     vdW  Elec       q    Type
REMARK                         _______ _______ _______ _____ _____    ______ ____
ROOT
ATOM      1  C   UNL     1       3.856  -0.659   1.657  0.00  0.00    +0.000 A 
ATOM      2  C   UNL     1       3.007  -1.750   1.648  0.00  0.00    +0.000 A 
ATOM      3  C   UNL     1       1.731  -1.626   1.134  0.00  0.00    +0.006 A 
ATOM      4  C   UNL     1       1.297  -0.413   0.626  0.00  0.00    -0.012 A 
ATOM      5  C   UNL     1       2.149   0.679   0.633  0.00  0.00    -0.042 A 
ATOM      6  C   UNL     1       3.427   0.551   1.150  0.00  0.00    +0.004 A 
ATOM      7  C   UNL     1       1.452   1.878   0.025  0.00  0.00    +0.038 C 
ATOM      8  C   UNL     1      -0.052   1.522   0.037  0.00  0.00    +0.045 C 
ATOM      9  C   UNL     1      -0.021  -0.012   0.021  0.00  0.00    +0.138 C 
ATOM     10  C   UNL     1      -0.177  -0.546  -1.379  0.00  0.00    +0.251 C 
ATOM     11  O   UNL     1       0.542  -0.334  -2.331  0.00  0.00    -0.272 OA
ATOM     12  N   UNL     1      -1.290  -1.311  -1.345  0.00  0.00    -0.215 N 
ATOM     13  C   UNL     1      -1.841  -1.325  -0.124  0.00  0.00    +0.310 C 
ATOM     14  O   UNL     1      -2.849  -1.944   0.155  0.00  0.00    -0.252 OA
ATOM     15  N   UNL     1      -1.152  -0.576   0.759  0.00  0.00    -0.281 N 
ATOM     16  H   UNL     1      -1.363  -0.438   1.696  0.00  0.00    +0.152 HD
ENDROOT
BRANCH  12  17
ATOM     17  C   UNL     1      -1.826  -2.035  -2.500  0.00  0.00    +0.214 C 
BRANCH  17  18
ATOM     18  C   UNL     1      -1.222  -3.415  -2.553  0.00  0.00    +0.235 C 
ATOM     19  O   UNL     1      -0.421  -3.759  -1.710  0.00  0.00    -0.274 OA
ATOM     20  N   UNL     1      -1.571  -4.266  -3.538  0.00  0.00    -0.283 N 
ATOM     21  H   UNL     1      -2.258  -4.015  -4.175  0.00  0.00    +0.155 HD
BRANCH  20  22
ATOM     22  C   UNL     1      -0.941  -5.512  -3.643  0.00  0.00    +0.052 A 
ATOM     23  C   UNL     1      -0.552  -6.193  -2.497  0.00  0.00    +0.025 A 
ATOM     24  C   UNL     1       0.069  -7.422  -2.604  0.00  0.00    +0.002 A 
ATOM     25  C   UNL     1       0.304  -7.975  -3.849  0.00  0.00    +0.002 A 
ATOM     26  C   UNL     1      -0.082  -7.300  -4.993  0.00  0.00    +0.022 A 
ATOM     27  C   UNL     1      -0.708  -6.072  -4.893  0.00  0.00    +0.062 A 
ATOM     28 CL   UNL     1      -1.198  -5.227  -6.329  0.00  0.00    -0.082 Cl
ENDBRANCH  20  22
ENDBRANCH  17  18
ENDBRANCH  12  17
TORSDOF 3
