REMARK  Name = ZINC40377039
REMARK  7 active torsions:
REMARK  status: ('A' for Active; 'I' for Inactive)
REMARK    1  A    between atoms: C_1  and  C_2
REMARK    2  A    between atoms: C_2  and  C_3
REMARK    3  A    between atoms: C_2  and  C_4
REMARK    4  A    between atoms: C_2  and  N_8
REMARK    5  A    between atoms: N_5  and  O_6
REMARK    6  A    between atoms: N_8  and  S_9
REMARK    7  A    between atoms: S_9  and  C_12
REMARK                            x       y       z     vdW  Elec       q    Type
REMARK                         _______ _______ _______ _____ _____    ______ ____
ROOT
ATOM      1  N   UNL     1       0.435  -0.710  -1.296  0.00  0.00    -0.177 NA
ATOM      2  H   UNL     1      -0.100  -1.075  -2.018  0.00  0.00    +0.149 HD
ENDROOT
BRANCH   1   4
ATOM      3  C   UNL     1       0.144   1.403  -0.099  0.00  0.00    +0.037 C 
ATOM      4  C   UNL     1      -0.219  -0.083  -0.145  0.00  0.00    +0.092 C 
ATOM      5  C   UNL     1       0.251  -0.763   1.142  0.00  0.00    +0.037 C 
BRANCH   4   6
ATOM      6  C   UNL     1      -1.714  -0.231  -0.274  0.00  0.00    +0.153 C 
ATOM      7  N   UNL     1      -2.393  -0.775   0.680  0.00  0.00    -0.075 NA
ATOM      8  N   UNL     1      -2.354   0.214  -1.409  0.00  0.00    -0.342 N 
ATOM      9  H   UNL     1      -1.844   0.623  -2.125  0.00  0.00    +0.144 HD
ATOM     10  H   UNL     1      -3.316   0.119  -1.492  0.00  0.00    +0.144 HD
BRANCH   7  11
ATOM     11  O   UNL     1      -3.797  -0.914   0.559  0.00  0.00    -0.408 OA
ATOM     12  H   UNL     1      -4.219  -1.332   1.323  0.00  0.00    +0.328 HD
ENDBRANCH   7  11
ENDBRANCH   4   6
ENDBRANCH   1   4
BRANCH   1  13
ATOM     13  S   UNL     1       2.087  -0.795  -1.365  0.00  0.00    +0.061 S 
ATOM     14  O   UNL     1       2.521  -1.293  -0.106  0.00  0.00    -0.153 OA
ATOM     15  O   UNL     1       2.410  -1.436  -2.591  0.00  0.00    -0.153 OA
BRANCH  13  16
ATOM     16  C   UNL     1       2.689   0.857  -1.487  0.00  0.00    +0.133 A 
ATOM     17  C   UNL     1       3.451   1.373  -0.494  0.00  0.00    +0.031 A 
ATOM     18  C   UNL     1       3.945   2.676  -0.558  0.00  0.00    +0.004 A 
ATOM     19  C   UNL     1       3.683   3.481  -1.614  0.00  0.00    +0.031 A 
ATOM     20  C   UNL     1       2.889   3.007  -2.693  0.00  0.00    +0.102 A 
ATOM     21  C   UNL     1       2.378   1.643  -2.629  0.00  0.00    +0.126 A 
ATOM     22  N   UNL     1       1.652   1.305  -3.696  0.00  0.00    -0.189 NA
ATOM     23  S   UNL     1       1.652   2.600  -4.650  0.00  0.00    +0.117 S 
ATOM     24  N   UNL     1       2.530   3.650  -3.804  0.00  0.00    -0.191 NA
ENDBRANCH  13  16
ENDBRANCH   1  13
TORSDOF 5
