REMARK  Name = ZINC20289169
REMARK  5 active torsions:
REMARK  status: ('A' for Active; 'I' for Inactive)
REMARK    1  A    between atoms: C_3  and  C_6
REMARK    2  A    between atoms: C_6  and  N_7
REMARK    3  A    between atoms: C_16  and  C_25
REMARK    4  A    between atoms: C_16  and  C_29
REMARK    5  A    between atoms: C_18  and  C_20
REMARK                            x       y       z     vdW  Elec       q    Type
REMARK                         _______ _______ _______ _____ _____    ______ ____
ROOT
ATOM      1  N   UNL     1       3.562   0.775   1.460  0.00  0.00    -0.232 N 
ATOM      2  C   UNL     1       3.981   1.917   2.111  0.00  0.00    +0.143 C 
ATOM      3  C   UNL     1       4.670   1.782   3.332  0.00  0.00    +0.100 C 
ATOM      4  C   UNL     1       4.910   0.553   3.847  0.00  0.00    +0.254 C 
ATOM      5  O   UNL     1       5.570   0.419   5.017  0.00  0.00    -0.270 OA
ATOM      6  N   UNL     1       4.474  -0.558   3.164  0.00  0.00    -0.236 N 
ATOM      7  H   UNL     1       4.643  -1.442   3.527  0.00  0.00    +0.159 HD
ATOM      8  C   UNL     1       3.812  -0.433   2.000  0.00  0.00    +0.314 C 
ATOM      9  O   UNL     1       3.433  -1.433   1.421  0.00  0.00    -0.252 OA
ATOM     10  C   UNL     1       5.118   3.048   4.026  0.00  0.00    +0.285 C 
ATOM     11  N   UNL     1       4.782   4.311   3.341  0.00  0.00    -0.235 NA
ATOM     12  C   UNL     1       4.131   4.257   2.201  0.00  0.00    +0.165 C 
ATOM     13  N   UNL     1       3.748   3.118   1.614  0.00  0.00    -0.211 NA
ENDROOT
BRANCH  12  14
ATOM     14  C   UNL     1       3.802   5.529   1.530  0.00  0.00    +0.056 A 
ATOM     15  C   UNL     1       3.133   5.735   0.349  0.00  0.00    +0.019 A 
ATOM     16  C   UNL     1       2.971   7.048  -0.033  0.00  0.00    +0.008 A 
ATOM     17  C   UNL     1       3.470   8.027   0.759  0.00  0.00    +0.046 A 
ATOM     18  S   UNL     1       4.163   7.197   2.044  0.00  0.00    -0.094 S 
ENDBRANCH  12  14
BRANCH  10  19
ATOM     19  C   UNL     1       6.637   2.987   4.197  0.00  0.00    +0.428 C 
ATOM     20  F   UNL     1       7.236   2.734   2.959  0.00  0.00    -0.167 F 
ATOM     21  F   UNL     1       7.099   4.209   4.698  0.00  0.00    -0.167 F 
ATOM     22  F   UNL     1       6.965   1.963   5.092  0.00  0.00    -0.167 F 
ENDBRANCH  10  19
BRANCH  10  23
ATOM     23  C   UNL     1       4.488   3.078   5.420  0.00  0.00    +0.428 C 
ATOM     24  F   UNL     1       5.024   2.045   6.196  0.00  0.00    -0.167 F 
ATOM     25  F   UNL     1       4.760   4.308   6.028  0.00  0.00    -0.167 F 
ATOM     26  F   UNL     1       3.104   2.908   5.310  0.00  0.00    -0.167 F 
ENDBRANCH  10  23
BRANCH   1  27
ATOM     27  C   UNL     1       2.842   0.877   0.188  0.00  0.00    +0.191 C 
BRANCH  27  30
ATOM     28  C   UNL     1      -0.680   1.733   0.854  0.00  0.00    +0.041 A 
ATOM     29  C   UNL     1       0.666   2.107   0.636  0.00  0.00    +0.046 A 
ATOM     30  C   UNL     1       1.362   0.971   0.454  0.00  0.00    +0.123 A 
ATOM     31  O   UNL     1       0.514  -0.066   0.548  0.00  0.00    -0.466 OA
ATOM     32  C   UNL     1      -0.726   0.390   0.791  0.00  0.00    +0.195 A 
ENDBRANCH  27  30
ENDBRANCH   1  27
TORSDOF 5
