REMARK  Name = ZINC10401037
REMARK  12 active torsions:
REMARK  status: ('A' for Active; 'I' for Inactive)
REMARK    1  A    between atoms: C_1  and  N_2
REMARK    2  A    between atoms: C_6  and  C_8
REMARK    3  A    between atoms: C_8  and  O_9
REMARK    4  A    between atoms: O_9  and  C_10
REMARK    5  A    between atoms: C_10  and  C_12
REMARK    6  A    between atoms: C_15  and  O_18
REMARK    7  A    between atoms: O_18  and  C_19
REMARK    8  A    between atoms: C_22  and  C_25
REMARK    9  A    between atoms: C_25  and  O_27
REMARK   10  A    between atoms: O_27  and  C_28
REMARK   11  A    between atoms: C_28  and  C_29
REMARK   12  A    between atoms: N_34  and  C_35
REMARK                            x       y       z     vdW  Elec       q    Type
REMARK                         _______ _______ _______ _____ _____    ______ ____
ROOT
ATOM      1  O   UNL     1      -4.904   3.946   0.047  0.00  0.00    -0.456 OA
ENDROOT
BRANCH   1   5
ATOM      2  C   UNL     1      -1.305   1.925   0.091  0.00  0.00    +0.059 A 
ATOM      3  C   UNL     1      -1.757   2.576   1.242  0.00  0.00    +0.018 A 
ATOM      4  C   UNL     1      -2.955   3.254   1.222  0.00  0.00    +0.047 A 
ATOM      5  C   UNL     1      -3.721   3.281   0.062  0.00  0.00    +0.128 A 
ATOM      6  C   UNL     1      -3.277   2.631  -1.084  0.00  0.00    +0.047 A 
ATOM      7  C   UNL     1      -2.077   1.956  -1.074  0.00  0.00    +0.018 A 
BRANCH   2   8
ATOM      8  C   UNL     1      -0.019   1.203   0.106  0.00  0.00    +0.340 C 
ATOM      9  O   UNL     1       0.370   0.634  -0.894  0.00  0.00    -0.245 OA
BRANCH   8  10
ATOM     10  O   UNL     1       0.727   1.180   1.228  0.00  0.00    -0.452 OA
BRANCH  10  11
ATOM     11  C   UNL     1       1.984   0.455   1.169  0.00  0.00    +0.328 C 
BRANCH  11  17
ATOM     12  C   UNL     1       6.347  -0.515   5.363  0.00  0.00    +0.129 C 
ATOM     13  N   UNL     1       5.676  -0.595   4.064  0.00  0.00    -0.302 N 
ATOM     14  C   UNL     1       4.484   0.008   3.882  0.00  0.00    +0.306 C 
ATOM     15  O   UNL     1       3.967   0.619   4.797  0.00  0.00    -0.252 OA
ATOM     16  N   UNL     1       3.866  -0.066   2.687  0.00  0.00    -0.237 N 
ATOM     17  C   UNL     1       2.675   0.538   2.506  0.00  0.00    +0.258 C 
ATOM     18  O   UNL     1       2.159   1.147   3.418  0.00  0.00    -0.272 OA
ATOM     19  H   UNL     1       6.088  -1.083   3.334  0.00  0.00    +0.150 HD
ATOM     20  H   UNL     1       4.279  -0.553   1.957  0.00  0.00    +0.159 HD
ENDBRANCH  11  17
ENDBRANCH  10  11
ENDBRANCH   8  10
ENDBRANCH   2   8
ENDBRANCH   1   5
BRANCH   1  21
ATOM     21  C   UNL     1      -4.877   5.298   0.159  0.00  0.00    +0.128 A 
ATOM     22  C   UNL     1      -3.659   5.969   0.160  0.00  0.00    +0.047 A 
ATOM     23  C   UNL     1      -3.627   7.341   0.269  0.00  0.00    +0.018 A 
ATOM     24  C   UNL     1      -4.821   8.059   0.387  0.00  0.00    +0.059 A 
ATOM     25  C   UNL     1      -6.043   7.380   0.391  0.00  0.00    +0.018 A 
ATOM     26  C   UNL     1      -6.066   6.008   0.277  0.00  0.00    +0.047 A 
BRANCH  24  27
ATOM     27  C   UNL     1      -4.791   9.528   0.508  0.00  0.00    +0.340 C 
ATOM     28  O   UNL     1      -5.830  10.150   0.611  0.00  0.00    -0.245 OA
BRANCH  27  29
ATOM     29  O   UNL     1      -3.613  10.181   0.505  0.00  0.00    -0.452 OA
BRANCH  29  30
ATOM     30  C   UNL     1      -3.659  11.627   0.627  0.00  0.00    +0.328 C 
BRANCH  30  31
ATOM     31  C   UNL     1      -2.257  12.179   0.605  0.00  0.00    +0.258 C 
ATOM     32  O   UNL     1      -1.312  11.428   0.496  0.00  0.00    -0.272 OA
ATOM     33  N   UNL     1      -2.054  13.507   0.705  0.00  0.00    -0.237 N 
ATOM     34  C   UNL     1      -0.800  14.001   0.685  0.00  0.00    +0.306 C 
ATOM     35  O   UNL     1       0.148  13.248   0.576  0.00  0.00    -0.252 OA
ATOM     36  N   UNL     1      -0.597  15.329   0.785  0.00  0.00    -0.302 N 
ATOM     37  C   UNL     1       0.766  15.866   0.763  0.00  0.00    +0.129 C 
ATOM     38  H   UNL     1      -2.810  14.108   0.792  0.00  0.00    +0.159 HD
ATOM     39  H   UNL     1      -1.353  15.930   0.873  0.00  0.00    +0.150 HD
ENDBRANCH  30  31
ENDBRANCH  29  30
ENDBRANCH  27  29
ENDBRANCH  24  27
ENDBRANCH   1  21
TORSDOF 10
