REMARK  Name = ZINC59507632
REMARK  9 active torsions:
REMARK  status: ('A' for Active; 'I' for Inactive)
REMARK    1  A    between atoms: C_6  and  N_7
REMARK    2  A    between atoms: N_7  and  C_8
REMARK    3  A    between atoms: C_8  and  C_9
REMARK    4  A    between atoms: C_9  and  C_10
REMARK    5  A    between atoms: C_10  and  C_11
REMARK    6  A    between atoms: N_13  and  N_14
REMARK    7  A    between atoms: C_15  and  C_16
REMARK    8  A    between atoms: C_19  and  O_23
REMARK    9  A    between atoms: C_21  and  O_22
REMARK                            x       y       z     vdW  Elec       q    Type
REMARK                         _______ _______ _______ _____ _____    ______ ____
ROOT
ATOM      1  C   UNL     1      -4.002  -4.769   0.016  0.00  0.00    +0.232 C 
ATOM      2  O   UNL     1      -4.936  -3.995   0.030  0.00  0.00    -0.274 OA
ATOM      3  N   UNL     1      -4.229  -6.098   0.011  0.00  0.00    -0.207 N 
ATOM      4  H   UNL     1      -3.482  -6.717   0.001  0.00  0.00    +0.177 HD
ENDROOT
BRANCH   3   5
ATOM      5  N   UNL     1      -5.543  -6.584   0.022  0.00  0.00    -0.188 NA
ATOM      6  C   UNL     1      -5.761  -7.864   0.017  0.00  0.00    +0.142 C 
BRANCH   6   7
ATOM      7  C   UNL     1      -7.143  -8.375   0.028  0.00  0.00    +0.036 A 
ATOM      8  C   UNL     1      -7.381  -9.752   0.029  0.00  0.00    +0.016 A 
ATOM      9  C   UNL     1      -8.674 -10.226   0.040  0.00  0.00    +0.046 A 
ATOM     10  C   UNL     1      -9.745  -9.339   0.049  0.00  0.00    +0.120 A 
ATOM     11  C   UNL     1      -9.518  -7.971   0.048  0.00  0.00    +0.091 A 
ATOM     12  C   UNL     1      -8.224  -7.482   0.044  0.00  0.00    +0.129 A 
BRANCH  12  13
ATOM     13  O   UNL     1      -8.001  -6.143   0.048  0.00  0.00    -0.506 OA
ATOM     14  H   UNL     1      -7.945  -5.750  -0.834  0.00  0.00    +0.292 HD
ENDBRANCH  12  13
BRANCH  10  15
ATOM     15  O   UNL     1     -11.017  -9.815   0.059  0.00  0.00    -0.507 OA
ATOM     16  H   UNL     1     -11.378  -9.953   0.946  0.00  0.00    +0.292 HD
ENDBRANCH  10  15
ENDBRANCH   6   7
ENDBRANCH   3   5
BRANCH   1  17
ATOM     17  C   UNL     1      -2.589  -4.246   0.005  0.00  0.00    +0.099 C 
BRANCH  17  18
ATOM     18  C   UNL     1      -2.611  -2.716   0.013  0.00  0.00    +0.028 C 
BRANCH  18  19
ATOM     19  C   UNL     1      -1.176  -2.185   0.002  0.00  0.00    +0.102 C 
BRANCH  19  20
ATOM     20  N   UNL     1      -1.198  -0.721   0.010  0.00  0.00    -0.344 N 
ATOM     21  H   UNL     1      -2.045  -0.248   0.021  0.00  0.00    +0.146 HD
BRANCH  20  27
ATOM     22  C   UNL     1      -0.017   1.385   0.010  0.00  0.00    +0.024 A 
ATOM     23  C   UNL     1       1.171   2.090   0.002  0.00  0.00    +0.022 A 
ATOM     24  C   UNL     1       2.378   1.415  -0.013  0.00  0.00    +0.041 A 
ATOM     25  C   UNL     1       2.400   0.031  -0.022  0.00  0.00    +0.022 A 
ATOM     26  C   UNL     1       1.216  -0.679  -0.014  0.00  0.00    +0.024 A 
ATOM     27  C   UNL     1       0.002  -0.004   0.002  0.00  0.00    +0.027 A 
ATOM     28 CL   UNL     1       3.869   2.305  -0.024  0.00  0.00    -0.084 Cl
ENDBRANCH  20  27
ENDBRANCH  19  20
ENDBRANCH  18  19
ENDBRANCH  17  18
ENDBRANCH   1  17
TORSDOF 9
