REMARK  Name = ZINC37329963
REMARK  4 active torsions:
REMARK  status: ('A' for Active; 'I' for Inactive)
REMARK    1  A    between atoms: C_2  and  C_13
REMARK    2  A    between atoms: C_13  and  C_15
REMARK    3  A    between atoms: C_13  and  N_17
REMARK    4  A    between atoms: N_17  and  C_18
REMARK                            x       y       z     vdW  Elec       q    Type
REMARK                         _______ _______ _______ _____ _____    ______ ____
ROOT
ATOM      1  C   UNL     1      -0.017   1.380   0.010  0.00  0.00    +0.055 A 
ATOM      2  C   UNL     1       1.175   2.083   0.002  0.00  0.00    -0.012 A 
ATOM      3  C   UNL     1       2.381   1.407  -0.013  0.00  0.00    +0.025 A 
ATOM      4  C   UNL     1       2.404   0.023  -0.022  0.00  0.00    +0.063 A 
ATOM      5  C   UNL     1       1.212  -0.683  -0.014  0.00  0.00    +0.176 A 
ATOM      6  C   UNL     1       0.002  -0.004   0.002  0.00  0.00    +0.163 A 
ATOM      7  O   UNL     1      -1.167  -0.709   0.010  0.00  0.00    -0.488 OA
ATOM      8  C   UNL     1      -1.468  -1.433  -1.184  0.00  0.00    +0.232 C 
ATOM      9  C   UNL     1      -0.780  -2.789  -1.181  0.00  0.00    +0.082 C 
ATOM     10  C   UNL     1       0.736  -2.670  -1.212  0.00  0.00    +0.232 C 
ATOM     11  O   UNL     1       1.220  -2.048  -0.021  0.00  0.00    -0.487 OA
ATOM     12 BR   UNL     1       4.054  -0.900  -0.044  0.00  0.00    -0.046 Br
ENDROOT
BRANCH   2  13
ATOM     13  C   UNL     1       1.159   3.590   0.010  0.00  0.00    +0.188 C 
BRANCH  13  14
ATOM     14  C   UNL     1       1.408   4.076   1.377  0.00  0.00    +0.086 C 
ATOM     15  N   UNL     1       1.600   4.451   2.432  0.00  0.00    -0.195 NA
ENDBRANCH  13  14
BRANCH  13  16
ATOM     16  N   UNL     1       2.206   4.096  -0.887  0.00  0.00    -0.295 NA
ATOM     17  H   UNL     1       3.107   4.085  -0.434  0.00  0.00    +0.124 HD
BRANCH  16  18
ATOM     18  C   UNL     1       1.877   5.442  -1.374  0.00  0.00    +0.055 C 
ATOM     19  C   UNL     1       2.106   5.732  -2.859  0.00  0.00    +0.020 C 
ATOM     20  C   UNL     1       3.038   6.340  -1.808  0.00  0.00    +0.020 C 
ENDBRANCH  16  18
ENDBRANCH  13  16
ENDBRANCH   2  13
TORSDOF 4
