REMARK  Name = ZINC19113539
REMARK  10 active torsions:
REMARK  status: ('A' for Active; 'I' for Inactive)
REMARK    1  A    between atoms: C_1  and  C_2
REMARK    2  A    between atoms: N_4  and  C_5
REMARK    3  A    between atoms: C_7  and  C_22
REMARK    4  A    between atoms: C_9  and  C_11
REMARK    5  A    between atoms: N_13  and  C_14
REMARK    6  A    between atoms: C_19  and  O_20
REMARK    7  A    between atoms: O_20  and  C_21
REMARK    8  A    between atoms: C_22  and  N_51
REMARK    9  A    between atoms: C_23  and  C_24
REMARK   10  A    between atoms: C_23  and  N_51
REMARK                            x       y       z     vdW  Elec       q    Type
REMARK                         _______ _______ _______ _____ _____    ______ ____
ROOT
ATOM      1  C   UNL     1      -6.093   2.060  -0.221  0.00  0.00    +0.034 A 
ATOM      2  C   UNL     1      -7.282   1.346  -0.318  0.00  0.00    +0.025 A 
ATOM      3  C   UNL     1      -7.263  -0.036  -0.330  0.00  0.00    -0.062 A 
ATOM      4  C   UNL     1      -6.065  -0.716  -0.245  0.00  0.00    +0.015 A 
ATOM      5  C   UNL     1      -4.866  -0.007  -0.147  0.00  0.00    +0.039 A 
ATOM      6  C   UNL     1      -4.885   1.387  -0.129  0.00  0.00    +0.036 A 
ENDROOT
BRANCH   1  10
ATOM      7  C   UNL     1      -7.105   5.614   0.501  0.00  0.00    +0.109 C 
ATOM      8  C   UNL     1      -7.132   4.111   0.394  0.00  0.00    +0.214 C 
ATOM      9  O   UNL     1      -8.068   3.487   0.849  0.00  0.00    -0.276 OA
ATOM     10  N   UNL     1      -6.118   3.460  -0.208  0.00  0.00    -0.286 N 
ATOM     11  H   UNL     1      -5.404   3.961  -0.633  0.00  0.00    +0.155 HD
ENDBRANCH   1  10
BRANCH   5  12
ATOM     12  C   UNL     1      -3.581  -0.733  -0.057  0.00  0.00    +0.248 C 
ATOM     13  O   UNL     1      -3.567  -1.948  -0.068  0.00  0.00    -0.270 OA
ATOM     14  N   UNL     1      -2.425  -0.046   0.037  0.00  0.00    -0.279 N 
ATOM     15  H   UNL     1      -2.441   0.919   0.128  0.00  0.00    +0.155 HD
BRANCH  14  16
ATOM     16  C   UNL     1      -1.202  -0.728   0.006  0.00  0.00    +0.076 A 
ATOM     17  C   UNL     1      -1.111  -1.966  -0.614  0.00  0.00    +0.027 A 
ATOM     18  C   UNL     1       0.096  -2.638  -0.639  0.00  0.00    +0.002 A 
ATOM     19  C   UNL     1       1.216  -2.079  -0.052  0.00  0.00    +0.004 A 
ATOM     20  C   UNL     1       1.134  -0.843   0.563  0.00  0.00    +0.047 A 
ATOM     21  C   UNL     1      -0.072  -0.162   0.593  0.00  0.00    +0.141 A 
BRANCH  21  22
ATOM     22  O   UNL     1      -0.154   1.053   1.197  0.00  0.00    -0.493 OA
ATOM     23  C   UNL     1       1.043   1.569   1.783  0.00  0.00    +0.277 C 
ENDBRANCH  21  22
ENDBRANCH  14  16
ENDBRANCH   5  12
BRANCH   3  24
ATOM     24  C   UNL     1      -8.556  -0.804  -0.436  0.00  0.00    -0.046 C 
BRANCH  24  25
ATOM     25  N   UNL     1      -9.076  -1.064   0.920  0.00  0.00    +0.384 N 
ATOM     26  H   UNL     1      -9.239  -0.169   1.397  0.00  0.00    -0.085 HD
ATOM     27  H   UNL     1      -8.387  -1.612   1.448  0.00  0.00    -0.085 HD
BRANCH  25  28
ATOM     28  C   UNL     1     -10.344  -1.815   0.847  0.00  0.00    -0.046 C 
BRANCH  28  29
ATOM     29  C   UNL     1     -10.850  -2.065   2.244  0.00  0.00    -0.057 A 
ATOM     30  C   UNL     1     -10.485  -3.209   2.928  0.00  0.00    +0.009 A 
ATOM     31  C   UNL     1     -10.954  -3.402   4.185  0.00  0.00    +0.045 A 
ATOM     32  S   UNL     1     -11.956  -1.945   4.432  0.00  0.00    -0.105 S 
ATOM     33  C   UNL     1     -11.676  -1.175   2.846  0.00  0.00    +0.047 A 
ENDBRANCH  28  29
ENDBRANCH  25  28
ENDBRANCH  24  25
ENDBRANCH   3  24
TORSDOF 8
