REMARK  Name = ZINC58950456
REMARK  4 active torsions:
REMARK  status: ('A' for Active; 'I' for Inactive)
REMARK    1  A    between atoms: C_4  and  C_10
REMARK    2  A    between atoms: C_6  and  N_7
REMARK    3  A    between atoms: C_22  and  N_27
REMARK    4  A    between atoms: C_23  and  C_24
REMARK                            x       y       z     vdW  Elec       q    Type
REMARK                         _______ _______ _______ _____ _____    ______ ____
ROOT
ATOM      1  C   UNL     1       3.862  -0.738  -0.014  0.00  0.00    +0.101 C 
ATOM      2  C   UNL     1       3.921  -1.640   1.188  0.00  0.00    +0.091 A 
ATOM      3  C   UNL     1       4.321  -1.129   2.429  0.00  0.00    +0.262 A 
ATOM      4  O   UNL     1       4.624   0.047   2.550  0.00  0.00    -0.267 OA
ATOM      5  N   UNL     1       4.365  -1.963   3.490  0.00  0.00    -0.273 N 
ATOM      6  H   UNL     1       4.639  -1.629   4.359  0.00  0.00    +0.173 HD
ATOM      7  C   UNL     1       4.024  -3.269   3.341  0.00  0.00    +0.352 A 
ATOM      8  O   UNL     1       4.073  -4.090   4.411  0.00  0.00    -0.245 OA
ATOM      9  N   UNL     1       3.649  -3.752   2.179  0.00  0.00    -0.157 NA
ATOM     10  C   UNL     1       3.585  -2.975   1.089  0.00  0.00    +0.236 A 
ATOM     11  O   UNL     1       3.195  -3.506  -0.089  0.00  0.00    -0.423 OA
ATOM     12  C   UNL     1       3.480  -2.874  -1.239  0.00  0.00    +0.195 C 
ATOM     13  C   UNL     1       3.803  -1.560  -1.272  0.00  0.00    +0.083 C 
ENDROOT
BRANCH   1  17
ATOM     14  C   UNL     1       0.377   1.722   0.232  0.00  0.00    +0.034 A 
ATOM     15  C   UNL     1       1.631   2.303   0.191  0.00  0.00    +0.022 A 
ATOM     16  C   UNL     1       2.759   1.507   0.112  0.00  0.00    +0.045 A 
ATOM     17  C   UNL     1       2.633   0.130   0.073  0.00  0.00    -0.015 A 
ATOM     18  C   UNL     1       1.379  -0.450   0.114  0.00  0.00    +0.038 A 
ATOM     19  C   UNL     1       0.251   0.346   0.193  0.00  0.00    +0.127 A 
ATOM     20 CL   UNL     1       4.334   2.236   0.060  0.00  0.00    -0.083 Cl
BRANCH  19  21
ATOM     21  N   UNL     1      -1.091  -0.275   0.237  0.00  0.00    +0.056 N 
ATOM     22  O   UNL     1      -2.078   0.421   0.307  0.00  0.00    -0.126 OA
ATOM     23  O   UNL     1      -1.202  -1.478   0.203  0.00  0.00    -0.126 OA
ENDBRANCH  19  21
ENDBRANCH   1  17
BRANCH  13  24
ATOM     24  C   UNL     1       4.090  -0.954  -2.507  0.00  0.00    +0.243 C 
ATOM     25  O   UNL     1       5.247  -0.756  -2.835  0.00  0.00    -0.271 OA
ATOM     26  N   UNL     1       3.086  -0.592  -3.329  0.00  0.00    -0.325 N 
ATOM     27  H   UNL     1       2.165  -0.749  -3.068  0.00  0.00    +0.145 HD
ATOM     28  H   UNL     1       3.284  -0.173  -4.182  0.00  0.00    +0.145 HD
ENDBRANCH  13  24
BRANCH  12  29
ATOM     29  N   UNL     1       3.442  -3.579  -2.412  0.00  0.00    -0.329 N 
ATOM     30  H   UNL     1       3.292  -4.538  -2.397  0.00  0.00    +0.145 HD
ATOM     31  H   UNL     1       3.566  -3.121  -3.258  0.00  0.00    +0.145 HD
ENDBRANCH  12  29
TORSDOF 4
