REMARK  Name = ZINC07813881
REMARK  5 active torsions:
REMARK  status: ('A' for Active; 'I' for Inactive)
REMARK    1  A    between atoms: C_6  and  C_7
REMARK    2  A    between atoms: C_7  and  N_8
REMARK    3  A    between atoms: N_8  and  C_9
REMARK    4  A    between atoms: C_9  and  N_11
REMARK    5  A    between atoms: N_11  and  N_12
REMARK                            x       y       z     vdW  Elec       q    Type
REMARK                         _______ _______ _______ _____ _____    ______ ____
ROOT
ATOM      1  C   UNL     1       3.313   2.226  -4.085  0.00  0.00    +0.150 C 
ATOM      2  S   UNL     1       4.264   0.831  -4.370  0.00  0.00    -0.017 S 
ENDROOT
BRANCH   1   3
ATOM      3  N   UNL     1       3.819   3.450  -4.336  0.00  0.00    -0.321 N 
ATOM      4  H   UNL     1       3.279   4.239  -4.175  0.00  0.00    +0.148 HD
BRANCH   3   5
ATOM      5  C   UNL     1       5.183   3.586  -4.852  0.00  0.00    +0.138 C 
BRANCH   5  11
ATOM      6  C   UNL     1       5.236   5.656  -6.257  0.00  0.00    +0.009 A 
ATOM      7  C   UNL     1       5.523   6.997  -6.438  0.00  0.00    +0.050 A 
ATOM      8  C   UNL     1       6.089   7.729  -5.408  0.00  0.00    +0.166 A 
ATOM      9  C   UNL     1       6.363   7.113  -4.188  0.00  0.00    +0.167 A 
ATOM     10  C   UNL     1       6.067   5.772  -4.013  0.00  0.00    +0.054 A 
ATOM     11  C   UNL     1       5.503   5.046  -5.046  0.00  0.00    -0.027 A 
ATOM     12  O   UNL     1       6.912   8.037  -3.347  0.00  0.00    -0.453 OA
ATOM     13  C   UNL     1       7.348   9.117  -4.194  0.00  0.00    +0.466 C 
ATOM     14  O   UNL     1       6.467   9.039  -5.330  0.00  0.00    -0.453 OA
ENDBRANCH   5  11
ENDBRANCH   3   5
ENDBRANCH   1   3
BRANCH   1  15
ATOM     15  N   UNL     1       2.058   2.100  -3.611  0.00  0.00    -0.218 N 
ATOM     16  H   UNL     1       1.694   1.219  -3.430  0.00  0.00    +0.176 HD
BRANCH  15  17
ATOM     17  N   UNL     1       1.279   3.241  -3.378  0.00  0.00    -0.190 NA
ATOM     18  C   UNL     1       0.087   3.121  -2.927  0.00  0.00    +0.040 C 
ATOM     19  C   UNL     1      -0.825   4.255  -2.637  0.00  0.00    +0.056 C 
ATOM     20  C   UNL     1      -2.001   3.543  -1.862  0.00  0.00    -0.001 C 
ATOM     21  C   UNL     1      -2.134   2.293  -2.810  0.00  0.00    +0.014 C 
ATOM     22  C   UNL     1      -0.626   1.812  -2.595  0.00  0.00    +0.039 C 
ATOM     23  C   UNL     1      -0.788   1.605  -1.133  0.00  0.00    +0.001 C 
ATOM     24  C   UNL     1      -1.205   3.049  -0.639  0.00  0.00    -0.004 C 
ATOM     25  C   UNL     1      -1.898   2.596   0.646  0.00  0.00    +0.004 C 
ATOM     26  C   UNL     1      -0.814   1.625   1.243  0.00  0.00    +0.001 C 
ATOM     27  C   UNL     1      -0.013   1.086   0.008  0.00  0.00    +0.004 C 
ENDBRANCH  15  17
ENDBRANCH   1  15
TORSDOF 5
