REMARK  Name = ZINC08710508
REMARK  10 active torsions:
REMARK  status: ('A' for Active; 'I' for Inactive)
REMARK    1  A    between atoms: C_1  and  C_2
REMARK    2  A    between atoms: C_2  and  C_3
REMARK    3  A    between atoms: C_3  and  C_4
REMARK    4  A    between atoms: C_4  and  N_5
REMARK    5  A    between atoms: C_6  and  N_30
REMARK    6  A    between atoms: C_7  and  N_14
REMARK    7  A    between atoms: N_14  and  C_15
REMARK    8  A    between atoms: C_16  and  C_18
REMARK    9  A    between atoms: C_21  and  C_29
REMARK   10  A    between atoms: C_22  and  N_24
REMARK                            x       y       z     vdW  Elec       q    Type
REMARK                         _______ _______ _______ _____ _____    ______ ____
ROOT
ATOM      1  N   UNL     1      -0.859   2.348  -0.108  0.00  0.00    -0.280 N 
ATOM      2  C   UNL     1       0.211   3.201  -0.245  0.00  0.00    +0.127 A 
ATOM      3  C   UNL     1       1.246   3.136   0.666  0.00  0.00    +0.140 A 
ATOM      4  C   UNL     1       1.173   2.196   1.711  0.00  0.00    +0.277 A 
ATOM      5  O   UNL     1       2.073   2.117   2.530  0.00  0.00    -0.266 OA
ATOM      6  N   UNL     1       0.102   1.383   1.800  0.00  0.00    -0.273 N 
ATOM      7  H   UNL     1       0.047   0.718   2.545  0.00  0.00    +0.173 HD
ATOM      8  C   UNL     1      -0.894   1.457   0.899  0.00  0.00    +0.331 A 
ATOM      9  O   UNL     1      -1.847   0.708   1.001  0.00  0.00    -0.246 OA
ENDROOT
BRANCH   3  10
ATOM     10  N   UNL     1       2.356   3.998   0.553  0.00  0.00    -0.263 N 
ATOM     11  C   UNL     1       2.161   5.450   0.564  0.00  0.00    +0.139 C 
ATOM     12  C   UNL     1       3.597   3.485   0.434  0.00  0.00    +0.251 C 
ATOM     13  O   UNL     1       4.562   4.226   0.414  0.00  0.00    -0.270 OA
BRANCH  12  14
ATOM     14  C   UNL     1       3.786   2.023   0.329  0.00  0.00    +0.039 A 
ATOM     15  C   UNL     1       2.726   1.206  -0.068  0.00  0.00    +0.013 A 
ATOM     16  C   UNL     1       2.907  -0.158  -0.171  0.00  0.00    +0.006 A 
ATOM     17  C   UNL     1       4.133  -0.722   0.130  0.00  0.00    -0.027 A 
ATOM     18  C   UNL     1       5.192   0.082   0.532  0.00  0.00    +0.050 A 
ATOM     19  C   UNL     1       5.023   1.454   0.632  0.00  0.00    +0.039 A 
ATOM     20  C   UNL     1       4.320  -2.213   0.021  0.00  0.00    +0.046 C 
BRANCH  18  21
ATOM     21  N   UNL     1       6.434  -0.495   0.836  0.00  0.00    -0.323 N 
ATOM     22  C   UNL     1       6.635  -1.554   1.674  0.00  0.00    +0.091 A 
ATOM     23  C   UNL     1       7.957  -1.819   1.708  0.00  0.00    +0.019 A 
ATOM     24  C   UNL     1       8.597  -0.885   0.868  0.00  0.00    +0.019 A 
ATOM     25  C   UNL     1       7.642  -0.088   0.347  0.00  0.00    +0.091 A 
ENDBRANCH  18  21
ENDBRANCH  12  14
ENDBRANCH   3  10
BRANCH   2  26
ATOM     26  N   UNL     1       0.250   4.107  -1.278  0.00  0.00    -0.343 N 
ATOM     27  H   UNL     1       1.063   4.606  -1.456  0.00  0.00    +0.144 HD
ATOM     28  H   UNL     1      -0.536   4.248  -1.829  0.00  0.00    +0.144 HD
ENDBRANCH   2  26
BRANCH   1  29
ATOM     29  C   UNL     1      -1.964   2.405  -1.069  0.00  0.00    +0.128 C 
BRANCH  29  30
ATOM     30  C   UNL     1      -1.679   1.452  -2.231  0.00  0.00    +0.021 C 
BRANCH  30  32
ATOM     31  C   UNL     1      -2.548   0.559  -4.397  0.00  0.00    +0.004 C 
ATOM     32  C   UNL     1      -2.833   1.512  -3.234  0.00  0.00    -0.002 C 
ENDBRANCH  30  32
ENDBRANCH  29  30
ENDBRANCH   1  29
TORSDOF 7
