REMARK  Name = ZINC20276301
REMARK  6 active torsions:
REMARK  status: ('A' for Active; 'I' for Inactive)
REMARK    1  A    between atoms: C_1  and  C_2
REMARK    2  A    between atoms: C_2  and  C_3
REMARK    3  A    between atoms: C_2  and  C_4
REMARK    4  A    between atoms: N_8  and  C_17
REMARK    5  A    between atoms: C_12  and  N_16
REMARK    6  A    between atoms: C_17  and  C_18
REMARK                            x       y       z     vdW  Elec       q    Type
REMARK                         _______ _______ _______ _____ _____    ______ ____
ROOT
ATOM      1  C   UNL     1       1.283   2.112   0.001  0.00  0.00    +0.262 C 
ATOM      2  C   UNL     1      -0.016   1.347   0.009  0.00  0.00    +0.261 C 
ATOM      3  O   UNL     1      -1.073   1.941   0.018  0.00  0.00    -0.271 OA
ATOM      4  N   UNL     1       0.002  -0.004   0.002  0.00  0.00    -0.256 N 
ATOM      5  C   UNL     1       1.239  -0.667  -0.049  0.00  0.00    +0.079 A 
ATOM      6  C   UNL     1       1.332  -2.014   0.259  0.00  0.00    +0.029 A 
ATOM      7  C   UNL     1       2.557  -2.652   0.203  0.00  0.00    +0.025 A 
ATOM      8  C   UNL     1       3.695  -1.944  -0.162  0.00  0.00    +0.028 A 
ATOM      9  C   UNL     1       3.605  -0.592  -0.471  0.00  0.00    +0.070 A 
ATOM     10  C   UNL     1       2.380   0.046  -0.415  0.00  0.00    +0.145 A 
ATOM     11  O   UNL     1       2.274   1.369  -0.713  0.00  0.00    -0.477 OA
ENDROOT
BRANCH   1  13
ATOM     12  C   UNL     1       3.070   3.111   1.433  0.00  0.00    +0.011 C 
ATOM     13  C   UNL     1       1.752   2.334   1.440  0.00  0.00    +0.033 C 
ATOM     14  C   UNL     1       0.694   3.133   2.204  0.00  0.00    +0.011 C 
ENDBRANCH   1  13
BRANCH   8  15
ATOM     15  N   UNL     1       4.933  -2.592  -0.217  0.00  0.00    -0.358 N 
ATOM     16  H   UNL     1       5.835  -2.032  -0.506  0.00  0.00    +0.142 HD
ATOM     17  H   UNL     1       5.005  -3.662   0.028  0.00  0.00    +0.142 HD
ENDBRANCH   8  15
BRANCH   4  18
ATOM     18  C   UNL     1      -1.249  -0.765   0.046  0.00  0.00    +0.209 C 
BRANCH  18  19
ATOM     19  C   UNL     1      -1.732  -1.019  -1.359  0.00  0.00    +0.228 C 
ATOM     20  O   UNL     1      -1.094  -0.605  -2.304  0.00  0.00    -0.274 OA
ATOM     21  N   UNL     1      -2.873  -1.706  -1.565  0.00  0.00    -0.328 N 
ATOM     22  H   UNL     1      -3.225  -1.892  -2.591  0.00  0.00    +0.145 HD
ATOM     23  H   UNL     1      -3.451  -2.082  -0.708  0.00  0.00    +0.145 HD
ENDBRANCH  18  19
ENDBRANCH   4  18
TORSDOF 4
