REMARK  Name = ZINC20763840
REMARK  7 active torsions:
REMARK  status: ('A' for Active; 'I' for Inactive)
REMARK    1  A    between atoms: C_1  and  C_2
REMARK    2  A    between atoms: C_2  and  N_3
REMARK    3  A    between atoms: C_12  and  N_16
REMARK    4  A    between atoms: N_17  and  C_18
REMARK    5  A    between atoms: N_17  and  C_20
REMARK    6  A    between atoms: C_18  and  C_19
REMARK    7  A    between atoms: C_20  and  C_21
REMARK                            x       y       z     vdW  Elec       q    Type
REMARK                         _______ _______ _______ _____ _____    ______ ____
ROOT
ATOM      1  N   UNL     1      -0.735  -1.034   0.487  0.00  0.00    -0.298 NA
ATOM      2  C   UNL     1      -1.205  -0.912   1.877  0.00  0.00    +0.089 C 
ATOM      3  C   UNL     1      -2.728  -1.049   1.884  0.00  0.00    +0.052 C 
ATOM      4  C   UNL     1      -3.140  -2.269   1.106  0.00  0.00    -0.024 A 
ATOM      5  C   UNL     1      -2.302  -2.895   0.243  0.00  0.00    +0.011 A 
ATOM      6  C   UNL     1      -2.741  -4.029  -0.469  0.00  0.00    +0.128 A 
ATOM      7  N   UNL     1      -3.947  -4.530  -0.334  0.00  0.00    -0.211 NA
ATOM      8  C   UNL     1      -4.839  -3.974   0.505  0.00  0.00    +0.185 A 
ATOM      9  C   UNL     1      -4.442  -2.786   1.274  0.00  0.00    +0.063 A 
ATOM     10  C   UNL     1      -5.545  -2.431   2.048  0.00  0.00    +0.121 A 
ATOM     11  N   UNL     1      -6.524  -3.312   1.784  0.00  0.00    -0.262 N 
ATOM     12  N   UNL     1      -6.085  -4.247   0.842  0.00  0.00    -0.152 NA
ATOM     13  H   UNL     1      -7.407  -3.300   2.187  0.00  0.00    +0.190 HD
ATOM     14  N   UNL     1      -1.862  -4.641  -1.349  0.00  0.00    -0.315 N 
ATOM     15  C   UNL     1      -0.891  -2.415   0.020  0.00  0.00    +0.123 C 
ENDROOT
BRANCH  10  16
ATOM     16  N   UNL     1      -5.617  -1.365   2.928  0.00  0.00    -0.343 N 
ATOM     17  H   UNL     1      -4.851  -0.783   3.049  0.00  0.00    +0.144 HD
ATOM     18  H   UNL     1      -6.434  -1.201   3.424  0.00  0.00    +0.144 HD
ENDBRANCH  10  16
BRANCH   1  20
ATOM     19  C   UNL     1       0.740   0.916   0.618  0.00  0.00    +0.020 C 
ATOM     20  C   UNL     1       0.659  -0.590   0.361  0.00  0.00    +0.081 C 
ENDBRANCH   1  20
BRANCH  14  21
ATOM     21  C   UNL     1      -0.882  -5.609  -0.850  0.00  0.00    +0.103 C 
ATOM     22  C   UNL     1      -1.490  -7.013  -0.882  0.00  0.00    +0.024 C 
ENDBRANCH  14  21
BRANCH  14  23
ATOM     23  C   UNL     1      -1.914  -4.321  -2.777  0.00  0.00    +0.103 C 
ATOM     24  C   UNL     1      -0.886  -3.233  -3.094  0.00  0.00    +0.024 C 
ENDBRANCH  14  23
TORSDOF 4
