REMARK  Name = ZINC14076163
REMARK  8 active torsions:
REMARK  status: ('A' for Active; 'I' for Inactive)
REMARK    1  A    between atoms: C_1  and  C_2
REMARK    2  A    between atoms: C_2  and  C_4
REMARK    3  A    between atoms: C_2  and  S_13
REMARK    4  A    between atoms: N_9  and  C_10
REMARK    5  A    between atoms: S_13  and  C_14
REMARK    6  A    between atoms: N_19  and  C_20
REMARK    7  A    between atoms: C_20  and  C_21
REMARK    8  A    between atoms: C_20  and  C_22
REMARK                            x       y       z     vdW  Elec       q    Type
REMARK                         _______ _______ _______ _____ _____    ______ ____
ROOT
ATOM      1  C   UNL     1      -0.019   1.526   0.010  0.00  0.00    +0.029 C 
ATOM      2  C   UNL     1       0.002  -0.004   0.002  0.00  0.00    +0.136 C 
ENDROOT
BRANCH   2   3
ATOM      3  C   UNL     1      -1.412  -0.526   0.013  0.00  0.00    +0.233 C 
ATOM      4  O   UNL     1      -1.927  -0.901  -1.018  0.00  0.00    -0.274 OA
ATOM      5  N   UNL     1      -2.103  -0.575   1.169  0.00  0.00    -0.239 N 
ATOM      6  C   UNL     1      -3.368  -1.042   1.178  0.00  0.00    +0.306 C 
ATOM      7  O   UNL     1      -3.884  -1.418   0.144  0.00  0.00    -0.252 OA
ATOM      8  N   UNL     1      -4.059  -1.091   2.334  0.00  0.00    -0.296 N 
ATOM      9  H   UNL     1      -1.691  -0.275   1.994  0.00  0.00    +0.159 HD
ATOM     10  H   UNL     1      -3.647  -0.790   3.159  0.00  0.00    +0.151 HD
BRANCH   8  11
ATOM     11  C   UNL     1      -5.433  -1.598   2.344  0.00  0.00    +0.075 C 
ATOM     12  C   UNL     1      -6.466  -0.822   3.163  0.00  0.00    +0.024 C 
ATOM     13  C   UNL     1      -5.962  -2.179   3.657  0.00  0.00    +0.024 C 
ENDBRANCH   8  11
ENDBRANCH   2   3
BRANCH   2  14
ATOM     14  S   UNL     1       0.851  -0.589  -1.490  0.00  0.00    -0.084 S 
BRANCH  14  15
ATOM     15  C   UNL     1       2.509  -0.029  -1.285  0.00  0.00    +0.161 A 
ATOM     16  N   UNL     1       3.044   0.652  -0.290  0.00  0.00    -0.133 NA
ATOM     17  N   UNL     1       4.377   0.992  -0.331  0.00  0.00    -0.125 NA
ATOM     18  C   UNL     1       5.113   0.634  -1.365  0.00  0.00    +0.183 A 
ATOM     19  S   UNL     1       3.916  -0.237  -2.365  0.00  0.00    -0.025 S 
ATOM     20  N   UNL     1       6.461   0.868  -1.609  0.00  0.00    -0.320 N 
ATOM     21  H   UNL     1       6.871   0.540  -2.425  0.00  0.00    +0.148 HD
BRANCH  20  22
ATOM     22  C   UNL     1       7.264   1.610  -0.634  0.00  0.00    +0.066 C 
ATOM     23  C   UNL     1       8.736   1.218  -0.781  0.00  0.00    +0.027 C 
ATOM     24  C   UNL     1       7.109   3.112  -0.883  0.00  0.00    +0.027 C 
ENDBRANCH  20  22
ENDBRANCH  14  15
ENDBRANCH   2  14
TORSDOF 5
