REMARK  Name = ZINC53219067
REMARK  8 active torsions:
REMARK  status: ('A' for Active; 'I' for Inactive)
REMARK    1  A    between atoms: C_1  and  C_2
REMARK    2  A    between atoms: C_2  and  C_3
REMARK    3  A    between atoms: C_2  and  C_4
REMARK    4  A    between atoms: C_2  and  C_11
REMARK    5  A    between atoms: N_13  and  C_14
REMARK    6  A    between atoms: C_14  and  C_15
REMARK    7  A    between atoms: C_15  and  C_16
REMARK    8  A    between atoms: C_19  and  N_22
REMARK                            x       y       z     vdW  Elec       q    Type
REMARK                         _______ _______ _______ _____ _____    ______ ____
ROOT
ATOM      1  C   UNL     1       0.840  -0.434  -1.175  0.00  0.00    +0.223 C 
ATOM      2  O   UNL     1       0.336  -1.066  -2.079  0.00  0.00    -0.275 OA
ATOM      3  N   UNL     1       2.149  -0.116  -1.222  0.00  0.00    -0.314 N 
ATOM      4  H   UNL     1       2.551   0.389  -0.499  0.00  0.00    +0.149 HD
ENDROOT
BRANCH   1   6
ATOM      5  C   UNL     1      -0.075   1.524   0.043  0.00  0.00    +0.025 C 
ATOM      6  C   UNL     1       0.002  -0.004   0.002  0.00  0.00    +0.066 C 
ATOM      7  C   UNL     1       0.638  -0.517   1.295  0.00  0.00    +0.025 C 
BRANCH   6   8
ATOM      8  C   UNL     1      -1.387  -0.573  -0.135  0.00  0.00    -0.033 A 
ATOM      9  C   UNL     1      -1.842  -1.510   0.774  0.00  0.00    +0.006 A 
ATOM     10  C   UNL     1      -3.115  -2.033   0.648  0.00  0.00    +0.020 A 
ATOM     11  C   UNL     1      -3.934  -1.618  -0.387  0.00  0.00    +0.041 A 
ATOM     12  C   UNL     1      -3.478  -0.680  -1.296  0.00  0.00    +0.020 A 
ATOM     13  C   UNL     1      -2.206  -0.154  -1.166  0.00  0.00    +0.006 A 
ATOM     14 CL   UNL     1      -5.534  -2.274  -0.545  0.00  0.00    -0.084 Cl
ENDBRANCH   6   8
ENDBRANCH   1   6
BRANCH   3  15
ATOM     15  C   UNL     1       2.963  -0.534  -2.366  0.00  0.00    +0.109 C 
BRANCH  15  16
ATOM     16  C   UNL     1       4.401  -0.050  -2.172  0.00  0.00    +0.054 C 
BRANCH  16  17
ATOM     17  C   UNL     1       5.239  -0.479  -3.349  0.00  0.00    -0.046 A 
ATOM     18  C   UNL     1       5.886  -1.700  -3.327  0.00  0.00    +0.006 A 
ATOM     19  C   UNL     1       6.655  -2.095  -4.407  0.00  0.00    +0.033 A 
ATOM     20  C   UNL     1       6.775  -1.268  -5.508  0.00  0.00    +0.126 A 
ATOM     21  C   UNL     1       6.126  -0.048  -5.530  0.00  0.00    +0.033 A 
ATOM     22  C   UNL     1       5.355   0.345  -4.453  0.00  0.00    +0.006 A 
BRANCH  20  23
ATOM     23  N   UNL     1       7.598  -1.690  -6.664  0.00  0.00    +0.056 N 
ATOM     24  O   UNL     1       8.166  -2.757  -6.644  0.00  0.00    -0.126 OA
ATOM     25  O   UNL     1       7.704  -0.967  -7.627  0.00  0.00    -0.126 OA
ENDBRANCH  20  23
ENDBRANCH  16  17
ENDBRANCH  15  16
ENDBRANCH   3  15
TORSDOF 6
