REMARK  Name = ZINC19879725
REMARK  6 active torsions:
REMARK  status: ('A' for Active; 'I' for Inactive)
REMARK    1  A    between atoms: C_1  and  C_2
REMARK    2  A    between atoms: C_5  and  S_8
REMARK    3  A    between atoms: S_8  and  C_9
REMARK    4  A    between atoms: C_10  and  C_20
REMARK    5  A    between atoms: N_21  and  N_22
REMARK    6  A    between atoms: N_22  and  C_23
REMARK                            x       y       z     vdW  Elec       q    Type
REMARK                         _______ _______ _______ _____ _____    ______ ____
ROOT
ATOM      1  C   UNL     1      -1.186  -1.997  -0.002  0.00  0.00    +0.118 A 
ATOM      2  C   UNL     1       0.020  -2.725  -0.014  0.00  0.00    +0.091 A 
ATOM      3  C   UNL     1       1.235  -2.012  -0.026  0.00  0.00    +0.268 A 
ATOM      4  O   UNL     1       2.302  -2.604  -0.037  0.00  0.00    -0.267 OA
ATOM      5  N   UNL     1       1.201  -0.662  -0.025  0.00  0.00    -0.268 N 
ATOM      6  C   UNL     1       2.372   0.037  -0.036  0.00  0.00    +0.096 A 
ATOM      7  C   UNL     1       2.371   1.388  -0.036  0.00  0.00    +0.018 A 
ATOM      8  C   UNL     1       1.158   2.092  -0.023  0.00  0.00    +0.005 A 
ATOM      9  C   UNL     1      -0.018   1.404  -0.012  0.00  0.00    +0.047 A 
ATOM     10  C   UNL     1       0.001  -0.003  -0.013  0.00  0.00    +0.141 A 
ATOM     11  N   UNL     1      -1.151  -0.669  -0.002  0.00  0.00    -0.222 NA
ENDROOT
BRANCH   2  12
ATOM     12  C   UNL     1       0.011  -4.194  -0.015  0.00  0.00    +0.146 C 
ATOM     13  N   UNL     1       1.133  -4.851  -0.027  0.00  0.00    -0.190 NA
BRANCH  13  14
ATOM     14  N   UNL     1       1.125  -6.252  -0.028  0.00  0.00    -0.238 N 
ATOM     15  H   UNL     1       0.169  -6.797  -0.019  0.00  0.00    +0.174 HD
BRANCH  14  16
ATOM     16  C   UNL     1       2.328  -6.957  -0.040  0.00  0.00    +0.048 A 
ATOM     17  C   UNL     1       3.537  -6.271  -0.057  0.00  0.00    +0.025 A 
ATOM     18  C   UNL     1       4.727  -6.972  -0.064  0.00  0.00    +0.002 A 
ATOM     19  C   UNL     1       4.716  -8.355  -0.065  0.00  0.00    +0.000 A 
ATOM     20  C   UNL     1       3.515  -9.041  -0.053  0.00  0.00    +0.002 A 
ATOM     21  C   UNL     1       2.322  -8.347  -0.041  0.00  0.00    +0.025 A 
ENDBRANCH  14  16
ENDBRANCH  13  14
ENDBRANCH   2  12
BRANCH   1  22
ATOM     22  S   UNL     1      -2.732  -2.843   0.013  0.00  0.00    -0.069 S 
BRANCH  22  27
ATOM     23  C   UNL     1      -6.489   1.846   0.594  0.00  0.00    +0.044 C 
ATOM     24  C   UNL     1      -5.551   0.675   0.449  0.00  0.00    -0.050 A 
ATOM     25  C   UNL     1      -5.265   0.172  -0.807  0.00  0.00    +0.004 A 
ATOM     26  C   UNL     1      -4.405  -0.901  -0.944  0.00  0.00    +0.015 A 
ATOM     27  C   UNL     1      -3.828  -1.474   0.183  0.00  0.00    +0.014 A 
ATOM     28  C   UNL     1      -4.122  -0.969   1.444  0.00  0.00    +0.015 A 
ATOM     29  C   UNL     1      -4.978   0.106   1.572  0.00  0.00    +0.004 A 
ENDBRANCH  22  27
ENDBRANCH   1  22
TORSDOF 5
