REMARK  Name = ZINC16020743
REMARK  8 active torsions:
REMARK  status: ('A' for Active; 'I' for Inactive)
REMARK    1  A    between atoms: C_1  and  C_2
REMARK    2  A    between atoms: C_2  and  O_3
REMARK    3  A    between atoms: O_3  and  C_4
REMARK    4  A    between atoms: C_4  and  C_6
REMARK    5  A    between atoms: C_10  and  N_11
REMARK    6  A    between atoms: C_16  and  C_33
REMARK    7  A    between atoms: C_33  and  C_34
REMARK    8  A    between atoms: C_34  and  C_35
REMARK                            x       y       z     vdW  Elec       q    Type
REMARK                         _______ _______ _______ _____ _____    ______ ____
ROOT
ATOM      1  N   UNL     1      -0.606  -2.453  -3.921  0.00  0.00    -0.203 N 
ATOM      2  C   UNL     1      -1.466  -2.057  -2.976  0.00  0.00    +0.232 C 
ATOM      3  O   UNL     1      -1.176  -1.804  -1.826  0.00  0.00    -0.274 OA
ATOM      4  C   UNL     1      -2.857  -1.974  -3.564  0.00  0.00    +0.107 C 
ATOM      5  C   UNL     1      -3.735  -3.082  -2.943  0.00  0.00    +0.068 C 
ATOM      6  N   UNL     1      -4.444  -3.697  -4.096  0.00  0.00    -0.295 NA
ATOM      7  C   UNL     1      -3.434  -3.722  -5.170  0.00  0.00    +0.136 C 
ATOM      8  C   UNL     1      -2.644  -2.395  -5.045  0.00  0.00    +0.123 C 
ATOM      9  C   UNL     1      -1.159  -2.667  -5.120  0.00  0.00    +0.233 C 
ATOM     10  O   UNL     1      -0.562  -3.025  -6.113  0.00  0.00    -0.274 OA
ATOM     11  C   UNL     1      -4.073  -3.851  -6.524  0.00  0.00    +0.003 A 
ATOM     12  C   UNL     1      -4.981  -3.085  -7.220  0.00  0.00    +0.008 A 
ATOM     13  C   UNL     1      -5.392  -3.475  -8.482  0.00  0.00    +0.000 A 
ATOM     14  C   UNL     1      -4.888  -4.635  -9.043  0.00  0.00    +0.002 A 
ATOM     15  C   UNL     1      -3.977  -5.405  -8.349  0.00  0.00    +0.023 A 
ATOM     16  C   UNL     1      -3.558  -5.019  -7.078  0.00  0.00    +0.039 A 
ATOM     17  N   UNL     1      -2.661  -5.619  -6.192  0.00  0.00    -0.283 N 
ATOM     18  C   UNL     1      -2.532  -4.920  -5.048  0.00  0.00    +0.243 C 
ATOM     19  O   UNL     1      -1.826  -5.200  -4.103  0.00  0.00    -0.273 OA
ATOM     20  H   UNL     1      -4.757  -4.629  -3.873  0.00  0.00    +0.123 HD
ATOM     21  H   UNL     1      -2.185  -6.444  -6.378  0.00  0.00    +0.155 HD
ENDROOT
BRANCH   1  26
ATOM     22  C   UNL     1       1.763  -1.689  -3.810  0.00  0.00    +0.091 A 
ATOM     23  C   UNL     1       3.120  -2.120  -3.483  0.00  0.00    -0.021 A 
ATOM     24  C   UNL     1       3.209  -3.405  -3.093  0.00  0.00    -0.004 A 
ATOM     25  S   UNL     1       1.542  -4.009  -3.159  0.00  0.00    -0.077 S 
ATOM     26  C   UNL     1       0.752  -2.623  -3.678  0.00  0.00    +0.096 A 
ATOM     27  C   UNL     1       4.626  -3.797  -2.773  0.00  0.00    +0.043 C 
ATOM     28  C   UNL     1       5.493  -2.698  -3.427  0.00  0.00    +0.010 C 
ATOM     29  C   UNL     1       4.517  -1.504  -3.455  0.00  0.00    +0.037 C 
BRANCH  22  30
ATOM     30  C   UNL     1       1.483  -0.320  -4.253  0.00  0.00    +0.342 C 
ATOM     31  O   UNL     1       1.224   0.543  -3.436  0.00  0.00    -0.245 OA
BRANCH  30  32
ATOM     32  O   UNL     1       1.513  -0.018  -5.567  0.00  0.00    -0.461 OA
BRANCH  32  34
ATOM     33  C   UNL     1       1.311   1.485  -7.449  0.00  0.00    +0.048 C 
ATOM     34  C   UNL     1       1.231   1.335  -5.928  0.00  0.00    +0.229 C 
ENDBRANCH  32  34
ENDBRANCH  30  32
ENDBRANCH  22  30
ENDBRANCH   1  26
BRANCH   5  35
ATOM     35  C   UNL     1      -4.738  -2.477  -1.959  0.00  0.00    +0.028 C 
BRANCH  35  36
ATOM     36  C   UNL     1      -5.512  -3.600  -1.265  0.00  0.00    +0.097 C 
BRANCH  36  37
ATOM     37  C   UNL     1      -6.500  -3.004  -0.296  0.00  0.00    +0.211 C 
ATOM     38  O   UNL     1      -6.578  -1.800  -0.173  0.00  0.00    -0.276 OA
ATOM     39  N   UNL     1      -7.297  -3.809   0.434  0.00  0.00    -0.329 N 
ATOM     40  H   UNL     1      -7.235  -4.772   0.336  0.00  0.00    +0.145 HD
ATOM     41  H   UNL     1      -7.933  -3.426   1.058  0.00  0.00    +0.145 HD
ENDBRANCH  36  37
ENDBRANCH  35  36
ENDBRANCH   5  35
TORSDOF 7
