REMARK  Name = ZINC08526471
REMARK  7 active torsions:
REMARK  status: ('A' for Active; 'I' for Inactive)
REMARK    1  A    between atoms: C_1  and  C_2
REMARK    2  A    between atoms: C_2  and  C_4
REMARK    3  A    between atoms: C_2  and  S_20
REMARK    4  A    between atoms: N_9  and  C_10
REMARK    5  A    between atoms: S_20  and  C_21
REMARK    6  A    between atoms: C_24  and  C_27
REMARK    7  A    between atoms: N_25  and  N_26
REMARK                            x       y       z     vdW  Elec       q    Type
REMARK                         _______ _______ _______ _____ _____    ______ ____
ROOT
ATOM      1  C   UNL     1       7.186   3.861  -0.523  0.00  0.00    +0.234 C 
ATOM      2  O   UNL     1       7.868   2.894  -0.786  0.00  0.00    -0.274 OA
ATOM      3  N   UNL     1       7.721   5.097  -0.572  0.00  0.00    -0.239 N 
ATOM      4  C   UNL     1       9.015   5.258  -0.913  0.00  0.00    +0.306 C 
ATOM      5  O   UNL     1       9.699   4.289  -1.177  0.00  0.00    -0.252 OA
ATOM      6  N   UNL     1       9.550   6.494  -0.962  0.00  0.00    -0.294 N 
ATOM      7  H   UNL     1       7.175   5.870  -0.361  0.00  0.00    +0.159 HD
ATOM      8  H   UNL     1       9.004   7.268  -0.752  0.00  0.00    +0.151 HD
ENDROOT
BRANCH   6   9
ATOM      9  C   UNL     1      10.956   6.669  -1.333  0.00  0.00    +0.037 C 
ATOM     10  C   UNL     1      11.844   5.922  -0.336  0.00  0.00    +0.029 C 
ATOM     11  C   UNL     1      13.312   6.105  -0.723  0.00  0.00    -0.008 C 
ATOM     12  C   UNL     1      13.664   7.594  -0.702  0.00  0.00    +0.007 C 
ATOM     13  C   UNL     1      12.776   8.341  -1.699  0.00  0.00    -0.008 C 
ATOM     14  C   UNL     1      11.307   8.158  -1.312  0.00  0.00    +0.029 C 
ATOM     15  C   UNL     1      13.006   7.783  -3.105  0.00  0.00    +0.007 C 
ATOM     16  C   UNL     1      12.655   6.294  -3.126  0.00  0.00    -0.008 C 
ATOM     17  C   UNL     1      13.542   5.546  -2.129  0.00  0.00    +0.007 C 
ATOM     18  C   UNL     1      11.186   6.111  -2.739  0.00  0.00    +0.029 C 
ENDBRANCH   6   9
BRANCH   1  20
ATOM     19  C   UNL     1       5.599   3.760   1.380  0.00  0.00    +0.029 C 
ATOM     20  C   UNL     1       5.739   3.680  -0.141  0.00  0.00    +0.137 C 
BRANCH  20  21
ATOM     21  S   UNL     1       5.160   2.065  -0.717  0.00  0.00    -0.072 S 
BRANCH  21  22
ATOM     22  C   UNL     1       3.455   2.180  -0.287  0.00  0.00    +0.209 A 
ATOM     23  N   UNL     1       2.863   3.200   0.290  0.00  0.00    -0.121 NA
ATOM     24  N   UNL     1       1.613   2.945   0.451  0.00  0.00    -0.132 NA
ATOM     25  C   UNL     1       1.338   1.754  -0.001  0.00  0.00    +0.154 A 
ATOM     26  N   UNL     1       2.500   1.226  -0.491  0.00  0.00    -0.228 N 
BRANCH  26  27
ATOM     27  N   UNL     1       2.671  -0.002  -1.064  0.00  0.00    -0.295 N 
ATOM     28  H   UNL     1       2.527   0.042  -2.062  0.00  0.00    +0.163 HD
ATOM     29  H   UNL     1       3.581  -0.380  -0.846  0.00  0.00    +0.163 HD
ENDBRANCH  26  27
BRANCH  25  30
ATOM     30  C   UNL     1      -0.013   1.086   0.008  0.00  0.00    +0.059 C 
ATOM     31  C   UNL     1      -1.136   1.773   0.788  0.00  0.00    +0.012 C 
ATOM     32  C   UNL     1      -1.150   1.781  -0.743  0.00  0.00    +0.012 C 
ENDBRANCH  25  30
ENDBRANCH  21  22
ENDBRANCH  20  21
ENDBRANCH   1  20
TORSDOF 6
