REMARK  Name = ZINC39629690
REMARK  4 active torsions:
REMARK  status: ('A' for Active; 'I' for Inactive)
REMARK    1  A    between atoms: C_4  and  C_7
REMARK    2  A    between atoms: C_7  and  N_8
REMARK    3  A    between atoms: C_9  and  C_11
REMARK    4  A    between atoms: C_22  and  C_24
REMARK                            x       y       z     vdW  Elec       q    Type
REMARK                         _______ _______ _______ _____ _____    ______ ____
ROOT
ATOM      1  C   UNL     1       5.764  -1.853   2.984  0.00  0.00    +0.100 C 
ATOM      2  C   UNL     1       4.697  -2.662   3.754  0.00  0.00    +0.121 C 
ATOM      3  N   UNL     1       5.133  -4.073   3.627  0.00  0.00    -0.297 N 
ATOM      4  C   UNL     1       6.609  -4.016   3.761  0.00  0.00    +0.115 C 
ATOM      5  C   UNL     1       7.018  -2.743   2.994  0.00  0.00    -0.004 C 
ATOM      6  C   UNL     1       8.162  -2.037   3.715  0.00  0.00    -0.010 C 
ATOM      7  C   UNL     1       9.414  -2.916   3.660  0.00  0.00    -0.082 C 
ATOM      8  N   UNL     1       9.775  -3.171   2.261  0.00  0.00    +0.379 N 
ATOM      9  C   UNL     1       8.709  -3.933   1.600  0.00  0.00    -0.082 C 
ATOM     10  C   UNL     1       7.426  -3.096   1.567  0.00  0.00    -0.010 C 
ATOM     11  C   UNL     1       4.362  -5.161   3.435  0.00  0.00    +0.260 C 
ATOM     12  O   UNL     1       4.873  -6.258   3.351  0.00  0.00    -0.271 OA
ATOM     13  H   UNL     1       9.905  -2.292   1.782  0.00  0.00    -0.086 HD
ATOM     14  H   UNL     1      10.634  -3.700   2.227  0.00  0.00    -0.086 HD
ENDROOT
BRANCH  11  15
ATOM     15  C   UNL     1       2.867  -5.016   3.323  0.00  0.00    +0.296 C 
ATOM     16  C   UNL     1       2.293  -4.526   4.660  0.00  0.00    +0.283 C 
ATOM     17  O   UNL     1       0.873  -4.412   4.523  0.00  0.00    -0.484 OA
ATOM     18  C   UNL     1       0.229  -5.457   3.933  0.00  0.00    +0.162 A 
ATOM     19  C   UNL     1      -1.143  -5.587   4.088  0.00  0.00    +0.049 A 
ATOM     20  C   UNL     1      -1.810  -6.640   3.492  0.00  0.00    +0.004 A 
ATOM     21  C   UNL     1      -1.113  -7.566   2.740  0.00  0.00    +0.004 A 
ATOM     22  C   UNL     1       0.255  -7.443   2.582  0.00  0.00    +0.049 A 
ATOM     23  C   UNL     1       0.931  -6.389   3.179  0.00  0.00    +0.163 A 
ATOM     24  O   UNL     1       2.279  -6.286   3.020  0.00  0.00    -0.473 OA
ENDBRANCH  11  15
BRANCH   1  26
ATOM     25  N   UNL     1       5.740  -0.507   0.908  0.00  0.00    -0.311 N 
ATOM     26  C   UNL     1       5.311  -1.601   1.569  0.00  0.00    +0.218 C 
ATOM     27  O   UNL     1       4.559  -2.381   1.024  0.00  0.00    -0.275 OA
ATOM     28  H   UNL     1       6.341   0.118   1.344  0.00  0.00    +0.149 HD
BRANCH  25  29
ATOM     29  C   UNL     1       5.300  -0.262  -0.467  0.00  0.00    +0.139 C 
BRANCH  29  33
ATOM     30  C   UNL     1       7.052   3.360  -1.901  0.00  0.00    +0.000 A 
ATOM     31  C   UNL     1       7.709   2.157  -2.080  0.00  0.00    +0.000 A 
ATOM     32  C   UNL     1       7.142   0.985  -1.615  0.00  0.00    +0.005 A 
ATOM     33  C   UNL     1       5.918   1.016  -0.972  0.00  0.00    -0.030 A 
ATOM     34  C   UNL     1       5.262   2.220  -0.793  0.00  0.00    +0.005 A 
ATOM     35  C   UNL     1       5.829   3.392  -1.259  0.00  0.00    +0.000 A 
ENDBRANCH  29  33
ENDBRANCH  25  29
ENDBRANCH   1  26
TORSDOF 4
