REMARK  Name = ZINC02762783
REMARK  10 active torsions:
REMARK  status: ('A' for Active; 'I' for Inactive)
REMARK    1  A    between atoms: C_1  and  N_2
REMARK    2  A    between atoms: C_5  and  C_7
REMARK    3  A    between atoms: N_9  and  C_10
REMARK    4  A    between atoms: C_12  and  O_22
REMARK    5  A    between atoms: C_13  and  O_20
REMARK    6  A    between atoms: C_15  and  C_16
REMARK    7  A    between atoms: C_16  and  O_18
REMARK    8  A    between atoms: O_18  and  C_19
REMARK    9  A    between atoms: O_20  and  C_21
REMARK   10  A    between atoms: O_22  and  C_23
REMARK                            x       y       z     vdW  Elec       q    Type
REMARK                         _______ _______ _______ _____ _____    ______ ____
ROOT
ATOM      1  C   UNL     1      -2.485  -2.763   0.112  0.00  0.00    +0.051 A 
ATOM      2  C   UNL     1      -2.535  -4.149   0.100  0.00  0.00    +0.073 A 
ATOM      3  C   UNL     1      -1.368  -4.885  -0.025  0.00  0.00    +0.163 A 
ATOM      4  C   UNL     1      -0.136  -4.237  -0.140  0.00  0.00    +0.162 A 
ATOM      5  C   UNL     1      -0.074  -2.859  -0.134  0.00  0.00    +0.066 A 
ATOM      6  C   UNL     1      -1.248  -2.108  -0.003  0.00  0.00    +0.084 A 
ENDROOT
BRANCH   1   9
ATOM      7  C   UNL     1      -4.667  -2.484   1.004  0.00  0.00    +0.269 C 
ATOM      8  O   UNL     1      -4.518  -3.495   1.661  0.00  0.00    -0.268 OA
ATOM      9  N   UNL     1      -3.659  -2.023   0.237  0.00  0.00    -0.279 N 
ATOM     10  H   UNL     1      -3.762  -1.063  -0.289  0.00  0.00    +0.155 HD
BRANCH   7  15
ATOM     11  C   UNL     1      -8.124   0.883   0.100  0.00  0.00    +0.172 C 
ATOM     12  N   UNL     1      -7.459  -0.299   0.654  0.00  0.00    -0.273 N 
ATOM     13  C   UNL     1      -8.024  -1.168   1.520  0.00  0.00    +0.123 A 
ATOM     14  C   UNL     1      -7.098  -2.117   1.796  0.00  0.00    +0.063 A 
ATOM     15  C   UNL     1      -5.953  -1.760   1.044  0.00  0.00    +0.160 A 
ATOM     16  N   UNL     1      -6.252  -0.653   0.392  0.00  0.00    -0.166 NA
ATOM     17  I   UNL     1      -7.315  -3.768   3.068  0.00  0.00    -0.040 I 
ENDBRANCH   7  15
ENDBRANCH   1   9
BRANCH   6  18
ATOM     18  C   UNL     1      -1.187  -0.638   0.009  0.00  0.00    +0.341 C 
ATOM     19  O   UNL     1      -2.214   0.012   0.028  0.00  0.00    -0.245 OA
BRANCH  18  20
ATOM     20  O   UNL     1       0.007  -0.013  -0.001  0.00  0.00    -0.464 OA
ATOM     21  C   UNL     1      -0.009   1.438   0.012  0.00  0.00    +0.280 C 
ENDBRANCH  18  20
ENDBRANCH   6  18
BRANCH   4  22
ATOM     22  O   UNL     1       1.005  -4.967  -0.262  0.00  0.00    -0.491 OA
ATOM     23  C   UNL     1       2.231  -4.240  -0.374  0.00  0.00    +0.277 C 
ENDBRANCH   4  22
BRANCH   3  24
ATOM     24  O   UNL     1      -1.422  -6.241  -0.036  0.00  0.00    -0.491 OA
ATOM     25  C   UNL     1      -2.713  -6.840   0.085  0.00  0.00    +0.277 C 
ENDBRANCH   3  24
TORSDOF 6
