REMARK  Name = ZINC17274384
REMARK  12 active torsions:
REMARK  status: ('A' for Active; 'I' for Inactive)
REMARK    1  A    between atoms: C_1  and  C_2
REMARK    2  A    between atoms: C_2  and  C_4
REMARK    3  A    between atoms: C_2  and  S_16
REMARK    4  A    between atoms: N_6  and  C_7
REMARK    5  A    between atoms: S_16  and  C_17
REMARK    6  A    between atoms: C_20  and  C_26
REMARK    7  A    between atoms: N_21  and  C_22
REMARK    8  A    between atoms: C_22  and  C_23
REMARK    9  A    between atoms: C_23  and  C_24
REMARK   10  A    between atoms: C_23  and  C_25
REMARK   11  A    between atoms: C_26  and  C_27
REMARK   12  A    between atoms: C_27  and  C_28
REMARK                            x       y       z     vdW  Elec       q    Type
REMARK                         _______ _______ _______ _____ _____    ______ ____
ROOT
ATOM      1  S   UNL     1       0.856  -0.565  -1.489  0.00  0.00    -0.074 S 
ENDROOT
BRANCH   1   2
ATOM      2  C   UNL     1      -0.181  -0.020  -2.805  0.00  0.00    +0.192 A 
ATOM      3  N   UNL     1      -1.301   0.655  -2.688  0.00  0.00    -0.122 NA
ATOM      4  N   UNL     1      -1.796   0.885  -3.852  0.00  0.00    -0.134 NA
ATOM      5  C   UNL     1      -1.027   0.376  -4.773  0.00  0.00    +0.135 A 
ATOM      6  N   UNL     1       0.032  -0.213  -4.140  0.00  0.00    -0.306 N 
BRANCH   6   7
ATOM      7  C   UNL     1       1.159  -0.911  -4.764  0.00  0.00    +0.128 C 
BRANCH   7   8
ATOM      8  C   UNL     1       0.818  -2.394  -4.918  0.00  0.00    +0.003 C 
ATOM      9  C   UNL     1      -0.347  -2.551  -5.898  0.00  0.00    +0.009 C 
ATOM     10  C   UNL     1       2.039  -3.145  -5.454  0.00  0.00    +0.009 C 
ENDBRANCH   7   8
ENDBRANCH   6   7
BRANCH   5  11
ATOM     11  C   UNL     1      -1.260   0.432  -6.261  0.00  0.00    +0.085 C 
BRANCH  11  12
ATOM     12  C   UNL     1      -0.600   1.688  -6.833  0.00  0.00    +0.103 C 
BRANCH  12  13
ATOM     13  C   UNL     1      -0.832   1.744  -8.321  0.00  0.00    +0.211 C 
ATOM     14  O   UNL     1      -1.463   0.866  -8.870  0.00  0.00    -0.276 OA
ATOM     15  N   UNL     1      -0.339   2.771  -9.042  0.00  0.00    -0.329 N 
ATOM     16  H   UNL     1       0.166   3.473  -8.603  0.00  0.00    +0.145 HD
ATOM     17  H   UNL     1      -0.488   2.807 -10.000  0.00  0.00    +0.145 HD
ENDBRANCH  12  13
ENDBRANCH  11  12
ENDBRANCH   5  11
ENDBRANCH   1   2
BRANCH   1  19
ATOM     18  C   UNL     1      -0.008   1.543   0.025  0.00  0.00    +0.029 C 
ATOM     19  C   UNL     1       0.007   0.013   0.006  0.00  0.00    +0.137 C 
BRANCH  19  20
ATOM     20  C   UNL     1       0.733  -0.497   1.225  0.00  0.00    +0.230 C 
ATOM     21  O   UNL     1       1.912  -0.773   1.157  0.00  0.00    -0.274 OA
ATOM     22  N   UNL     1       0.071  -0.647   2.389  0.00  0.00    -0.283 N 
ATOM     23  H   UNL     1      -0.854  -0.366   2.461  0.00  0.00    +0.155 HD
BRANCH  22  24
ATOM     24  C   UNL     1       0.721  -1.209   3.496  0.00  0.00    +0.053 A 
ATOM     25  C   UNL     1       2.071  -0.968   3.706  0.00  0.00    +0.046 A 
ATOM     26  C   UNL     1       2.710  -1.524   4.799  0.00  0.00    +0.061 A 
ATOM     27  C   UNL     1       2.003  -2.321   5.684  0.00  0.00    +0.061 A 
ATOM     28  C   UNL     1       0.656  -2.563   5.476  0.00  0.00    +0.043 A 
ATOM     29  C   UNL     1       0.012  -2.005   4.388  0.00  0.00    +0.064 A 
ATOM     30 CL   UNL     1      -1.679  -2.303   4.133  0.00  0.00    -0.082 Cl
ATOM     31 CL   UNL     1       2.807  -3.018   7.055  0.00  0.00    -0.082 Cl
ATOM     32 CL   UNL     1       4.399  -1.223   5.062  0.00  0.00    -0.082 Cl
ENDBRANCH  22  24
ENDBRANCH  19  20
ENDBRANCH   1  19
TORSDOF 9
