REMARK  Name = ZINC49121808
REMARK  6 active torsions:
REMARK  status: ('A' for Active; 'I' for Inactive)
REMARK    1  A    between atoms: C_1  and  C_2
REMARK    2  A    between atoms: C_2  and  C_3
REMARK    3  A    between atoms: C_9  and  N_11
REMARK    4  A    between atoms: C_12  and  C_22
REMARK    5  A    between atoms: C_13  and  C_21
REMARK    6  A    between atoms: C_19  and  N_20
REMARK                            x       y       z     vdW  Elec       q    Type
REMARK                         _______ _______ _______ _____ _____    ______ ____
ROOT
ATOM      1  N   UNL     1      -0.673  -2.638   1.000  0.00  0.00    -0.326 N 
ATOM      2  C   UNL     1       0.400  -3.483   0.879  0.00  0.00    +0.021 A 
ATOM      3  C   UNL     1       0.847  -3.829   2.097  0.00  0.00    -0.017 A 
ATOM      4  C   UNL     1      -0.008  -3.151   3.069  0.00  0.00    +0.062 A 
ATOM      5  C   UNL     1      -0.943  -2.412   2.321  0.00  0.00    +0.146 A 
ATOM      6  N   UNL     1      -1.850  -1.686   2.974  0.00  0.00    -0.218 NA
ATOM      7  C   UNL     1      -1.869  -1.660   4.289  0.00  0.00    +0.225 A 
ATOM      8  N   UNL     1      -1.009  -2.336   5.029  0.00  0.00    -0.220 NA
ATOM      9  C   UNL     1      -0.071  -3.095   4.470  0.00  0.00    +0.129 A 
ATOM     10  C   UNL     1       2.007  -4.741   2.403  0.00  0.00    +0.046 C 
ATOM     11  C   UNL     1       0.989  -3.954  -0.426  0.00  0.00    +0.064 C 
ENDROOT
BRANCH   1  17
ATOM     12  C   UNL     1      -1.328  -0.532  -0.056  0.00  0.00    +0.012 C 
ATOM     13  C   UNL     1      -1.930  -0.042   1.263  0.00  0.00    +0.005 C 
ATOM     14  C   UNL     1      -3.396  -0.473   1.345  0.00  0.00    +0.000 C 
ATOM     15  C   UNL     1      -3.484  -1.999   1.280  0.00  0.00    +0.002 C 
ATOM     16  C   UNL     1      -2.881  -2.488  -0.039  0.00  0.00    +0.025 C 
ATOM     17  C   UNL     1      -1.416  -2.058  -0.121  0.00  0.00    +0.092 C 
BRANCH  12  19
ATOM     18  C   UNL     1       0.218   1.426  -0.198  0.00  0.00    +0.004 C 
ATOM     19  C   UNL     1       0.138  -0.101  -0.138  0.00  0.00    +0.002 C 
ENDBRANCH  12  19
ENDBRANCH   1  17
BRANCH   9  20
ATOM     20  N   UNL     1       0.828  -3.800   5.249  0.00  0.00    -0.343 N 
ATOM     21  H   UNL     1       1.514  -4.342   4.828  0.00  0.00    +0.144 HD
ATOM     22  H   UNL     1       0.774  -3.752   6.216  0.00  0.00    +0.144 HD
ENDBRANCH   9  20
TORSDOF 3
