REMARK  Name = ZINC51123789
REMARK  6 active torsions:
REMARK  status: ('A' for Active; 'I' for Inactive)
REMARK    1  A    between atoms: C_1  and  C_2
REMARK    2  A    between atoms: C_2  and  C_3
REMARK    3  A    between atoms: C_9  and  N_11
REMARK    4  A    between atoms: C_12  and  C_14
REMARK    5  A    between atoms: C_18  and  N_20
REMARK    6  A    between atoms: N_20  and  N_21
REMARK                            x       y       z     vdW  Elec       q    Type
REMARK                         _______ _______ _______ _____ _____    ______ ____
ROOT
ATOM      1  N   UNL     1      -0.776  -2.430  -1.376  0.00  0.00    -0.307 N 
ATOM      2  C   UNL     1      -1.139  -3.654  -0.946  0.00  0.00    +0.264 C 
ATOM      3  O   UNL     1      -0.299  -4.422  -0.518  0.00  0.00    -0.268 OA
ATOM      4  H   UNL     1      -1.447  -1.817  -1.717  0.00  0.00    +0.149 HD
ENDROOT
BRANCH   2   5
ATOM      5  C   UNL     1      -2.561  -4.065  -0.994  0.00  0.00    +0.146 A 
ATOM      6  C   UNL     1      -2.929  -5.330  -0.542  0.00  0.00    +0.072 A 
ATOM      7  C   UNL     1      -4.266  -5.705  -0.591  0.00  0.00    +0.026 A 
ATOM      8  C   UNL     1      -5.187  -4.802  -1.090  0.00  0.00    +0.046 A 
ATOM      9  C   UNL     1      -4.751  -3.551  -1.526  0.00  0.00    +0.133 A 
ATOM     10  N   UNL     1      -3.474  -3.221  -1.462  0.00  0.00    -0.225 NA
ATOM     11 CL   UNL     1      -1.732  -6.426   0.074  0.00  0.00    -0.081 Cl
BRANCH   9  12
ATOM     12  N   UNL     1      -5.672  -2.639  -2.029  0.00  0.00    -0.268 N 
ATOM     13  H   UNL     1      -6.612  -2.875  -2.075  0.00  0.00    +0.167 HD
BRANCH  12  14
ATOM     14  N   UNL     1      -5.253  -1.412  -2.458  0.00  0.00    -0.255 NA
ATOM     15  H   UNL     1      -4.540  -1.500  -3.166  0.00  0.00    +0.140 HD
ATOM     16  H   UNL     1      -6.030  -0.862  -2.794  0.00  0.00    +0.140 HD
ENDBRANCH  12  14
ENDBRANCH   9  12
ENDBRANCH   2   5
BRANCH   1  22
ATOM     17  C   UNL     1       0.718  -0.497  -1.257  0.00  0.00    +0.009 C 
ATOM     18  C   UNL     1       2.187  -0.073  -1.207  0.00  0.00    +0.005 C 
ATOM     19  C   UNL     1       2.904  -0.566  -2.466  0.00  0.00    +0.000 C 
ATOM     20  C   UNL     1       2.816  -2.092  -2.538  0.00  0.00    +0.002 C 
ATOM     21  C   UNL     1       1.347  -2.517  -2.587  0.00  0.00    +0.022 C 
ATOM     22  C   UNL     1       0.630  -2.023  -1.329  0.00  0.00    +0.076 C 
BRANCH  17  24
ATOM     23  C   UNL     1      -0.019   1.526   0.010  0.00  0.00    +0.004 C 
ATOM     24  C   UNL     1       0.002  -0.004   0.002  0.00  0.00    +0.002 C 
ENDBRANCH  17  24
ENDBRANCH   1  22
TORSDOF 5
