REMARK  Name = ZINC35465843
REMARK  16 active torsions:
REMARK  status: ('A' for Active; 'I' for Inactive)
REMARK    1  A    between atoms: C_1  and  C_2
REMARK    2  A    between atoms: C_2  and  C_3
REMARK    3  A    between atoms: C_2  and  C_4
REMARK    4  A    between atoms: C_2  and  O_39
REMARK    5  A    between atoms: C_4  and  C_6
REMARK    6  A    between atoms: C_4  and  O_38
REMARK    7  A    between atoms: C_6  and  C_8
REMARK    8  A    between atoms: C_6  and  O_21
REMARK    9  A    between atoms: C_18  and  O_19
REMARK   10  A    between atoms: O_19  and  C_20
REMARK   11  A    between atoms: O_21  and  C_22
REMARK   12  A    between atoms: C_24  and  O_37
REMARK   13  A    between atoms: C_26  and  O_36
REMARK   14  A    between atoms: C_28  and  O_35
REMARK   15  A    between atoms: C_30  and  C_33
REMARK   16  A    between atoms: C_33  and  O_34
REMARK                            x       y       z     vdW  Elec       q    Type
REMARK                         _______ _______ _______ _____ _____    ______ ____
ROOT
ATOM      1  C   UNL     1      -1.325  -1.950  -0.036  0.00  0.00    +0.186 C 
ENDROOT
BRANCH   1   2
ATOM      2  C   UNL     1      -2.720  -2.485  -0.231  0.00  0.00    +0.026 A 
ATOM      3  C   UNL     1      -3.341  -3.147   0.789  0.00  0.00    +0.021 A 
ATOM      4  C   UNL     1      -4.636  -3.644   0.609  0.00  0.00    +0.018 A 
ATOM      5  C   UNL     1      -5.327  -4.358   1.685  0.00  0.00    +0.018 A 
ATOM      6  C   UNL     1      -6.584  -4.816   1.448  0.00  0.00    +0.092 A 
ATOM      7  C   UNL     1      -7.185  -4.597   0.191  0.00  0.00    +0.337 A 
ATOM      8  O   UNL     1      -8.312  -5.013  -0.008  0.00  0.00    -0.245 OA
ATOM      9  O   UNL     1      -6.547  -3.942  -0.791  0.00  0.00    -0.422 OA
ATOM     10  C   UNL     1      -5.296  -3.461  -0.621  0.00  0.00    +0.143 A 
ATOM     11  C   UNL     1      -4.651  -2.787  -1.646  0.00  0.00    +0.093 A 
ATOM     12  C   UNL     1      -3.371  -2.296  -1.448  0.00  0.00    +0.129 A 
BRANCH  12  13
ATOM     13  O   UNL     1      -2.742  -1.630  -2.451  0.00  0.00    -0.495 OA
ATOM     14  C   UNL     1      -3.463  -1.469  -3.674  0.00  0.00    +0.277 C 
ENDBRANCH  12  13
ENDBRANCH   1   2
BRANCH   1  15
ATOM     15  C   UNL     1      -1.393  -0.593   0.667  0.00  0.00    +0.179 C 
BRANCH  15  17
ATOM     16  C   UNL     1      -2.091   1.794   0.431  0.00  0.00    +0.044 C 
ATOM     17  C   UNL     1      -2.042   0.432  -0.265  0.00  0.00    +0.089 C 
ATOM     18  C   UNL     1      -1.220   0.546  -1.550  0.00  0.00    +0.044 C 
BRANCH  17  19
ATOM     19  O   UNL     1      -3.370   0.012  -0.584  0.00  0.00    -0.386 OA
ATOM     20  H   UNL     1      -3.949  -0.081   0.186  0.00  0.00    +0.210 HD
ENDBRANCH  17  19
ENDBRANCH  15  17
BRANCH  15  21
ATOM     21  O   UNL     1      -2.171  -0.713   1.860  0.00  0.00    -0.386 OA
ATOM     22  H   UNL     1      -3.081  -1.001   1.708  0.00  0.00    +0.210 HD
ENDBRANCH  15  21
ENDBRANCH   1  15
BRANCH   1  23
ATOM     23  O   UNL     1      -0.572  -2.864   0.763  0.00  0.00    -0.338 OA
BRANCH  23  24
ATOM     24  C   UNL     1       0.840  -2.795   0.550  0.00  0.00    +0.282 C 
ATOM     25  C   UNL     1       1.553  -3.696   1.562  0.00  0.00    +0.201 C 
ATOM     26  C   UNL     1       3.060  -3.664   1.289  0.00  0.00    +0.179 C 
ATOM     27  C   UNL     1       3.315  -4.099  -0.157  0.00  0.00    +0.177 C 
ATOM     28  C   UNL     1       2.534  -3.183  -1.103  0.00  0.00    +0.178 C 
ATOM     29  O   UNL     1       1.144  -3.236  -0.775  0.00  0.00    -0.341 OA
BRANCH  27  30
ATOM     30  O   UNL     1       4.712  -4.005  -0.445  0.00  0.00    -0.386 OA
ATOM     31  H   UNL     1       5.268  -4.558   0.121  0.00  0.00    +0.210 HD
ENDBRANCH  27  30
BRANCH  26  32
ATOM     32  O   UNL     1       3.727  -4.557   2.184  0.00  0.00    -0.386 OA
ATOM     33  H   UNL     1       3.602  -4.343   3.118  0.00  0.00    +0.210 HD
ENDBRANCH  26  32
BRANCH  25  34
ATOM     34  O   UNL     1       1.296  -3.223   2.886  0.00  0.00    -0.384 OA
ATOM     35  H   UNL     1       0.359  -3.212   3.125  0.00  0.00    +0.210 HD
ENDBRANCH  25  34
BRANCH  28  36
ATOM     36  C   UNL     1       2.735  -3.648  -2.546  0.00  0.00    +0.190 C 
BRANCH  36  37
ATOM     37  O   UNL     1       2.103  -2.727  -3.437  0.00  0.00    -0.392 OA
ATOM     38  H   UNL     1       2.191  -2.959  -4.371  0.00  0.00    +0.210 HD
ENDBRANCH  36  37
ENDBRANCH  28  36
ENDBRANCH  23  24
ENDBRANCH   1  23
TORSDOF 13
