REMARK  Name = ZINC66938980
REMARK  9 active torsions:
REMARK  status: ('A' for Active; 'I' for Inactive)
REMARK    1  A    between atoms: C_1  and  C_2
REMARK    2  A    between atoms: C_4  and  C_26
REMARK    3  A    between atoms: C_6  and  O_8
REMARK    4  A    between atoms: O_8  and  C_9
REMARK    5  A    between atoms: C_9  and  C_10
REMARK    6  A    between atoms: N_12  and  N_13
REMARK    7  A    between atoms: N_13  and  C_14
REMARK    8  A    between atoms: C_14  and  C_16
REMARK    9  A    between atoms: C_14  and  C_23
REMARK                            x       y       z     vdW  Elec       q    Type
REMARK                         _______ _______ _______ _____ _____    ______ ____
ROOT
ATOM      1  N   UNL     1       0.351  -2.829   6.907  0.00  0.00    -0.224 NA
ATOM      2  H   UNL     1      -0.481  -3.267   6.541  0.00  0.00    +0.145 HD
ENDROOT
BRANCH   1   5
ATOM      3  C   UNL     1       0.743  -1.775   4.843  0.00  0.00    +0.264 C 
ATOM      4  O   UNL     1       0.518  -2.821   4.272  0.00  0.00    -0.271 OA
ATOM      5  N   UNL     1       0.673  -1.713   6.188  0.00  0.00    -0.247 N 
ATOM      6  H   UNL     1       0.853  -0.876   6.644  0.00  0.00    +0.169 HD
BRANCH   3   7
ATOM      7  C   UNL     1       1.098  -0.544   4.049  0.00  0.00    +0.325 C 
BRANCH   7   8
ATOM      8  O   UNL     1       1.107  -0.862   2.656  0.00  0.00    -0.483 OA
BRANCH   8  14
ATOM      9  C   UNL     1       2.313   3.812   1.933  0.00  0.00    +0.044 C 
ATOM     10  C   UNL     1       2.004   2.435   1.405  0.00  0.00    -0.047 A 
ATOM     11  C   UNL     1       2.030   2.195   0.044  0.00  0.00    +0.007 A 
ATOM     12  C   UNL     1       1.747   0.932  -0.444  0.00  0.00    -0.047 A 
ATOM     13  C   UNL     1       1.438  -0.093   0.429  0.00  0.00    +0.049 A 
ATOM     14  C   UNL     1       1.411   0.145   1.796  0.00  0.00    +0.122 A 
ATOM     15  C   UNL     1       1.701   1.411   2.282  0.00  0.00    +0.049 A 
ATOM     16  C   UNL     1       1.776   0.674  -1.928  0.00  0.00    +0.044 C 
ENDBRANCH   8  14
ENDBRANCH   7   8
ENDBRANCH   3   7
ENDBRANCH   1   5
BRANCH   1  17
ATOM     17  C   UNL     1       0.195  -2.509   8.332  0.00  0.00    +0.188 C 
BRANCH  17  18
ATOM     18  C   UNL     1      -1.039  -1.666   8.526  0.00  0.00    -0.020 A 
ATOM     19  C   UNL     1      -2.084  -2.138   9.297  0.00  0.00    +0.008 A 
ATOM     20  C   UNL     1      -3.216  -1.365   9.476  0.00  0.00    +0.038 A 
ATOM     21  C   UNL     1      -3.303  -0.118   8.881  0.00  0.00    +0.123 A 
ATOM     22  C   UNL     1      -2.255   0.354   8.109  0.00  0.00    +0.038 A 
ATOM     23  C   UNL     1      -1.122  -0.418   7.936  0.00  0.00    +0.008 A 
ATOM     24  F   UNL     1      -4.409   0.638   9.055  0.00  0.00    -0.205 F 
ENDBRANCH  17  18
BRANCH  17  25
ATOM     25  C   UNL     1       1.404  -1.748   8.812  0.00  0.00    +0.234 C 
ATOM     26  O   UNL     1       2.307  -1.496   8.042  0.00  0.00    -0.274 OA
ATOM     27  N   UNL     1       1.482  -1.346  10.096  0.00  0.00    -0.328 N 
ATOM     28  H   UNL     1       0.760  -1.548  10.712  0.00  0.00    +0.145 HD
ATOM     29  H   UNL     1       2.260  -0.856  10.405  0.00  0.00    +0.145 HD
ENDBRANCH  17  25
ENDBRANCH   1  17
TORSDOF 7
