REMARK  Name = ZINC40796816
REMARK  6 active torsions:
REMARK  status: ('A' for Active; 'I' for Inactive)
REMARK    1  A    between atoms: C_1  and  C_2
REMARK    2  A    between atoms: C_2  and  N_3
REMARK    3  A    between atoms: C_4  and  C_8
REMARK    4  A    between atoms: C_12  and  C_14
REMARK    5  A    between atoms: N_16  and  C_17
REMARK    6  A    between atoms: C_18  and  C_26
REMARK                            x       y       z     vdW  Elec       q    Type
REMARK                         _______ _______ _______ _____ _____    ______ ____
ROOT
ATOM      1  C   UNL     1      -3.221  -0.407   5.924  0.00  0.00    +0.249 C 
ATOM      2  O   UNL     1      -4.374  -0.713   5.686  0.00  0.00    -0.270 OA
ATOM      3  N   UNL     1      -2.836  -0.167   7.193  0.00  0.00    -0.275 N 
ATOM      4  H   UNL     1      -1.917   0.078   7.383  0.00  0.00    +0.156 HD
ENDROOT
BRANCH   3   5
ATOM      5  C   UNL     1      -3.754  -0.268   8.228  0.00  0.00    +0.090 A 
ATOM      6  C   UNL     1      -3.541  -0.054   9.580  0.00  0.00    +0.084 A 
ATOM      7  C   UNL     1      -4.677  -0.227  10.467  0.00  0.00    -0.018 A 
ATOM      8  C   UNL     1      -5.819  -0.584   9.840  0.00  0.00    -0.004 A 
ATOM      9  S   UNL     1      -5.381  -0.672   8.128  0.00  0.00    -0.077 S 
ATOM     10  C   UNL     1      -7.152  -0.838  10.473  0.00  0.00    +0.043 C 
ATOM     11  C   UNL     1      -6.943  -1.002  11.986  0.00  0.00    +0.005 C 
ATOM     12  C   UNL     1      -6.061   0.143  12.491  0.00  0.00    +0.005 C 
ATOM     13  C   UNL     1      -4.631  -0.034  11.976  0.00  0.00    +0.037 C 
BRANCH   6  14
ATOM     14  C   UNL     1      -2.253   0.322  10.081  0.00  0.00    +0.102 C 
ATOM     15  N   UNL     1      -1.232   0.621  10.479  0.00  0.00    -0.191 NA
ENDBRANCH   6  14
ENDBRANCH   3   5
BRANCH   1  20
ATOM     16  C   UNL     1      -1.712  -0.443   2.476  0.00  0.00    +0.021 A 
ATOM     17  C   UNL     1      -0.391  -0.091   2.761  0.00  0.00    +0.011 A 
ATOM     18  C   UNL     1      -0.004   0.154   4.064  0.00  0.00    +0.001 A 
ATOM     19  C   UNL     1      -0.919   0.053   5.093  0.00  0.00    +0.013 A 
ATOM     20  C   UNL     1      -2.243  -0.298   4.822  0.00  0.00    +0.038 A 
ATOM     21  C   UNL     1      -2.641  -0.541   3.508  0.00  0.00    +0.024 A 
BRANCH  16  23
ATOM     22  N   UNL     1      -3.392  -0.688   0.596  0.00  0.00    -0.225 N 
ATOM     23  C   UNL     1      -2.125  -0.705   1.079  0.00  0.00    +0.182 A 
ATOM     24  N   UNL     1      -1.331  -0.998   0.070  0.00  0.00    -0.108 NA
ATOM     25  N   UNL     1      -2.013  -1.165  -1.005  0.00  0.00    -0.023 NA
ATOM     26  N   UNL     1      -3.270  -1.000  -0.769  0.00  0.00    -0.044 NA
BRANCH  22  28
ATOM     27  C   UNL     1      -5.239  -1.729   1.815  0.00  0.00    +0.029 C 
ATOM     28  C   UNL     1      -4.623  -0.411   1.339  0.00  0.00    +0.144 C 
ENDBRANCH  22  28
ENDBRANCH  16  23
ENDBRANCH   1  20
TORSDOF 5
