REMARK  Name = ZINC15723780
REMARK  15 active torsions:
REMARK  status: ('A' for Active; 'I' for Inactive)
REMARK    1  A    between atoms: C_1  and  C_2
REMARK    2  A    between atoms: C_2  and  O_3
REMARK    3  A    between atoms: O_3  and  C_4
REMARK    4  A    between atoms: C_7  and  C_13
REMARK    5  A    between atoms: C_9  and  O_10
REMARK    6  A    between atoms: O_10  and  C_11
REMARK    7  A    between atoms: C_11  and  C_12
REMARK    8  A    between atoms: C_13  and  C_14
REMARK    9  A    between atoms: C_14  and  N_15
REMARK   10  A    between atoms: C_16  and  C_18
REMARK   11  A    between atoms: C_24  and  C_29
REMARK   12  A    between atoms: C_24  and  C_30
REMARK   13  A    between atoms: N_25  and  C_28
REMARK   14  A    between atoms: N_32  and  C_33
REMARK   15  A    between atoms: C_33  and  C_34
REMARK                            x       y       z     vdW  Elec       q    Type
REMARK                         _______ _______ _______ _____ _____    ______ ____
ROOT
ATOM      1  C   UNL     1       0.127  -7.709  -6.047  0.00  0.00    +0.148 A 
ATOM      2  C   UNL     1      -0.137  -6.377  -6.439  0.00  0.00    +0.067 A 
ATOM      3  C   UNL     1       0.060  -5.635  -5.326  0.00  0.00    +0.124 A 
ATOM      4  N   UNL     1       0.429  -6.497  -4.314  0.00  0.00    -0.256 N 
ATOM      5  N   UNL     1       0.457  -7.690  -4.766  0.00  0.00    -0.166 NA
ATOM      6  C   UNL     1       0.719  -5.999  -2.964  0.00  0.00    +0.179 C 
ATOM      7  C   UNL     1       1.277  -4.580  -3.061  0.00  0.00    +0.130 C 
ATOM      8  N   UNL     1       0.486  -3.722  -3.935  0.00  0.00    -0.284 N 
ATOM      9  C   UNL     1      -0.056  -4.186  -5.088  0.00  0.00    +0.265 C 
ATOM     10  O   UNL     1      -0.606  -3.447  -5.881  0.00  0.00    -0.268 OA
ATOM     11  C   UNL     1       0.272  -2.323  -3.558  0.00  0.00    +0.133 C 
ATOM     12  C   UNL     1       2.707  -4.649  -3.599  0.00  0.00    +0.044 C 
ENDROOT
BRANCH   1  14
ATOM     13  N   UNL     1       0.330 -10.123  -6.403  0.00  0.00    -0.310 N 
ATOM     14  C   UNL     1       0.050  -8.906  -6.911  0.00  0.00    +0.264 C 
ATOM     15  O   UNL     1      -0.267  -8.792  -8.079  0.00  0.00    -0.268 OA
ATOM     16  H   UNL     1       0.582 -10.213  -5.471  0.00  0.00    +0.149 HD
BRANCH  13  17
ATOM     17  C   UNL     1       0.253 -11.309  -7.260  0.00  0.00    +0.109 C 
BRANCH  17  18
ATOM     18  C   UNL     1       0.616 -12.551  -6.444  0.00  0.00    +0.054 C 
BRANCH  18  22
ATOM     19  C   UNL     1       0.386 -16.014  -8.943  0.00  0.00    +0.162 A 
ATOM     20  C   UNL     1      -0.729 -15.590  -8.237  0.00  0.00    +0.050 A 
ATOM     21  C   UNL     1      -0.650 -14.474  -7.426  0.00  0.00    +0.007 A 
ATOM     22  C   UNL     1       0.537 -13.771  -7.325  0.00  0.00    -0.042 A 
ATOM     23  C   UNL     1       1.652 -14.189  -8.026  0.00  0.00    +0.053 A 
ATOM     24  C   UNL     1       1.581 -15.310  -8.837  0.00  0.00    +0.162 A 
BRANCH  19  25
ATOM     25  O   UNL     1       0.311 -17.116  -9.736  0.00  0.00    -0.489 OA
BRANCH  25  27
ATOM     26  C   UNL     1      -0.839 -18.994 -10.732  0.00  0.00    +0.048 C 
ATOM     27  C   UNL     1      -0.948 -17.788  -9.796  0.00  0.00    +0.226 C 
ENDBRANCH  25  27
ENDBRANCH  19  25
BRANCH  24  28
ATOM     28  O   UNL     1       2.678 -15.723  -9.528  0.00  0.00    -0.489 OA
BRANCH  28  29
ATOM     29  C   UNL     1       3.871 -14.951  -9.371  0.00  0.00    +0.226 C 
ATOM     30  C   UNL     1       4.989 -15.563 -10.218  0.00  0.00    +0.048 C 
ENDBRANCH  28  29
ENDBRANCH  24  28
ENDBRANCH  18  22
ENDBRANCH  17  18
ENDBRANCH  13  17
ENDBRANCH   1  14
BRANCH   7  31
ATOM     31  C   UNL     1       1.306  -3.974  -1.681  0.00  0.00    +0.239 C 
ATOM     32  O   UNL     1       2.354  -3.891  -1.077  0.00  0.00    -0.273 OA
ATOM     33  N   UNL     1       0.167  -3.524  -1.119  0.00  0.00    -0.309 N 
ATOM     34  H   UNL     1      -0.658  -3.522  -1.629  0.00  0.00    +0.149 HD
BRANCH  33  35
ATOM     35  C   UNL     1       0.174  -3.037   0.263  0.00  0.00    +0.139 C 
BRANCH  35  36
ATOM     36  C   UNL     1      -1.214  -2.595   0.647  0.00  0.00    -0.030 A 
ATOM     37  C   UNL     1      -2.095  -3.497   1.214  0.00  0.00    +0.005 A 
ATOM     38  C   UNL     1      -3.369  -3.091   1.567  0.00  0.00    +0.000 A 
ATOM     39  C   UNL     1      -3.761  -1.783   1.353  0.00  0.00    +0.000 A 
ATOM     40  C   UNL     1      -2.880  -0.881   0.787  0.00  0.00    +0.000 A 
ATOM     41  C   UNL     1      -1.607  -1.287   0.434  0.00  0.00    +0.005 A 
ENDBRANCH  35  36
ENDBRANCH  33  35
ENDBRANCH   7  31
TORSDOF 11
