REMARK  Name = ZINC41653186
REMARK  12 active torsions:
REMARK  status: ('A' for Active; 'I' for Inactive)
REMARK    1  A    between atoms: C_1  and  C_2
REMARK    2  A    between atoms: C_4  and  O_28
REMARK    3  A    between atoms: C_5  and  O_26
REMARK    4  A    between atoms: C_7  and  N_8
REMARK    5  A    between atoms: C_9  and  C_11
REMARK    6  A    between atoms: N_13  and  C_14
REMARK    7  A    between atoms: C_14  and  C_15
REMARK    8  A    between atoms: C_15  and  C_17
REMARK    9  A    between atoms: C_15  and  N_18
REMARK   10  A    between atoms: C_22  and  C_25
REMARK   11  A    between atoms: O_26  and  C_27
REMARK   12  A    between atoms: O_28  and  C_29
REMARK                            x       y       z     vdW  Elec       q    Type
REMARK                         _______ _______ _______ _____ _____    ______ ____
ROOT
ATOM      1  N   UNL     1      -0.026   0.281   2.463  0.00  0.00    -0.277 N 
ATOM      2  C   UNL     1      -0.145  -0.448   3.590  0.00  0.00    +0.303 C 
ATOM      3  O   UNL     1      -0.236  -1.657   3.525  0.00  0.00    -0.265 OA
ATOM      4  H   UNL     1       0.118   1.238   2.517  0.00  0.00    +0.155 HD
ENDROOT
BRANCH   1  11
ATOM      5  C   UNL     1      -1.194   1.730   0.316  0.00  0.00    +0.046 C 
ATOM      6  C   UNL     1      -0.673   0.328   0.138  0.00  0.00    -0.026 A 
ATOM      7  C   UNL     1      -0.751  -0.286  -1.098  0.00  0.00    +0.054 A 
ATOM      8  C   UNL     1      -0.272  -1.575  -1.264  0.00  0.00    +0.162 A 
ATOM      9  C   UNL     1       0.289  -2.254  -0.185  0.00  0.00    +0.163 A 
ATOM     10  C   UNL     1       0.367  -1.639   1.052  0.00  0.00    +0.073 A 
ATOM     11  C   UNL     1      -0.109  -0.344   1.214  0.00  0.00    +0.040 A 
BRANCH   9  12
ATOM     12  O   UNL     1       0.759  -3.520  -0.347  0.00  0.00    -0.491 OA
ATOM     13  C   UNL     1       1.321  -4.156   0.802  0.00  0.00    +0.277 C 
ENDBRANCH   9  12
BRANCH   8  14
ATOM     14  O   UNL     1      -0.349  -2.179  -2.481  0.00  0.00    -0.491 OA
ATOM     15  C   UNL     1      -0.937  -1.424  -3.543  0.00  0.00    +0.277 C 
ENDBRANCH   8  14
ENDBRANCH   1  11
BRANCH   2  16
ATOM     16  C   UNL     1      -0.164   0.231   4.920  0.00  0.00    +0.299 C 
ATOM     17  O   UNL     1      -0.073   1.440   4.985  0.00  0.00    -0.265 OA
ATOM     18  N   UNL     1      -0.283  -0.498   6.048  0.00  0.00    -0.309 N 
ATOM     19  H   UNL     1      -0.356  -1.463   5.995  0.00  0.00    +0.149 HD
BRANCH  18  20
ATOM     20  C   UNL     1      -0.302   0.169   7.352  0.00  0.00    +0.089 C 
BRANCH  20  21
ATOM     21  C   UNL     1      -0.309  -0.883   8.462  0.00  0.00    -0.054 C 
ATOM     22  C   UNL     1      -0.222  -0.190   9.823  0.00  0.00    -0.012 C 
BRANCH  21  23
ATOM     23  N   UNL     1       0.843  -1.780   8.295  0.00  0.00    +0.383 N 
ATOM     24  C   UNL     1       0.751  -2.878   9.265  0.00  0.00    -0.078 C 
ATOM     25  C   UNL     1       1.905  -3.858   9.041  0.00  0.00    -0.018 C 
ATOM     26  C   UNL     1       3.235  -3.122   9.225  0.00  0.00    -0.001 C 
ATOM     27  C   UNL     1       3.288  -1.935   8.259  0.00  0.00    -0.031 C 
ATOM     28  C   UNL     1       2.083  -1.026   8.512  0.00  0.00    -0.075 C 
ATOM     29  C   UNL     1       4.580  -1.147   8.488  0.00  0.00    +0.005 C 
ATOM     30  H   UNL     1       0.840  -2.159   7.360  0.00  0.00    -0.081 HD
ENDBRANCH  21  23
ENDBRANCH  20  21
ENDBRANCH  18  20
ENDBRANCH   2  16
TORSDOF 7
