REMARK  Name = ZINC48916541
REMARK  5 active torsions:
REMARK  status: ('A' for Active; 'I' for Inactive)
REMARK    1  A    between atoms: C_1  and  C_2
REMARK    2  A    between atoms: C_2  and  C_3
REMARK    3  A    between atoms: C_7  and  C_21
REMARK    4  A    between atoms: N_10  and  C_11
REMARK    5  A    between atoms: C_11  and  C_12
REMARK                            x       y       z     vdW  Elec       q    Type
REMARK                         _______ _______ _______ _____ _____    ______ ____
ROOT
ATOM      1  C   UNL     1       2.112   1.577   1.090  0.00  0.00    +0.120 C 
ENDROOT
BRANCH   1   2
ATOM      2  C   UNL     1       3.496   2.024   0.699  0.00  0.00    -0.033 A 
ATOM      3  C   UNL     1       4.418   2.359   1.674  0.00  0.00    +0.007 A 
ATOM      4  C   UNL     1       5.685   2.770   1.319  0.00  0.00    +0.023 A 
ATOM      5  C   UNL     1       6.048   2.850  -0.028  0.00  0.00    +0.030 A 
ATOM      6  C   UNL     1       5.117   2.511  -0.997  0.00  0.00    -0.025 A 
ATOM      7  C   UNL     1       3.850   2.095  -0.636  0.00  0.00    +0.010 A 
ATOM      8  C   UNL     1       5.755   2.682  -2.357  0.00  0.00    +0.055 C 
ATOM      9  C   UNL     1       7.183   3.165  -2.056  0.00  0.00    +0.106 C 
ATOM     10  N   UNL     1       7.264   3.236  -0.594  0.00  0.00    -0.343 N 
ATOM     11  H   UNL     1       8.048   3.512  -0.094  0.00  0.00    +0.146 HD
ENDBRANCH   1   2
BRANCH   1  17
ATOM     12  C   UNL     1       0.722  -0.394   1.326  0.00  0.00    +0.082 C 
ATOM     13  C   UNL     1       0.755  -1.920   1.447  0.00  0.00    +0.179 C 
ATOM     14  O   UNL     1       1.521  -2.286   2.598  0.00  0.00    -0.374 OA
ATOM     15  C   UNL     1       2.868  -1.805   2.569  0.00  0.00    +0.129 C 
ATOM     16  C   UNL     1       2.857  -0.278   2.459  0.00  0.00    +0.116 C 
ATOM     17  N   UNL     1       2.099   0.118   1.264  0.00  0.00    -0.291 NA
ATOM     18  C   UNL     1       3.587  -2.221   3.854  0.00  0.00    +0.039 C 
BRANCH  12  20
ATOM     19  C   UNL     1      -1.476  -0.483   0.144  0.00  0.00    +0.005 C 
ATOM     20  C   UNL     1      -0.028   0.002   0.053  0.00  0.00    +0.018 C 
ENDBRANCH  12  20
ENDBRANCH   1  17
TORSDOF 3
