REMARK  Name = ZINC35990931
REMARK  9 active torsions:
REMARK  status: ('A' for Active; 'I' for Inactive)
REMARK    1  A    between atoms: C_1  and  C_2
REMARK    2  A    between atoms: C_2  and  O_3
REMARK    3  A    between atoms: O_3  and  C_4
REMARK    4  A    between atoms: C_4  and  C_6
REMARK    5  A    between atoms: C_7  and  C_22
REMARK    6  A    between atoms: N_8  and  C_21
REMARK    7  A    between atoms: C_12  and  C_14
REMARK    8  A    between atoms: C_22  and  N_23
REMARK    9  A    between atoms: C_27  and  C_30
REMARK                            x       y       z     vdW  Elec       q    Type
REMARK                         _______ _______ _______ _____ _____    ______ ____
ROOT
ATOM      1  C   UNL     1       1.339  -2.338  -2.525  0.00  0.00    +0.080 C 
ATOM      2  C   UNL     1       1.628  -3.654  -2.615  0.00  0.00    +0.041 C 
ATOM      3  N   UNL     1       2.343  -4.148  -3.668  0.00  0.00    -0.260 N 
ATOM      4  C   UNL     1       2.806  -3.392  -4.671  0.00  0.00    +0.307 C 
ATOM      5  O   UNL     1       3.434  -3.923  -5.566  0.00  0.00    -0.252 OA
ATOM      6  N   UNL     1       2.598  -2.061  -4.721  0.00  0.00    -0.288 N 
ATOM      7  C   UNL     1       1.831  -1.431  -3.634  0.00  0.00    +0.144 C 
ATOM      8  C   UNL     1       2.620  -5.587  -3.702  0.00  0.00    +0.139 C 
ATOM      9  H   UNL     1       2.943  -1.532  -5.457  0.00  0.00    +0.151 HD
ENDROOT
BRANCH   7  10
ATOM     10  C   UNL     1       0.632  -0.747  -4.241  0.00  0.00    -0.020 A 
ATOM     11  C   UNL     1      -0.158  -1.420  -5.155  0.00  0.00    +0.006 A 
ATOM     12  C   UNL     1      -1.257  -0.794  -5.712  0.00  0.00    +0.003 A 
ATOM     13  C   UNL     1      -1.568   0.505  -5.357  0.00  0.00    +0.038 A 
ATOM     14  C   UNL     1      -0.778   1.179  -4.442  0.00  0.00    +0.124 A 
ATOM     15  C   UNL     1       0.320   0.549  -3.879  0.00  0.00    +0.044 A 
ATOM     16  F   UNL     1      -1.080   2.449  -4.094  0.00  0.00    -0.205 F 
ENDBRANCH   7  10
BRANCH   1  17
ATOM     17  C   UNL     1       0.597  -1.825  -1.435  0.00  0.00    +0.339 C 
ATOM     18  O   UNL     1      -0.591  -1.596  -1.562  0.00  0.00    -0.245 OA
BRANCH  17  19
ATOM     19  O   UNL     1       1.208  -1.590  -0.255  0.00  0.00    -0.462 OA
BRANCH  19  21
ATOM     20  C   UNL     1       1.258  -0.872   2.052  0.00  0.00    +0.048 C 
ATOM     21  C   UNL     1       0.398  -1.072   0.803  0.00  0.00    +0.229 C 
ENDBRANCH  19  21
ENDBRANCH  17  19
ENDBRANCH   1  17
BRANCH   2  22
ATOM     22  C   UNL     1       1.153  -4.593  -1.536  0.00  0.00    +0.136 C 
BRANCH  22  23
ATOM     23  N   UNL     1       0.182  -5.539  -2.102  0.00  0.00    -0.300 NA
ATOM     24  C   UNL     1      -1.045  -4.847  -2.521  0.00  0.00    +0.066 C 
ATOM     25  C   UNL     1      -2.004  -5.856  -3.157  0.00  0.00    -0.067 C 
ATOM     26  N   UNL     1      -2.323  -6.910  -2.185  0.00  0.00    +0.382 N 
ATOM     27  C   UNL     1      -1.091  -7.607  -1.795  0.00  0.00    -0.061 C 
ATOM     28  C   UNL     1      -0.124  -6.614  -1.147  0.00  0.00    +0.069 C 
ATOM     29  C   UNL     1      -1.427  -8.717  -0.796  0.00  0.00    -0.012 C 
ATOM     30  H   UNL     1      -2.748  -6.496  -1.369  0.00  0.00    -0.085 HD
ATOM     31  H   UNL     1      -2.965  -7.567  -2.601  0.00  0.00    -0.085 HD
ENDBRANCH  22  23
ENDBRANCH   2  22
TORSDOF 6
