REMARK  Name = ZINC65742906
REMARK  11 active torsions:
REMARK  status: ('A' for Active; 'I' for Inactive)
REMARK    1  A    between atoms: C_4  and  C_7
REMARK    2  A    between atoms: C_7  and  C_8
REMARK    3  A    between atoms: C_7  and  C_14
REMARK    4  A    between atoms: C_7  and  C_32
REMARK    5  A    between atoms: N_18  and  C_20
REMARK    6  A    between atoms: C_20  and  C_21
REMARK    7  A    between atoms: C_21  and  C_22
REMARK    8  A    between atoms: C_25  and  O_31
REMARK    9  A    between atoms: C_26  and  C_28
REMARK   10  A    between atoms: C_28  and  C_29
REMARK   11  A    between atoms: C_29  and  O_30
REMARK                            x       y       z     vdW  Elec       q    Type
REMARK                         _______ _______ _______ _____ _____    ______ ____
ROOT
ATOM      1  C   UNL     1       3.337  -2.101  -0.529  0.00  0.00    -0.006 C 
ATOM      2  C   UNL     1       2.660  -1.998  -1.915  0.00  0.00    -0.015 C 
ATOM      3  C   UNL     1       3.197  -3.199  -2.716  0.00  0.00    -0.079 C 
ATOM      4  N   UNL     1       4.101  -3.950  -1.817  0.00  0.00    +0.380 N 
ATOM      5  C   UNL     1       4.590  -2.966  -0.815  0.00  0.00    -0.074 C 
ATOM      6  H   UNL     1       3.595  -4.691  -1.356  0.00  0.00    -0.082 HD
ENDROOT
BRANCH   1   7
ATOM      7  C   UNL     1       3.740  -0.716  -0.019  0.00  0.00    +0.097 C 
BRANCH   7  11
ATOM      8  C   UNL     1       6.221  -1.134   3.432  0.00  0.00    +0.000 A 
ATOM      9  C   UNL     1       6.745  -0.615   2.263  0.00  0.00    +0.000 A 
ATOM     10  C   UNL     1       5.942  -0.480   1.146  0.00  0.00    +0.005 A 
ATOM     11  C   UNL     1       4.615  -0.865   1.198  0.00  0.00    -0.028 A 
ATOM     12  C   UNL     1       4.092  -1.384   2.367  0.00  0.00    +0.005 A 
ATOM     13  C   UNL     1       4.894  -1.518   3.485  0.00  0.00    +0.000 A 
ENDBRANCH   7  11
BRANCH   7  14
ATOM     14  C   UNL     1       4.497   0.015  -1.097  0.00  0.00    -0.028 A 
ATOM     15  C   UNL     1       4.865  -0.646  -2.254  0.00  0.00    +0.005 A 
ATOM     16  C   UNL     1       5.561   0.025  -3.243  0.00  0.00    +0.000 A 
ATOM     17  C   UNL     1       5.887   1.357  -3.075  0.00  0.00    +0.000 A 
ATOM     18  C   UNL     1       5.519   2.019  -1.919  0.00  0.00    +0.000 A 
ATOM     19  C   UNL     1       4.820   1.349  -0.932  0.00  0.00    +0.005 A 
ENDBRANCH   7  14
BRANCH   7  20
ATOM     20  C   UNL     1       2.503   0.065   0.344  0.00  0.00    +0.226 C 
ATOM     21  O   UNL     1       2.278   0.340   1.503  0.00  0.00    -0.275 OA
ATOM     22  N   UNL     1       1.647   0.457  -0.621  0.00  0.00    -0.328 N 
ATOM     23  H   UNL     1       1.788   0.176  -1.538  0.00  0.00    +0.145 HD
ATOM     24  H   UNL     1       0.889   1.020  -0.397  0.00  0.00    +0.145 HD
ENDBRANCH   7  20
ENDBRANCH   1   7
BRANCH   4  25
ATOM     25  C   UNL     1       5.229  -4.502  -2.579  0.00  0.00    -0.074 C 
BRANCH  25  26
ATOM     26  C   UNL     1       4.715  -5.565  -3.553  0.00  0.00    +0.016 C 
BRANCH  26  27
ATOM     27  C   UNL     1       5.872  -6.131  -4.335  0.00  0.00    -0.049 A 
ATOM     28  C   UNL     1       6.252  -5.545  -5.528  0.00  0.00    +0.007 A 
ATOM     29  C   UNL     1       7.312  -6.062  -6.247  0.00  0.00    +0.046 A 
ATOM     30  C   UNL     1       7.996  -7.171  -5.770  0.00  0.00    +0.120 A 
ATOM     31  C   UNL     1       7.614  -7.758  -4.573  0.00  0.00    -0.004 A 
ATOM     32  C   UNL     1       6.556  -7.233  -3.855  0.00  0.00    +0.010 A 
BRANCH  30  33
ATOM     33  O   UNL     1       9.039  -7.683  -6.476  0.00  0.00    -0.506 OA
ATOM     34  H   UNL     1       9.896  -7.301  -6.243  0.00  0.00    +0.292 HD
ENDBRANCH  30  33
BRANCH  31  35
ATOM     35  C   UNL     1       8.354  -8.962  -4.052  0.00  0.00    +0.066 C 
BRANCH  35  36
ATOM     36  C   UNL     1       7.863 -10.216  -4.778  0.00  0.00    +0.160 C 
BRANCH  36  37
ATOM     37  O   UNL     1       8.566 -11.358  -4.284  0.00  0.00    -0.395 OA
ATOM     38  H   UNL     1       8.305 -12.191  -4.701  0.00  0.00    +0.209 HD
ENDBRANCH  36  37
ENDBRANCH  35  36
ENDBRANCH  31  35
ENDBRANCH  26  27
ENDBRANCH  25  26
ENDBRANCH   4  25
TORSDOF 11
