REMARK  Name = ZINC28232090
REMARK  12 active torsions:
REMARK  status: ('A' for Active; 'I' for Inactive)
REMARK    1  A    between atoms: C_1  and  C_2
REMARK    2  A    between atoms: C_4  and  C_29
REMARK    3  A    between atoms: C_6  and  C_28
REMARK    4  A    between atoms: C_7  and  C_11
REMARK    5  A    between atoms: N_13  and  C_14
REMARK    6  A    between atoms: C_14  and  C_15
REMARK    7  A    between atoms: C_15  and  C_17
REMARK    8  A    between atoms: C_15  and  N_25
REMARK    9  A    between atoms: C_22  and  O_23
REMARK   10  A    between atoms: O_23  and  C_24
REMARK   11  A    between atoms: N_25  and  C_26
REMARK   12  A    between atoms: N_25  and  C_27
REMARK                            x       y       z     vdW  Elec       q    Type
REMARK                         _______ _______ _______ _____ _____    ______ ____
ROOT
ATOM      1  C   UNL     1       4.514   4.840  -2.400  0.00  0.00    +0.280 C 
ATOM      2  O   UNL     1       4.082   4.707  -3.530  0.00  0.00    -0.267 OA
ATOM      3  N   UNL     1       3.788   4.416  -1.347  0.00  0.00    -0.310 N 
ATOM      4  H   UNL     1       4.178   4.536  -0.326  0.00  0.00    +0.149 HD
ENDROOT
BRANCH   1  11
ATOM      5  C   UNL     1      10.779   7.699   0.333  0.00  0.00    +0.044 C 
ATOM      6  C   UNL     1       9.732   7.258  -0.658  0.00  0.00    -0.047 A 
ATOM      7  C   UNL     1       9.947   7.455  -2.016  0.00  0.00    +0.007 A 
ATOM      8  C   UNL     1       9.009   7.061  -2.928  0.00  0.00    -0.039 A 
ATOM      9  C   UNL     1       7.828   6.457  -2.491  0.00  0.00    +0.027 A 
ATOM     10  C   UNL     1       6.643   5.928  -3.166  0.00  0.00    +0.008 A 
ATOM     11  C   UNL     1       5.827   5.464  -2.184  0.00  0.00    +0.193 A 
ATOM     12  O   UNL     1       6.401   5.667  -0.980  0.00  0.00    -0.450 OA
ATOM     13  C   UNL     1       7.606   6.255  -1.116  0.00  0.00    +0.137 A 
ATOM     14  C   UNL     1       8.574   6.664  -0.206  0.00  0.00    +0.050 A 
ATOM     15  C   UNL     1       6.381   5.901  -4.649  0.00  0.00    +0.048 C 
ATOM     16  C   UNL     1       9.249   7.277  -4.400  0.00  0.00    +0.044 C 
ENDBRANCH   1  11
BRANCH   3  17
ATOM     17  C   UNL     1       2.479   3.794  -1.563  0.00  0.00    +0.094 C 
BRANCH  17  18
ATOM     18  C   UNL     1       1.870   3.406  -0.214  0.00  0.00    -0.017 C 
BRANCH  18  19
ATOM     19  C   UNL     1       0.582   2.658  -0.440  0.00  0.00    -0.018 A 
ATOM     20  C   UNL     1       0.372   1.987  -1.630  0.00  0.00    +0.005 A 
ATOM     21  C   UNL     1      -0.809   1.300  -1.839  0.00  0.00    +0.000 A 
ATOM     22  C   UNL     1      -1.787   1.288  -0.860  0.00  0.00    +0.004 A 
ATOM     23  C   UNL     1      -1.580   1.952   0.333  0.00  0.00    +0.046 A 
ATOM     24  C   UNL     1      -0.394   2.642   0.545  0.00  0.00    +0.122 A 
BRANCH  24  25
ATOM     25  O   UNL     1      -0.190   3.300   1.716  0.00  0.00    -0.495 OA
ATOM     26  C   UNL     1      -1.239   3.241   2.685  0.00  0.00    +0.277 C 
ENDBRANCH  24  25
ENDBRANCH  18  19
BRANCH  18  27
ATOM     27  N   UNL     1       2.811   2.550   0.520  0.00  0.00    +0.382 N 
ATOM     28  C   UNL     1       2.362   2.337   1.903  0.00  0.00    -0.096 C 
ATOM     29  C   UNL     1       3.008   1.270  -0.172  0.00  0.00    -0.096 C 
ATOM     30  H   UNL     1       3.781   3.067   0.556  0.00  0.00    -0.082 HD
ENDBRANCH  18  27
ENDBRANCH  17  18
ENDBRANCH   3  17
TORSDOF 6
