REMARK  Name = ZINC18198957
REMARK  8 active torsions:
REMARK  status: ('A' for Active; 'I' for Inactive)
REMARK    1  A    between atoms: C_1  and  C_2
REMARK    2  A    between atoms: C_5  and  C_9
REMARK    3  A    between atoms: C_7  and  C_8
REMARK    4  A    between atoms: C_14  and  C_19
REMARK    5  A    between atoms: C_22  and  O_27
REMARK    6  A    between atoms: C_23  and  O_25
REMARK    7  A    between atoms: O_25  and  C_26
REMARK    8  A    between atoms: O_27  and  C_28
REMARK                            x       y       z     vdW  Elec       q    Type
REMARK                         _______ _______ _______ _____ _____    ______ ____
ROOT
ATOM      1  C   UNL     1      -4.808   2.069   0.046  0.00  0.00    +0.175 C 
ATOM      2  C   UNL     1      -5.378   3.433  -0.280  0.00  0.00    +0.041 C 
ATOM      3  C   UNL     1      -4.620   4.550  -0.263  0.00  0.00    +0.020 C 
ATOM      4  C   UNL     1      -5.222   5.900  -0.576  0.00  0.00    +0.060 C 
ATOM      5  C   UNL     1      -6.366   5.734  -1.577  0.00  0.00    +0.032 C 
ATOM      6  C   UNL     1      -7.410   4.793  -0.965  0.00  0.00    +0.088 C 
ATOM      7  C   UNL     1      -6.745   3.493  -0.608  0.00  0.00    +0.164 C 
ATOM      8  O   UNL     1      -7.402   2.471  -0.602  0.00  0.00    -0.292 OA
ATOM      9  N   UNL     1      -3.279   4.511   0.033  0.00  0.00    -0.287 N 
ATOM     10  C   UNL     1      -2.646   3.279   0.031  0.00  0.00    +0.220 A 
ATOM     11  N   UNL     1      -3.352   2.121   0.031  0.00  0.00    -0.219 N 
ATOM     12  N   UNL     1      -2.418   1.085   0.019  0.00  0.00    -0.132 NA
ATOM     13  C   UNL     1      -1.229   1.647   0.017  0.00  0.00    +0.233 A 
ATOM     14  N   UNL     1      -1.375   2.980   0.031  0.00  0.00    -0.180 NA
ATOM     15  N   UNL     1      -0.011   0.966   0.007  0.00  0.00    -0.326 N 
ATOM     16  H   UNL     1      -2.789   5.323   0.237  0.00  0.00    +0.155 HD
ATOM     17  H   UNL     1       0.002  -0.004   0.002  0.00  0.00    +0.145 HD
ATOM     18  H   UNL     1       0.822   1.462   0.002  0.00  0.00    +0.145 HD
ENDROOT
BRANCH   1  23
ATOM     19  C   UNL     1      -6.616   0.436   5.285  0.00  0.00    +0.044 C 
ATOM     20  C   UNL     1      -6.145   0.862   3.919  0.00  0.00    -0.048 A 
ATOM     21  C   UNL     1      -5.393   2.013   3.775  0.00  0.00    +0.004 A 
ATOM     22  C   UNL     1      -4.956   2.401   2.522  0.00  0.00    +0.006 A 
ATOM     23  C   UNL     1      -5.280   1.644   1.412  0.00  0.00    -0.018 A 
ATOM     24  C   UNL     1      -6.032   0.493   1.556  0.00  0.00    +0.009 A 
ATOM     25  C   UNL     1      -6.465   0.102   2.810  0.00  0.00    -0.047 A 
ATOM     26  C   UNL     1      -7.284  -1.152   2.967  0.00  0.00    +0.044 C 
ENDBRANCH   1  23
BRANCH   5  27
ATOM     27  C   UNL     1      -6.995   7.074  -1.858  0.00  0.00    -0.040 A 
ATOM     28  C   UNL     1      -7.540   7.811  -0.823  0.00  0.00    +0.008 A 
ATOM     29  C   UNL     1      -8.116   9.042  -1.076  0.00  0.00    +0.049 A 
ATOM     30  C   UNL     1      -8.149   9.539  -2.369  0.00  0.00    +0.161 A 
ATOM     31  C   UNL     1      -7.601   8.797  -3.410  0.00  0.00    +0.162 A 
ATOM     32  C   UNL     1      -7.020   7.567  -3.150  0.00  0.00    +0.053 A 
BRANCH  31  33
ATOM     33  O   UNL     1      -7.632   9.281  -4.681  0.00  0.00    -0.491 OA
ATOM     34  C   UNL     1      -7.050   8.465  -5.700  0.00  0.00    +0.277 C 
ENDBRANCH  31  33
BRANCH  30  35
ATOM     35  O   UNL     1      -8.717  10.749  -2.619  0.00  0.00    -0.491 OA
ATOM     36  C   UNL     1      -9.260  11.455  -1.501  0.00  0.00    +0.277 C 
ENDBRANCH  30  35
ENDBRANCH   5  27
TORSDOF 4
