REMARK  Name = ZINC36610172
REMARK  12 active torsions:
REMARK  status: ('A' for Active; 'I' for Inactive)
REMARK    1  A    between atoms: C_1  and  C_2
REMARK    2  A    between atoms: C_3  and  C_4
REMARK    3  A    between atoms: C_4  and  C_6
REMARK    4  A    between atoms: C_4  and  N_13
REMARK    5  A    between atoms: N_8  and  C_9
REMARK    6  A    between atoms: C_9  and  C_10
REMARK    7  A    between atoms: C_9  and  C_11
REMARK    8  A    between atoms: C_9  and  C_12
REMARK    9  A    between atoms: N_13  and  C_14
REMARK   10  A    between atoms: C_20  and  C_22
REMARK   11  A    between atoms: C_23  and  O_29
REMARK   12  A    between atoms: C_27  and  O_28
REMARK                            x       y       z     vdW  Elec       q    Type
REMARK                         _______ _______ _______ _____ _____    ______ ____
ROOT
ATOM      1  N   UNL     1       1.223   1.476  -1.525  0.00  0.00    -0.252 N 
ATOM      2  C   UNL     1       2.371   2.176  -1.440  0.00  0.00    +0.259 C 
ATOM      3  O   UNL     1       3.409   1.695  -1.852  0.00  0.00    -0.269 OA
ENDROOT
BRANCH   1   4
ATOM      4  C   UNL     1       0.015   2.063  -1.135  0.00  0.00    +0.038 A 
ATOM      5  C   UNL     1      -0.625   1.637   0.021  0.00  0.00    +0.023 A 
ATOM      6  C   UNL     1      -1.818   2.218   0.404  0.00  0.00    +0.002 A 
ATOM      7  C   UNL     1      -2.376   3.224  -0.364  0.00  0.00    +0.000 A 
ATOM      8  C   UNL     1      -1.742   3.650  -1.517  0.00  0.00    +0.002 A 
ATOM      9  C   UNL     1      -0.546   3.077  -1.901  0.00  0.00    +0.023 A 
ENDBRANCH   1   4
BRANCH   2  10
ATOM     10  C   UNL     1       2.368   3.524  -0.847  0.00  0.00    +0.120 A 
ATOM     11  C   UNL     1       2.457   3.684   0.544  0.00  0.00    +0.133 A 
ATOM     12  C   UNL     1       2.454   4.957   1.091  0.00  0.00    +0.046 A 
ATOM     13  C   UNL     1       2.365   6.066   0.272  0.00  0.00    +0.007 A 
ATOM     14  C   UNL     1       2.277   5.920  -1.100  0.00  0.00    +0.046 A 
ATOM     15  C   UNL     1       2.284   4.657  -1.669  0.00  0.00    +0.133 A 
BRANCH  15  16
ATOM     16  O   UNL     1       2.203   4.516  -3.016  0.00  0.00    -0.506 OA
ATOM     17  H   UNL     1       1.299   4.517  -3.358  0.00  0.00    +0.292 HD
ENDBRANCH  15  16
BRANCH  11  18
ATOM     18  O   UNL     1       2.544   2.596   1.350  0.00  0.00    -0.506 OA
ATOM     19  H   UNL     1       3.450   2.308   1.525  0.00  0.00    +0.292 HD
ENDBRANCH  11  18
ENDBRANCH   2  10
BRANCH   1  20
ATOM     20  C   UNL     1       1.240   0.099  -2.027  0.00  0.00    +0.190 C 
BRANCH  20  21
ATOM     21  C   UNL     1       0.325  -0.013  -3.219  0.00  0.00    +0.238 C 
ATOM     22  O   UNL     1      -0.282   0.961  -3.611  0.00  0.00    -0.273 OA
ATOM     23  N   UNL     1       0.181  -1.195  -3.849  0.00  0.00    -0.309 N 
ATOM     24  H   UNL     1       0.666  -1.974  -3.536  0.00  0.00    +0.149 HD
BRANCH  23  25
ATOM     25  C   UNL     1      -0.709  -1.304  -5.008  0.00  0.00    +0.026 C 
ATOM     26  C   UNL     1      -0.232  -0.354  -6.108  0.00  0.00    +0.031 C 
ATOM     27  C   UNL     1      -0.691  -2.741  -5.532  0.00  0.00    +0.031 C 
ATOM     28  C   UNL     1      -2.134  -0.930  -4.594  0.00  0.00    +0.031 C 
ENDBRANCH  23  25
ENDBRANCH  20  21
BRANCH  20  31
ATOM     29  C   UNL     1       3.044  -1.720  -0.850  0.00  0.00    +0.035 C 
ATOM     30  C   UNL     1       1.595  -1.719  -0.436  0.00  0.00    -0.032 C 
ATOM     31  C   UNL     1       0.770  -0.836  -0.943  0.00  0.00    +0.000 C 
ENDBRANCH  20  31
ENDBRANCH   1  20
TORSDOF 8
