REMARK  Name = ZINC64890713
REMARK  11 active torsions:
REMARK  status: ('A' for Active; 'I' for Inactive)
REMARK    1  A    between atoms: C_1  and  C_2
REMARK    2  A    between atoms: C_2  and  C_3
REMARK    3  A    between atoms: C_2  and  C_4
REMARK    4  A    between atoms: C_4  and  C_6
REMARK    5  A    between atoms: C_4  and  N_28
REMARK    6  A    between atoms: C_9  and  C_12
REMARK    7  A    between atoms: N_24  and  C_25
REMARK    8  A    between atoms: C_25  and  C_26
REMARK    9  A    between atoms: C_25  and  C_27
REMARK   10  A    between atoms: N_28  and  S_29
REMARK   11  A    between atoms: S_29  and  C_32
REMARK                            x       y       z     vdW  Elec       q    Type
REMARK                         _______ _______ _______ _____ _____    ______ ____
ROOT
ATOM      1  C   UNL     1      -1.613  -0.352  -1.233  0.00  0.00    +0.262 C 
ATOM      2  N   UNL     1      -2.887  -0.865  -0.717  0.00  0.00    -0.341 N 
ATOM      3  C   UNL     1      -2.684  -1.376   0.459  0.00  0.00    +0.134 C 
ATOM      4  N   UNL     1      -1.366  -1.272   0.830  0.00  0.00    -0.247 N 
ATOM      5  O   UNL     1      -0.644  -0.629  -0.211  0.00  0.00    -0.246 OA
ATOM      6  H   UNL     1      -0.989  -1.586   1.666  0.00  0.00    +0.196 HD
ATOM      7  H   UNL     1      -3.740  -0.829  -1.177  0.00  0.00    +0.164 HD
ENDROOT
BRANCH   3   8
ATOM      8  C   UNL     1      -3.738  -1.993   1.294  0.00  0.00    +0.019 A 
ATOM      9  C   UNL     1      -4.828  -2.625   0.690  0.00  0.00    +0.013 A 
ATOM     10  C   UNL     1      -5.809  -3.200   1.464  0.00  0.00    +0.028 A 
ATOM     11  C   UNL     1      -5.722  -3.154   2.854  0.00  0.00    +0.069 A 
ATOM     12  C   UNL     1      -4.635  -2.523   3.464  0.00  0.00    +0.067 A 
ATOM     13  C   UNL     1      -3.642  -1.949   2.683  0.00  0.00    +0.039 A 
ATOM     14  N   UNL     1      -4.535  -2.469   4.852  0.00  0.00    -0.316 N 
ATOM     15  H   UNL     1      -3.776  -2.029   5.266  0.00  0.00    +0.169 HD
ATOM     16  C   UNL     1      -5.491  -3.029   5.621  0.00  0.00    +0.314 A 
ATOM     17  O   UNL     1      -5.409  -2.984   6.832  0.00  0.00    -0.262 OA
ATOM     18  C   UNL     1      -6.650  -3.703   4.968  0.00  0.00    +0.317 A 
ATOM     19  O   UNL     1      -7.522  -4.213   5.642  0.00  0.00    -0.262 OA
ATOM     20  N   UNL     1      -6.722  -3.739   3.622  0.00  0.00    -0.300 N 
BRANCH  20  21
ATOM     21  C   UNL     1      -7.856  -4.397   2.968  0.00  0.00    +0.085 C 
ATOM     22  C   UNL     1      -7.949  -5.847   3.446  0.00  0.00    +0.030 C 
ATOM     23  C   UNL     1      -9.148  -3.659   3.323  0.00  0.00    +0.030 C 
ENDBRANCH  20  21
ENDBRANCH   3   8
BRANCH   1  24
ATOM     24  C   UNL     1      -1.709   1.156  -1.476  0.00  0.00    +0.131 C 
BRANCH  24  26
ATOM     25  C   UNL     1      -0.551   3.133  -2.472  0.00  0.00    +0.009 C 
ATOM     26  C   UNL     1      -0.406   1.656  -2.102  0.00  0.00    +0.006 C 
ATOM     27  C   UNL     1       0.737   1.492  -1.098  0.00  0.00    +0.009 C 
ENDBRANCH  24  26
BRANCH  24  28
ATOM     28  N   UNL     1      -2.825   1.434  -2.385  0.00  0.00    -0.182 NA
ATOM     29  H   UNL     1      -2.775   1.157  -3.313  0.00  0.00    +0.148 HD
BRANCH  28  30
ATOM     30  S   UNL     1      -4.171   2.220  -1.827  0.00  0.00    +0.059 S 
ATOM     31  O   UNL     1      -5.053   2.351  -2.933  0.00  0.00    -0.153 OA
ATOM     32  O   UNL     1      -4.552   1.568  -0.623  0.00  0.00    -0.153 OA
BRANCH  30  33
ATOM     33  C   UNL     1      -3.675   3.851  -1.382  0.00  0.00    +0.105 A 
ATOM     34  C   UNL     1      -3.308   4.130  -0.079  0.00  0.00    +0.028 A 
ATOM     35  C   UNL     1      -2.919   5.410   0.270  0.00  0.00    +0.002 A 
ATOM     36  C   UNL     1      -2.896   6.410  -0.684  0.00  0.00    +0.000 A 
ATOM     37  C   UNL     1      -3.263   6.130  -1.987  0.00  0.00    +0.002 A 
ATOM     38  C   UNL     1      -3.648   4.850  -2.337  0.00  0.00    +0.028 A 
ENDBRANCH  30  33
ENDBRANCH  28  30
ENDBRANCH  24  28
ENDBRANCH   1  24
TORSDOF 7
