REMARK  Name = ZINC04400116
REMARK  9 active torsions:
REMARK  status: ('A' for Active; 'I' for Inactive)
REMARK    1  A    between atoms: C_1  and  C_2
REMARK    2  A    between atoms: C_2  and  C_3
REMARK    3  A    between atoms: C_3  and  C_27
REMARK    4  A    between atoms: C_8  and  C_10
REMARK    5  A    between atoms: N_17  and  C_20
REMARK    6  A    between atoms: C_23  and  C_26
REMARK    7  A    between atoms: C_27  and  O_29
REMARK    8  A    between atoms: O_29  and  C_30
REMARK    9  A    between atoms: C_30  and  C_31
REMARK                            x       y       z     vdW  Elec       q    Type
REMARK                         _______ _______ _______ _____ _____    ______ ____
ROOT
ATOM      1  C   UNL     1      -0.769   1.605   1.215  0.00  0.00    +0.044 C 
ATOM      2  C   UNL     1      -0.003   1.062  -0.009  0.00  0.00    +0.086 C 
ATOM      3  C   UNL     1      -0.684   1.710  -1.244  0.00  0.00    +0.080 C 
ATOM      4  C   UNL     1      -1.803   2.597  -0.660  0.00  0.00    +0.010 C 
ATOM      5  C   UNL     1       0.402   2.593  -1.818  0.00  0.00    +0.229 C 
ATOM      6  O   UNL     1       0.290   3.290  -2.804  0.00  0.00    -0.275 OA
ATOM      7  N   UNL     1       1.504   2.486  -1.068  0.00  0.00    -0.210 N 
ATOM      8  C   UNL     1       1.389   1.654  -0.027  0.00  0.00    +0.229 C 
ATOM      9  O   UNL     1       2.263   1.411   0.777  0.00  0.00    -0.275 OA
ATOM     10  N   UNL     1      -1.360   2.864   0.709  0.00  0.00    +0.397 N 
ATOM     11  H   UNL     1      -0.656   3.612   0.714  0.00  0.00    -0.083 HD
ATOM     12  H   UNL     1      -2.158   3.141   1.293  0.00  0.00    -0.083 HD
ENDROOT
BRANCH   7  13
ATOM     13  C   UNL     1       2.685   3.188  -1.350  0.00  0.00    +0.044 A 
ATOM     14  C   UNL     1       3.122   4.187  -0.491  0.00  0.00    +0.024 A 
ATOM     15  C   UNL     1       4.288   4.874  -0.769  0.00  0.00    +0.005 A 
ATOM     16  C   UNL     1       5.013   4.574  -1.907  0.00  0.00    -0.050 A 
ATOM     17  C   UNL     1       4.577   3.584  -2.768  0.00  0.00    +0.005 A 
ATOM     18  C   UNL     1       3.415   2.890  -2.493  0.00  0.00    +0.024 A 
ATOM     19  C   UNL     1       6.281   5.330  -2.211  0.00  0.00    +0.044 C 
ENDBRANCH   7  13
BRANCH   4  20
ATOM     20  C   UNL     1      -1.935   3.869  -1.457  0.00  0.00    +0.092 A 
ATOM     21  C   UNL     1      -2.857   4.110  -2.407  0.00  0.00    +0.043 A 
ATOM     22  C   UNL     1      -2.617   5.418  -2.887  0.00  0.00    +0.041 A 
ATOM     23  C   UNL     1      -1.559   5.895  -2.208  0.00  0.00    +0.195 A 
ATOM     24  O   UNL     1      -1.150   4.952  -1.343  0.00  0.00    -0.469 OA
ENDBRANCH   4  20
BRANCH   1  26
ATOM     25  C   UNL     1      -0.587   2.402   3.576  0.00  0.00    +0.003 C 
ATOM     26  C   UNL     1       0.194   1.865   2.375  0.00  0.00    -0.004 C 
ENDBRANCH   1  26
BRANCH   1  27
ATOM     27  C   UNL     1      -1.846   0.636   1.632  0.00  0.00    +0.297 C 
ATOM     28  O   UNL     1      -1.740  -0.537   1.363  0.00  0.00    -0.252 OA
BRANCH  27  29
ATOM     29  O   UNL     1      -2.922   1.076   2.302  0.00  0.00    -0.466 OA
BRANCH  29  30
ATOM     30  C   UNL     1      -3.919   0.087   2.672  0.00  0.00    +0.228 C 
ATOM     31  C   UNL     1      -5.063   0.771   3.423  0.00  0.00    +0.048 C 
ENDBRANCH  29  30
ENDBRANCH  27  29
ENDBRANCH   1  27
TORSDOF 6
