REMARK  Name = ZINC50530413
REMARK  3 active torsions:
REMARK  status: ('A' for Active; 'I' for Inactive)
REMARK    1  A    between atoms: C_7  and  N_12
REMARK    2  A    between atoms: N_12  and  C_13
REMARK    3  A    between atoms: C_13  and  C_14
REMARK                            x       y       z     vdW  Elec       q    Type
REMARK                         _______ _______ _______ _____ _____    ______ ____
ROOT
ATOM      1  C   UNL     1      -0.016   1.360   0.009  0.00  0.00    +0.001 A 
ATOM      2  C   UNL     1       1.167   2.094   0.002  0.00  0.00    +0.001 A 
ATOM      3  C   UNL     1       2.380   1.473  -0.013  0.00  0.00    +0.011 A 
ATOM      4  C   UNL     1       2.436   0.074  -0.021  0.00  0.00    +0.024 A 
ATOM      5  C   UNL     1       1.230  -0.674  -0.013  0.00  0.00    +0.027 A 
ATOM      6  C   UNL     1       0.002  -0.004   0.002  0.00  0.00    +0.012 A 
ATOM      7  C   UNL     1       1.332  -2.084  -0.021  0.00  0.00    +0.149 A 
ATOM      8  N   UNL     1       2.532  -2.635  -0.035  0.00  0.00    -0.132 NA
ATOM      9  N   UNL     1       3.617  -1.954  -0.042  0.00  0.00    -0.135 NA
ATOM     10  C   UNL     1       3.650  -0.641  -0.036  0.00  0.00    +0.159 A 
ATOM     11 CL   UNL     1       5.167   0.203  -0.045  0.00  0.00    -0.059 Cl
ENDROOT
BRANCH   7  12
ATOM     12  N   UNL     1       0.193  -2.874  -0.014  0.00  0.00    -0.327 N 
ATOM     13  H   UNL     1      -0.684  -2.460  -0.004  0.00  0.00    +0.148 HD
BRANCH  12  14
ATOM     14  C   UNL     1       0.314  -4.334  -0.022  0.00  0.00    +0.108 C 
BRANCH  14  15
ATOM     15  C   UNL     1      -1.081  -4.962  -0.012  0.00  0.00    +0.032 C 
ATOM     16  C   UNL     1      -0.957  -6.484   0.102  0.00  0.00    +0.009 C 
ATOM     17  C   UNL     1      -2.355  -7.106   0.033  0.00  0.00    +0.028 C 
ATOM     18  C   UNL     1      -3.033  -6.675  -1.270  0.00  0.00    +0.160 C 
ATOM     19  O   UNL     1      -3.089  -5.248  -1.326  0.00  0.00    -0.379 OA
ATOM     20  C   UNL     1      -1.809  -4.612  -1.312  0.00  0.00    +0.164 C 
ENDBRANCH  14  15
ENDBRANCH  12  14
ENDBRANCH   7  12
TORSDOF 3
