REMARK  Name = ZINC59669581
REMARK  7 active torsions:
REMARK  status: ('A' for Active; 'I' for Inactive)
REMARK    1  A    between atoms: C_1  and  C_2
REMARK    2  A    between atoms: C_4  and  C_26
REMARK    3  A    between atoms: C_6  and  C_14
REMARK    4  A    between atoms: C_17  and  O_22
REMARK    5  A    between atoms: C_18  and  O_20
REMARK    6  A    between atoms: O_20  and  C_21
REMARK    7  A    between atoms: O_22  and  C_23
REMARK                            x       y       z     vdW  Elec       q    Type
REMARK                         _______ _______ _______ _____ _____    ______ ____
ROOT
ATOM      1  C   UNL     1       2.312   1.153  -0.696  0.00  0.00    +0.028 C 
ATOM      2  C   UNL     1       2.517  -0.297  -1.135  0.00  0.00    +0.084 C 
ATOM      3  C   UNL     1       1.168  -0.914  -1.522  0.00  0.00    +0.124 C 
ATOM      4  C   UNL     1       0.516  -0.079  -2.631  0.00  0.00    +0.154 C 
ATOM      5  N   UNL     1       1.500   0.154  -3.688  0.00  0.00    -0.225 N 
ATOM      6  C   UNL     1       2.840   0.027  -3.525  0.00  0.00    +0.214 A 
ATOM      7  N   UNL     1       3.413   0.304  -4.664  0.00  0.00    -0.202 NA
ATOM      8  C   UNL     1       2.480   0.612  -5.571  0.00  0.00    +0.247 A 
ATOM      9  N   UNL     1       1.297   0.532  -5.015  0.00  0.00    -0.156 NA
ATOM     10  N   UNL     1       3.412  -0.338  -2.309  0.00  0.00    -0.310 N 
ATOM     11  H   UNL     1       4.341  -0.604  -2.236  0.00  0.00    +0.149 HD
ENDROOT
BRANCH   4  12
ATOM     12  C   UNL     1      -0.667  -0.823  -3.195  0.00  0.00    -0.019 A 
ATOM     13  C   UNL     1      -0.472  -1.822  -4.130  0.00  0.00    +0.009 A 
ATOM     14  C   UNL     1      -1.554  -2.508  -4.650  0.00  0.00    +0.050 A 
ATOM     15  C   UNL     1      -2.838  -2.195  -4.233  0.00  0.00    +0.168 A 
ATOM     16  C   UNL     1      -3.034  -1.189  -3.291  0.00  0.00    +0.162 A 
ATOM     17  C   UNL     1      -1.945  -0.509  -2.771  0.00  0.00    +0.055 A 
BRANCH  16  18
ATOM     18  O   UNL     1      -4.292  -0.878  -2.879  0.00  0.00    -0.491 OA
ATOM     19  C   UNL     1      -4.418   0.165  -1.910  0.00  0.00    +0.277 C 
ENDBRANCH  16  18
BRANCH  15  20
ATOM     20  O   UNL     1      -3.903  -2.868  -4.744  0.00  0.00    -0.431 OA
BRANCH  20  21
ATOM     21  C   UNL     1      -3.626  -3.887  -5.706  0.00  0.00    +0.541 C 
ATOM     22  F   UNL     1      -2.975  -3.322  -6.808  0.00  0.00    -0.166 F 
ATOM     23  F   UNL     1      -2.806  -4.862  -5.130  0.00  0.00    -0.166 F 
ENDBRANCH  20  21
ENDBRANCH  15  20
ENDBRANCH   4  12
BRANCH   3  24
ATOM     24  C   UNL     1       1.384  -2.321  -2.018  0.00  0.00    +0.218 C 
ATOM     25  O   UNL     1       2.383  -2.596  -2.648  0.00  0.00    -0.276 OA
ATOM     26  N   UNL     1       0.466  -3.274  -1.760  0.00  0.00    -0.329 N 
ATOM     27  H   UNL     1      -0.333  -3.054  -1.256  0.00  0.00    +0.145 HD
ATOM     28  H   UNL     1       0.605  -4.180  -2.078  0.00  0.00    +0.145 HD
ENDBRANCH   3  24
TORSDOF 5
