REMARK  Name = ZINC16012234
REMARK  5 active torsions:
REMARK  status: ('A' for Active; 'I' for Inactive)
REMARK    1  A    between atoms: C_1  and  C_2
REMARK    2  A    between atoms: C_7  and  C_8
REMARK    3  A    between atoms: C_13  and  C_30
REMARK    4  A    between atoms: C_30  and  C_32
REMARK    5  A    between atoms: C_36  and  N_38
REMARK                            x       y       z     vdW  Elec       q    Type
REMARK                         _______ _______ _______ _____ _____    ______ ____
ROOT
ATOM      1  C   UNL     1       5.499  -1.907   5.133  0.00  0.00    +0.044 C 
ATOM      2  C   UNL     1       4.882  -0.985   4.114  0.00  0.00    -0.046 A 
ATOM      3  C   UNL     1       3.933  -1.467   3.231  0.00  0.00    +0.004 A 
ATOM      4  C   UNL     1       3.387  -0.624   2.280  0.00  0.00    +0.005 A 
ATOM      5  C   UNL     1       3.795   0.690   2.198  0.00  0.00    -0.027 A 
ATOM      6  C   UNL     1       4.713   1.195   3.114  0.00  0.00    +0.039 A 
ATOM      7  C   UNL     1       5.267   0.338   4.063  0.00  0.00    -0.026 A 
ATOM      8  C   UNL     1       6.282   0.860   5.048  0.00  0.00    +0.046 C 
ATOM      9  N   UNL     1       4.910   2.557   2.894  0.00  0.00    -0.286 N 
ATOM     10  C   UNL     1       4.162   3.020   1.874  0.00  0.00    +0.212 C 
ATOM     11  O   UNL     1       4.127   4.170   1.493  0.00  0.00    -0.277 OA
ATOM     12  C   UNL     1       3.424   1.837   1.294  0.00  0.00    +0.052 C 
ATOM     13  C   UNL     1       1.904   2.048   1.319  0.00  0.00    +0.080 C 
ATOM     14  C   UNL     1       1.534   2.441  -0.119  0.00  0.00    +0.071 C 
ATOM     15  C   UNL     1       1.299   3.924  -0.250  0.00  0.00    -0.012 A 
ATOM     16  C   UNL     1       2.125   5.025  -0.240  0.00  0.00    +0.006 A 
ATOM     17  C   UNL     1       1.592   6.298  -0.348  0.00  0.00    +0.000 A 
ATOM     18  C   UNL     1       0.227   6.462  -0.496  0.00  0.00    +0.002 A 
ATOM     19  C   UNL     1      -0.601   5.361  -0.558  0.00  0.00    +0.023 A 
ATOM     20  C   UNL     1      -0.068   4.078  -0.463  0.00  0.00    +0.038 A 
ATOM     21  N   UNL     1      -0.676   2.828  -0.586  0.00  0.00    -0.285 N 
ATOM     22  C   UNL     1       0.218   1.820  -0.498  0.00  0.00    +0.227 C 
ATOM     23  O   UNL     1      -0.039   0.647  -0.660  0.00  0.00    -0.275 OA
ATOM     24  C   UNL     1       2.701   2.001  -0.990  0.00  0.00    -0.046 C 
ATOM     25  C   UNL     1       4.252   0.267  -0.413  0.00  0.00    -0.076 C 
ATOM     26  C   UNL     1       3.781   0.051  -1.880  0.00  0.00    -0.020 C 
ATOM     27  C   UNL     1       2.387   0.746  -1.823  0.00  0.00    -0.016 C 
ATOM     28  H   UNL     1       5.513   3.115   3.410  0.00  0.00    +0.155 HD
ATOM     29  H   UNL     1      -1.627   2.696  -0.718  0.00  0.00    +0.155 HD
ATOM     30  N   UNL     1       3.828   1.665  -0.123  0.00  0.00    +0.395 N 
ATOM     31  H   UNL     1       4.611   2.299  -0.322  0.00  0.00    -0.079 HD
ENDROOT
BRANCH  13  32
ATOM     32  C   UNL     1       1.497   3.100   2.311  0.00  0.00    +0.167 C 
ATOM     33  O   UNL     1       1.718   4.270   2.079  0.00  0.00    -0.292 OA
BRANCH  32  34
ATOM     34  C   UNL     1       0.830   2.712   3.564  0.00  0.00    +0.020 A 
ATOM     35  C   UNL     1       0.684   1.360   3.892  0.00  0.00    +0.011 A 
ATOM     36  C   UNL     1       0.059   1.004   5.068  0.00  0.00    +0.003 A 
ATOM     37  C   UNL     1      -0.424   1.980   5.923  0.00  0.00    +0.033 A 
ATOM     38  C   UNL     1      -0.283   3.319   5.605  0.00  0.00    +0.127 A 
ATOM     39  C   UNL     1       0.344   3.692   4.435  0.00  0.00    +0.044 A 
BRANCH  38  40
ATOM     40  N   UNL     1      -0.802   4.355   6.527  0.00  0.00    +0.056 N 
ATOM     41  O   UNL     1      -1.352   4.028   7.563  0.00  0.00    -0.126 OA
ATOM     42  O   UNL     1      -0.679   5.534   6.248  0.00  0.00    -0.126 OA
ENDBRANCH  38  40
ENDBRANCH  32  34
ENDBRANCH  13  32
TORSDOF 3
