REMARK  Name = ZINC00290680
REMARK  5 active torsions:
REMARK  status: ('A' for Active; 'I' for Inactive)
REMARK    1  A    between atoms: C_1  and  C_2
REMARK    2  A    between atoms: C_7  and  N_8
REMARK    3  A    between atoms: C_9  and  C_11
REMARK    4  A    between atoms: C_12  and  C_13
REMARK    5  A    between atoms: C_17  and  N_19
REMARK                            x       y       z     vdW  Elec       q    Type
REMARK                         _______ _______ _______ _____ _____    ______ ____
ROOT
ATOM      1  N   UNL     1      -2.443   8.097   0.069  0.00  0.00    -0.282 N 
ATOM      2  C   UNL     1      -1.267   7.439   0.057  0.00  0.00    +0.241 C 
ATOM      3  O   UNL     1      -0.221   8.062   0.044  0.00  0.00    -0.270 OA
ATOM      4  H   UNL     1      -3.275   7.604  -0.002  0.00  0.00    +0.155 HD
ENDROOT
BRANCH   1  11
ATOM      5  C   UNL     1      -4.704   9.495  -0.946  0.00  0.00    +0.045 C 
ATOM      6  C   UNL     1      -3.547  10.213  -0.300  0.00  0.00    -0.029 A 
ATOM      7  C   UNL     1      -3.564  11.589  -0.185  0.00  0.00    +0.005 A 
ATOM      8  C   UNL     1      -2.504  12.248   0.408  0.00  0.00    +0.000 A 
ATOM      9  C   UNL     1      -1.422  11.532   0.889  0.00  0.00    +0.002 A 
ATOM     10  C   UNL     1      -1.401  10.156   0.783  0.00  0.00    +0.023 A 
ATOM     11  C   UNL     1      -2.463   9.491   0.182  0.00  0.00    +0.037 A 
ENDBRANCH   1  11
BRANCH   2  12
ATOM     12  C   UNL     1      -1.247   5.975   0.060  0.00  0.00    +0.068 C 
ATOM     13  C   UNL     1      -0.070   5.317   0.049  0.00  0.00    +0.013 C 
BRANCH  13  14
ATOM     14  C   UNL     1      -0.051   3.845   0.052  0.00  0.00    -0.023 A 
ATOM     15  C   UNL     1      -1.250   3.126   0.067  0.00  0.00    +0.008 A 
ATOM     16  C   UNL     1      -1.224   1.748   0.065  0.00  0.00    +0.003 A 
ATOM     17  C   UNL     1      -0.013   1.075   0.059  0.00  0.00    +0.033 A 
ATOM     18  C   UNL     1       1.178   1.780   0.043  0.00  0.00    +0.127 A 
ATOM     19  C   UNL     1       1.167   3.159   0.040  0.00  0.00    +0.040 A 
BRANCH  18  20
ATOM     20  N   UNL     1       2.466   1.051   0.031  0.00  0.00    +0.056 N 
ATOM     21  O   UNL     1       2.477  -0.167   0.034  0.00  0.00    -0.126 OA
ATOM     22  O   UNL     1       3.515   1.669   0.017  0.00  0.00    -0.126 OA
ENDBRANCH  18  20
ENDBRANCH  13  14
ENDBRANCH   2  12
TORSDOF 4
