REMARK  Name = ZINC63781938
REMARK  9 active torsions:
REMARK  status: ('A' for Active; 'I' for Inactive)
REMARK    1  A    between atoms: C_1  and  C_2
REMARK    2  A    between atoms: N_4  and  C_5
REMARK    3  A    between atoms: C_8  and  O_11
REMARK    4  A    between atoms: O_11  and  C_12
REMARK    5  A    between atoms: C_12  and  C_13
REMARK    6  A    between atoms: C_16  and  C_20
REMARK    7  A    between atoms: N_22  and  C_23
REMARK    8  A    between atoms: C_23  and  C_24
REMARK    9  A    between atoms: C_24  and  C_25
REMARK                            x       y       z     vdW  Elec       q    Type
REMARK                         _______ _______ _______ _____ _____    ______ ____
ROOT
ATOM      1  C   UNL     1      -1.816  -8.424   0.421  0.00  0.00    +0.188 C 
ATOM      2  N   UNL     1      -0.948  -8.865  -0.696  0.00  0.00    -0.263 NA
ATOM      3  C   UNL     1      -0.010  -9.854  -0.127  0.00  0.00    +0.297 C 
ATOM      4  O   UNL     1      -0.335  -9.995   1.268  0.00  0.00    -0.270 OA
ATOM      5  N   UNL     1      -1.012  -8.729   1.635  0.00  0.00    -0.178 NA
ATOM      6  H   UNL     1      -1.494  -9.272  -1.440  0.00  0.00    +0.126 HD
ATOM      7  H   UNL     1      -1.607  -8.854   2.440  0.00  0.00    +0.156 HD
ENDROOT
BRANCH   3   8
ATOM      8  C   UNL     1      -0.171 -11.177  -0.830  0.00  0.00    +0.259 C 
ATOM      9  O   UNL     1       0.704 -11.583  -1.565  0.00  0.00    -0.271 OA
ATOM     10  N   UNL     1      -1.287 -11.909  -0.643  0.00  0.00    -0.312 N 
ATOM     11  H   UNL     1      -1.987 -11.584  -0.055  0.00  0.00    +0.149 HD
BRANCH  10  12
ATOM     12  C   UNL     1      -1.443 -13.195  -1.327  0.00  0.00    +0.108 C 
BRANCH  12  13
ATOM     13  C   UNL     1      -2.788 -13.816  -0.944  0.00  0.00    +0.052 C 
BRANCH  13  14
ATOM     14  C   UNL     1      -2.949 -15.139  -1.648  0.00  0.00    -0.040 C 
ATOM     15  C   UNL     1      -2.658 -16.364  -1.153  0.00  0.00    +0.000 A 
ATOM     16  C   UNL     1      -2.125 -16.813   0.138  0.00  0.00    +0.030 A 
ATOM     17  C   UNL     1      -1.935 -18.137   0.345  0.00  0.00    +0.042 A 
ATOM     18  C   UNL     1      -2.235 -19.088  -0.642  0.00  0.00    +0.022 A 
ATOM     19  C   UNL     1      -2.728 -18.751  -1.852  0.00  0.00    +0.027 A 
ATOM     20  C   UNL     1      -2.967 -17.387  -2.177  0.00  0.00    +0.043 A 
ATOM     21  N   UNL     1      -3.430 -16.817  -3.263  0.00  0.00    -0.380 N 
ATOM     22  C   UNL     1      -3.474 -15.367  -3.047  0.00  0.00    +0.144 C 
ATOM     23 CL   UNL     1      -1.304 -18.673   1.871  0.00  0.00    -0.084 Cl
ATOM     24  H   UNL     1      -3.702 -17.278  -4.072  0.00  0.00    +0.160 HD
ENDBRANCH  13  14
ENDBRANCH  12  13
ENDBRANCH  10  12
ENDBRANCH   3   8
BRANCH   1  25
ATOM     25  C   UNL     1      -2.097  -6.923   0.324  0.00  0.00    +0.265 C 
BRANCH  25  26
ATOM     26  O   UNL     1      -0.861  -6.206   0.334  0.00  0.00    -0.489 OA
BRANCH  26  30
ATOM     27  C   UNL     1      -1.081  -2.091   0.092  0.00  0.00    +0.034 A 
ATOM     28  C   UNL     1       0.155  -2.716   0.178  0.00  0.00    +0.027 A 
ATOM     29  C   UNL     1       0.228  -4.093   0.259  0.00  0.00    +0.047 A 
ATOM     30  C   UNL     1      -0.934  -4.850   0.255  0.00  0.00    +0.121 A 
ATOM     31  C   UNL     1      -2.169  -4.226   0.168  0.00  0.00    +0.047 A 
ATOM     32  C   UNL     1      -2.244  -2.849   0.093  0.00  0.00    +0.027 A 
BRANCH  27  36
ATOM     33  C   UNL     1      -2.194   1.470   0.609  0.00  0.00    +0.109 C 
ATOM     34  C   UNL     1      -2.169  -0.037   0.608  0.00  0.00    +0.214 C 
ATOM     35  O   UNL     1      -3.061  -0.658   1.146  0.00  0.00    -0.276 OA
ATOM     36  N   UNL     1      -1.156  -0.694   0.009  0.00  0.00    -0.286 N 
ATOM     37  H   UNL     1      -0.478  -0.200  -0.478  0.00  0.00    +0.155 HD
ENDBRANCH  27  36
ENDBRANCH  26  30
ENDBRANCH  25  26
ENDBRANCH   1  25
TORSDOF 8
