REMARK  Name = ZINC65638748
REMARK  12 active torsions:
REMARK  status: ('A' for Active; 'I' for Inactive)
REMARK    1  A    between atoms: C_1  and  C_2
REMARK    2  A    between atoms: C_2  and  C_3
REMARK    3  A    between atoms: C_3  and  O_4
REMARK    4  A    between atoms: O_4  and  C_5
REMARK    5  A    between atoms: C_7  and  C_26
REMARK    6  A    between atoms: C_10  and  N_11
REMARK    7  A    between atoms: C_12  and  C_14
REMARK    8  A    between atoms: N_16  and  C_17
REMARK    9  A    between atoms: C_17  and  C_18
REMARK   10  A    between atoms: N_21  and  C_23
REMARK   11  A    between atoms: C_23  and  C_24
REMARK   12  A    between atoms: C_23  and  C_25
REMARK                            x       y       z     vdW  Elec       q    Type
REMARK                         _______ _______ _______ _____ _____    ______ ____
ROOT
ATOM      1  N   UNL     1      -1.492  -4.738  -0.009  0.00  0.00    -0.275 N 
ATOM      2  C   UNL     1      -1.545  -6.082   0.086  0.00  0.00    +0.303 C 
ATOM      3  O   UNL     1      -2.619  -6.647   0.093  0.00  0.00    -0.265 OA
ATOM      4  H   UNL     1      -0.634  -4.291  -0.080  0.00  0.00    +0.155 HD
ENDROOT
BRANCH   1  10
ATOM      5  C   UNL     1      -2.704  -2.736   0.603  0.00  0.00    +0.142 A 
ATOM      6  C   UNL     1      -3.876  -1.996   0.598  0.00  0.00    +0.051 A 
ATOM      7  C   UNL     1      -5.013  -2.505  -0.003  0.00  0.00    -0.047 A 
ATOM      8  C   UNL     1      -4.984  -3.751  -0.602  0.00  0.00    +0.005 A 
ATOM      9  C   UNL     1      -3.820  -4.495  -0.602  0.00  0.00    +0.027 A 
ATOM     10  C   UNL     1      -2.674  -3.990  -0.005  0.00  0.00    +0.076 A 
ATOM     11  C   UNL     1      -6.286  -1.699  -0.006  0.00  0.00    +0.044 C 
BRANCH   5  12
ATOM     12  O   UNL     1      -1.586  -2.237   1.193  0.00  0.00    -0.490 OA
BRANCH  12  13
ATOM     13  C   UNL     1      -1.692  -0.945   1.796  0.00  0.00    +0.229 C 
BRANCH  13  15
ATOM     14  C   UNL     1      -0.457   0.828   3.050  0.00  0.00    +0.007 C 
ATOM     15  C   UNL     1      -0.343  -0.554   2.404  0.00  0.00    +0.038 C 
ENDBRANCH  13  15
ENDBRANCH  12  13
ENDBRANCH   5  12
ENDBRANCH   1  10
BRANCH   2  16
ATOM     16  C   UNL     1      -0.283  -6.874   0.183  0.00  0.00    +0.299 C 
ATOM     17  O   UNL     1       0.790  -6.308   0.176  0.00  0.00    -0.265 OA
ATOM     18  N   UNL     1      -0.337  -8.217   0.278  0.00  0.00    -0.307 N 
ATOM     19  H   UNL     1      -1.195  -8.669   0.284  0.00  0.00    +0.149 HD
BRANCH  18  20
ATOM     20  C   UNL     1       0.902  -8.995   0.373  0.00  0.00    +0.106 C 
BRANCH  20  21
ATOM     21  C   UNL     1       0.563 -10.483   0.469  0.00  0.00    -0.012 C 
ATOM     22  C   UNL     1       0.034 -11.015  -0.888  0.00  0.00    -0.015 C 
ATOM     23  C   UNL     1       0.400 -12.517  -0.801  0.00  0.00    -0.078 C 
ATOM     24  N   UNL     1       1.707 -12.548  -0.110  0.00  0.00    +0.381 N 
ATOM     25  C   UNL     1       1.840 -11.320   0.696  0.00  0.00    -0.074 C 
ATOM     26  H   UNL     1       2.450 -12.589  -0.790  0.00  0.00    -0.081 HD
BRANCH  24  27
ATOM     27  C   UNL     1       1.775 -13.724   0.767  0.00  0.00    -0.075 C 
ATOM     28  C   UNL     1       1.650 -14.996  -0.075  0.00  0.00    -0.014 C 
ATOM     29  C   UNL     1       3.114 -13.732   1.507  0.00  0.00    -0.014 C 
ENDBRANCH  24  27
ENDBRANCH  20  21
ENDBRANCH  18  20
ENDBRANCH   2  16
TORSDOF 8
