REMARK  Name = ZINC09459387
REMARK  8 active torsions:
REMARK  status: ('A' for Active; 'I' for Inactive)
REMARK    1  A    between atoms: C_1  and  C_2
REMARK    2  A    between atoms: C_5  and  C_34
REMARK    3  A    between atoms: C_6  and  N_8
REMARK    4  A    between atoms: C_9  and  C_11
REMARK    5  A    between atoms: N_22  and  N_25
REMARK    6  A    between atoms: C_23  and  N_24
REMARK    7  A    between atoms: C_26  and  C_27
REMARK    8  A    between atoms: C_32  and  O_33
REMARK                            x       y       z     vdW  Elec       q    Type
REMARK                         _______ _______ _______ _____ _____    ______ ____
ROOT
ATOM      1  C   UNL     1       0.271  -2.855   4.777  0.00  0.00    +0.105 A 
ATOM      2  C   UNL     1       1.522  -3.281   5.427  0.00  0.00    +0.124 A 
ATOM      3  C   UNL     1       1.107  -3.984   6.644  0.00  0.00    +0.183 A 
ATOM      4  N   UNL     1       2.023  -4.488   7.444  0.00  0.00    -0.224 NA
ATOM      5  C   UNL     1       3.321  -4.354   7.140  0.00  0.00    +0.092 A 
ATOM      6  C   UNL     1       4.306  -4.889   7.990  0.00  0.00    +0.030 A 
ATOM      7  C   UNL     1       5.622  -4.749   7.673  0.00  0.00    +0.002 A 
ATOM      8  C   UNL     1       6.013  -4.079   6.515  0.00  0.00    +0.002 A 
ATOM      9  C   UNL     1       5.090  -3.548   5.669  0.00  0.00    +0.030 A 
ATOM     10  C   UNL     1       3.719  -3.674   5.962  0.00  0.00    +0.090 A 
ATOM     11  N   UNL     1       2.801  -3.154   5.138  0.00  0.00    -0.241 NA
ATOM     12  N   UNL     1      -0.274  -3.956   6.676  0.00  0.00    -0.198 N 
ATOM     13  C   UNL     1      -0.767  -3.293   5.592  0.00  0.00    +0.134 A 
ENDROOT
BRANCH   1  15
ATOM     14  N   UNL     1       0.051  -2.797   2.392  0.00  0.00    -0.281 N 
ATOM     15  C   UNL     1       0.149  -2.135   3.561  0.00  0.00    +0.254 C 
ATOM     16  O   UNL     1       0.133  -0.917   3.574  0.00  0.00    -0.270 OA
ATOM     17  H   UNL     1      -0.017  -3.765   2.387  0.00  0.00    +0.155 HD
BRANCH  14  23
ATOM     18  C   UNL     1       1.264   1.227  -0.158  0.00  0.00    +0.044 C 
ATOM     19  C   UNL     1       0.628  -0.137  -0.079  0.00  0.00    -0.049 A 
ATOM     20  C   UNL     1       0.038  -0.690  -1.201  0.00  0.00    +0.004 A 
ATOM     21  C   UNL     1      -0.546  -1.941  -1.133  0.00  0.00    +0.005 A 
ATOM     22  C   UNL     1      -0.544  -2.643   0.057  0.00  0.00    -0.029 A 
ATOM     23  C   UNL     1       0.047  -2.090   1.185  0.00  0.00    +0.037 A 
ATOM     24  C   UNL     1       0.639  -0.835   1.112  0.00  0.00    +0.027 A 
ATOM     25  C   UNL     1      -1.182  -4.006   0.130  0.00  0.00    +0.045 C 
ENDBRANCH  14  23
ENDBRANCH   1  15
BRANCH  13  26
ATOM     26  N   UNL     1      -2.100  -3.090   5.340  0.00  0.00    -0.342 N 
ATOM     27  H   UNL     1      -2.375  -2.610   4.543  0.00  0.00    +0.144 HD
ATOM     28  H   UNL     1      -2.768  -3.427   5.957  0.00  0.00    +0.144 HD
ENDBRANCH  13  26
BRANCH  12  29
ATOM     29  N   UNL     1      -1.059  -4.526   7.687  0.00  0.00    -0.171 NA
ATOM     30  C   UNL     1      -1.389  -3.822   8.726  0.00  0.00    +0.145 C 
BRANCH  30  31
ATOM     31  C   UNL     1      -2.215  -4.421   9.790  0.00  0.00    +0.036 A 
ATOM     32  C   UNL     1      -2.578  -3.666  10.907  0.00  0.00    +0.013 A 
ATOM     33  C   UNL     1      -3.350  -4.233  11.899  0.00  0.00    +0.001 A 
ATOM     34  C   UNL     1      -3.769  -5.548  11.791  0.00  0.00    +0.004 A 
ATOM     35  C   UNL     1      -3.417  -6.306  10.691  0.00  0.00    +0.046 A 
ATOM     36  C   UNL     1      -2.646  -5.751   9.683  0.00  0.00    +0.125 A 
BRANCH  36  37
ATOM     37  O   UNL     1      -2.304  -6.493   8.598  0.00  0.00    -0.506 OA
ATOM     38  H   UNL     1      -1.474  -6.978   8.699  0.00  0.00    +0.292 HD
ENDBRANCH  36  37
ENDBRANCH  30  31
ENDBRANCH  12  29
TORSDOF 6
