REMARK  Name = ZINC01332685
REMARK  7 active torsions:
REMARK  status: ('A' for Active; 'I' for Inactive)
REMARK    1  A    between atoms: C_1  and  N_2
REMARK    2  A    between atoms: C_3  and  C_17
REMARK    3  A    between atoms: C_6  and  S_7
REMARK    4  A    between atoms: S_7  and  C_8
REMARK    5  A    between atoms: C_8  and  C_9
REMARK    6  A    between atoms: C_14  and  C_15
REMARK    7  A    between atoms: C_22  and  O_23
REMARK                            x       y       z     vdW  Elec       q    Type
REMARK                         _______ _______ _______ _____ _____    ______ ____
ROOT
ATOM      1  C   UNL     1       0.115   1.459  -0.003  0.00  0.00    +0.153 C 
ATOM      2  N   UNL     1       0.061  -0.005  -0.004  0.00  0.00    -0.305 N 
ATOM      3  C   UNL     1      -0.087  -0.831  -1.094  0.00  0.00    +0.168 A 
ATOM      4  N   UNL     1      -0.084  -2.065  -0.646  0.00  0.00    -0.128 NA
ATOM      5  N   UNL     1       0.053  -2.067   0.632  0.00  0.00    -0.122 NA
ATOM      6  C   UNL     1       0.152  -0.835   1.078  0.00  0.00    +0.192 A 
ENDROOT
BRANCH   3   7
ATOM      7  C   UNL     1      -0.224  -0.409  -2.504  0.00  0.00    +0.061 A 
ATOM      8  C   UNL     1       0.645   0.544  -3.038  0.00  0.00    +0.015 A 
ATOM      9  C   UNL     1       0.512   0.934  -4.354  0.00  0.00    +0.001 A 
ATOM     10  C   UNL     1      -0.479   0.384  -5.149  0.00  0.00    +0.004 A 
ATOM     11  C   UNL     1      -1.345  -0.561  -4.630  0.00  0.00    +0.046 A 
ATOM     12  C   UNL     1      -1.222  -0.967  -3.312  0.00  0.00    +0.128 A 
BRANCH  12  13
ATOM     13  O   UNL     1      -2.068  -1.900  -2.804  0.00  0.00    -0.506 OA
ATOM     14  H   UNL     1      -2.870  -1.530  -2.410  0.00  0.00    +0.292 HD
ENDBRANCH  12  13
ENDBRANCH   3   7
BRANCH   6  15
ATOM     15  S   UNL     1       0.359  -0.344   2.757  0.00  0.00    -0.081 S 
BRANCH  15  16
ATOM     16  C   UNL     1       0.404  -1.911   3.670  0.00  0.00    +0.113 C 
BRANCH  16  17
ATOM     17  C   UNL     1       0.580  -1.631   5.140  0.00  0.00    -0.020 A 
ATOM     18  C   UNL     1       1.846  -1.541   5.680  0.00  0.00    +0.006 A 
ATOM     19  C   UNL     1       2.009  -1.284   7.030  0.00  0.00    +0.000 A 
ATOM     20  C   UNL     1       0.905  -1.117   7.847  0.00  0.00    +0.001 A 
ATOM     21  C   UNL     1      -0.367  -1.205   7.321  0.00  0.00    +0.019 A 
ATOM     22  C   UNL     1      -0.539  -1.458   5.958  0.00  0.00    +0.056 A 
BRANCH  22  23
ATOM     23  C   UNL     1      -1.856  -1.544   5.403  0.00  0.00    +0.099 C 
ATOM     24  N   UNL     1      -2.901  -1.613   4.963  0.00  0.00    -0.191 NA
ENDBRANCH  22  23
ENDBRANCH  16  17
ENDBRANCH  15  16
ENDBRANCH   6  15
TORSDOF 6
