REMARK  Name = ZINC65403487
REMARK  8 active torsions:
REMARK  status: ('A' for Active; 'I' for Inactive)
REMARK    1  A    between atoms: C_1  and  C_2
REMARK    2  A    between atoms: C_2  and  C_3
REMARK    3  A    between atoms: C_6  and  C_20
REMARK    4  A    between atoms: C_8  and  N_9
REMARK    5  A    between atoms: N_9  and  C_10
REMARK    6  A    between atoms: C_10  and  C_11
REMARK    7  A    between atoms: C_12  and  C_19
REMARK    8  A    between atoms: C_14  and  C_17
REMARK                            x       y       z     vdW  Elec       q    Type
REMARK                         _______ _______ _______ _____ _____    ______ ____
ROOT
ATOM      1  N   UNL     1       3.310  -0.071  -0.595  0.00  0.00    -0.323 N 
ATOM      2  H   UNL     1       2.771   0.314   0.114  0.00  0.00    +0.148 HD
ENDROOT
BRANCH   1   8
ATOM      3  C   UNL     1       1.392  -0.068  -2.063  0.00  0.00    +0.010 A 
ATOM      4  C   UNL     1       0.873  -0.352  -3.311  0.00  0.00    +0.119 A 
ATOM      5  N   UNL     1       1.663  -0.878  -4.236  0.00  0.00    -0.240 NA
ATOM      6  C   UNL     1       2.932  -1.131  -3.981  0.00  0.00    +0.128 A 
ATOM      7  N   UNL     1       3.468  -0.876  -2.805  0.00  0.00    -0.218 NA
ATOM      8  C   UNL     1       2.741  -0.343  -1.828  0.00  0.00    +0.126 A 
ATOM      9  C   UNL     1       3.791  -1.729  -5.065  0.00  0.00    +0.088 C 
BRANCH   3  11
ATOM     10  C   UNL     1       0.679   2.052  -0.992  0.00  0.00    +0.009 C 
ATOM     11  C   UNL     1       0.526   0.530  -0.984  0.00  0.00    +0.037 C 
ENDBRANCH   3  11
ENDBRANCH   1   8
BRANCH   1  12
ATOM     12  C   UNL     1       4.726  -0.364  -0.361  0.00  0.00    +0.156 C 
BRANCH  12  13
ATOM     13  C   UNL     1       5.093   0.022   1.049  0.00  0.00    +0.040 A 
ATOM     14  C   UNL     1       5.445  -0.936   1.934  0.00  0.00    +0.017 A 
ATOM     15  C   UNL     1       5.788  -0.564   3.255  0.00  0.00    +0.188 A 
ATOM     16  C   UNL     1       5.751   0.806   3.605  0.00  0.00    +0.012 A 
ATOM     17  C   UNL     1       5.390   1.716   2.674  0.00  0.00    +0.089 A 
ATOM     18  N   UNL     1       5.072   1.328   1.414  0.00  0.00    -0.362 N 
ATOM     19  C   UNL     1       6.108   1.247   5.001  0.00  0.00    +0.049 C 
ATOM     20  O   UNL     1       6.111  -1.409   4.077  0.00  0.00    -0.287 OA
ATOM     21  C   UNL     1       5.472  -2.385   1.519  0.00  0.00    +0.049 C 
ATOM     22  H   UNL     1       4.819   1.999   0.760  0.00  0.00    +0.165 HD
ENDBRANCH  12  13
ENDBRANCH   1  12
TORSDOF 4
