REMARK  Name = ZINC42439608
REMARK  8 active torsions:
REMARK  status: ('A' for Active; 'I' for Inactive)
REMARK    1  A    between atoms: C_1  and  C_2
REMARK    2  A    between atoms: C_6  and  C_22
REMARK    3  A    between atoms: N_12  and  CA_13
REMARK    4  A    between atoms: CA_13  and  C_15
REMARK    5  A    between atoms: CA_13  and  C_18
REMARK    6  A    between atoms: C_18  and  C_19
REMARK    7  A    between atoms: C_18  and  C_20
REMARK    8  A    between atoms: C_18  and  C_21
REMARK                            x       y       z     vdW  Elec       q    Type
REMARK                         _______ _______ _______ _____ _____    ______ ____
ROOT
ATOM      1  C   UNL     1      -0.017   1.526   0.009  0.00  0.00    +0.028 C 
ATOM      2  C   UNL     1       0.001  -0.004   0.003  0.00  0.00    +0.074 C 
ATOM      3  C   UNL     1      -1.429  -0.535   0.149  0.00  0.00    +0.023 C 
ATOM      4  C   UNL     1      -1.392  -2.059   0.282  0.00  0.00    +0.016 C 
ATOM      5  C   UNL     1      -0.604  -2.444   1.536  0.00  0.00    +0.092 C 
ATOM      6  C   UNL     1       0.835  -1.935   1.406  0.00  0.00    +0.122 C 
ATOM      7  N   UNL     1       0.806  -0.492   1.131  0.00  0.00    -0.282 N 
ATOM      8  C   UNL     1       1.502   0.368   1.901  0.00  0.00    +0.303 C 
ATOM      9  O   UNL     1       1.395   1.567   1.723  0.00  0.00    -0.253 OA
ATOM     10  N   UNL     1       2.316  -0.099   2.868  0.00  0.00    -0.285 N 
ATOM     11  H   UNL     1       2.458  -1.054   2.962  0.00  0.00    +0.151 HD
ENDROOT
BRANCH   5  12
ATOM     12  C   UNL     1      -0.596  -3.944   1.684  0.00  0.00    +0.215 C 
ATOM     13  O   UNL     1      -1.165  -4.637   0.868  0.00  0.00    -0.276 OA
ATOM     14  N   UNL     1       0.043  -4.515   2.725  0.00  0.00    -0.329 N 
ATOM     15  H   UNL     1       0.497  -3.961   3.378  0.00  0.00    +0.145 HD
ATOM     16  H   UNL     1       0.048  -5.480   2.820  0.00  0.00    +0.145 HD
ENDBRANCH   5  12
BRANCH  10  17
ATOM     17  CA  UNL     1       2.985   0.835   3.777  0.00  0.00    +0.193 C 
BRANCH  17  18
ATOM     18  C   UNL     1       4.258   0.188   4.326  0.00  0.00    -0.009 C 
ATOM     19  C   UNL     1       5.196  -0.155   3.167  0.00  0.00    +0.013 C 
ATOM     20  C   UNL     1       4.957   1.163   5.276  0.00  0.00    +0.013 C 
ATOM     21  C   UNL     1       3.895  -1.090   5.084  0.00  0.00    +0.013 C 
ENDBRANCH  17  18
BRANCH  17  22
ATOM     22  C   UNL     1       2.061   1.173   4.919  0.00  0.00    +0.376 C 
ATOM     23  O   UNL     1       1.025   0.548   5.071  0.00  0.00    -0.244 OA
ATOM     24  OXT UNL     1       2.349   2.071   5.691  0.00  0.00    -0.244 OA
ENDBRANCH  17  22
ENDBRANCH  10  17
TORSDOF 4
