REMARK  Name = ZINC39462183
REMARK  6 active torsions:
REMARK  status: ('A' for Active; 'I' for Inactive)
REMARK    1  A    between atoms: C_1  and  C_2
REMARK    2  A    between atoms: N_11  and  C_12
REMARK    3  A    between atoms: C_12  and  C_13
REMARK    4  A    between atoms: N_15  and  C_16
REMARK    5  A    between atoms: C_21  and  C_26
REMARK    6  A    between atoms: C_27  and  C_30
REMARK                            x       y       z     vdW  Elec       q    Type
REMARK                         _______ _______ _______ _____ _____    ______ ____
ROOT
ATOM      1  C   UNL     1       0.766  -0.496   3.616  0.00  0.00    +0.199 C 
ATOM      2  O   UNL     1       1.841  -1.044   3.494  0.00  0.00    -0.278 OA
ATOM      3  N   UNL     1       0.278  -0.236   4.845  0.00  0.00    -0.288 N 
ATOM      4  H   UNL     1      -0.582   0.202   4.943  0.00  0.00    +0.151 HD
ENDROOT
BRANCH   3   5
ATOM      5  C   UNL     1       1.046  -0.617   6.034  0.00  0.00    +0.243 C 
ATOM      6  C   UNL     1       0.122  -1.135   7.105  0.00  0.00    +0.072 A 
ATOM      7  H   UNL     1      -1.774  -3.336   8.564  0.00  0.00    +0.192 HD
ATOM      8  C   UNL     1      -0.053  -0.137   8.022  0.00  0.00    +0.016 A 
ATOM      9  C   UNL     1      -0.881  -0.380   9.124  0.00  0.00    +0.065 A 
ATOM     10  N   UNL     1      -1.465  -1.541   9.260  0.00  0.00    -0.176 NA
ATOM     11  N   UNL     1      -1.316  -2.494   8.413  0.00  0.00    -0.243 N 
ATOM     12  C   UNL     1      -0.539  -2.357   7.319  0.00  0.00    +0.272 A 
ATOM     13  O   UNL     1      -0.413  -3.278   6.528  0.00  0.00    -0.266 OA
ATOM     14  C   UNL     1      -1.097   0.697  10.156  0.00  0.00    +0.068 C 
ATOM     15  C   UNL     1       0.754   1.050   7.563  0.00  0.00    +0.150 C 
ATOM     16  O   UNL     1       1.695   0.540   6.596  0.00  0.00    -0.347 OA
ATOM     17  C   UNL     1      -0.161   2.090   6.912  0.00  0.00    +0.043 C 
ENDBRANCH   3   5
BRANCH   1  18
ATOM     18  C   UNL     1      -0.024  -0.105   2.394  0.00  0.00    +0.019 C 
BRANCH  18  28
ATOM     19  C   UNL     1      -0.019   1.526   0.010  0.00  0.00    -0.008 C 
ATOM     20  C   UNL     1       0.002  -0.004   0.002  0.00  0.00    -0.039 C 
ATOM     21  C   UNL     1       0.722  -0.499  -1.248  0.00  0.00    -0.051 A 
ATOM     22  C   UNL     1       0.571   0.069  -2.511  0.00  0.00    +0.010 A 
ATOM     23  C   UNL     1       1.253  -0.435  -3.566  0.00  0.00    +0.045 A 
ATOM     24  S   UNL     1       2.167  -1.773  -2.810  0.00  0.00    -0.101 S 
ATOM     25  C   UNL     1       1.572  -1.560  -1.157  0.00  0.00    -0.010 A 
ATOM     26  C   UNL     1       1.893  -2.335   0.080  0.00  0.00    +0.024 C 
ATOM     27  C   UNL     1       0.853  -1.956   1.148  0.00  0.00    -0.072 C 
ATOM     28  N   UNL     1       0.718  -0.493   1.187  0.00  0.00    +0.390 N 
ATOM     29  H   UNL     1       1.637  -0.077   1.214  0.00  0.00    -0.080 HD
ENDBRANCH  18  28
ENDBRANCH   1  18
TORSDOF 3
