REMARK  Name = ZINC16591191
REMARK  11 active torsions:
REMARK  status: ('A' for Active; 'I' for Inactive)
REMARK    1  A    between atoms: C_1  and  C_2
REMARK    2  A    between atoms: C_2  and  C_3
REMARK    3  A    between atoms: C_2  and  C_4
REMARK    4  A    between atoms: C_4  and  N_5
REMARK    5  A    between atoms: N_5  and  C_6
REMARK    6  A    between atoms: C_7  and  N_22
REMARK    7  A    between atoms: N_8  and  C_15
REMARK    8  A    between atoms: C_15  and  C_16
REMARK    9  A    between atoms: C_23  and  C_25
REMARK   10  A    between atoms: C_25  and  N_64
REMARK   11  A    between atoms: C_29  and  C_32
REMARK                            x       y       z     vdW  Elec       q    Type
REMARK                         _______ _______ _______ _____ _____    ______ ____
ROOT
ATOM      1  N   UNL     1       4.701   2.562  -4.064  0.00  0.00    -0.266 N 
ATOM      2  C   UNL     1       5.138   1.470  -3.402  0.00  0.00    +0.203 C 
ATOM      3  O   UNL     1       4.590   1.121  -2.377  0.00  0.00    -0.277 OA
ENDROOT
BRANCH   1   4
ATOM      4  C   UNL     1       3.672   3.355  -3.514  0.00  0.00    +0.140 A 
ATOM      5  C   UNL     1       2.461   3.484  -4.163  0.00  0.00    +0.128 A 
ATOM      6  N   UNL     1       1.479   4.269  -3.605  0.00  0.00    -0.276 N 
ATOM      7  C   UNL     1       1.692   4.894  -2.433  0.00  0.00    +0.331 A 
ATOM      8  O   UNL     1       0.810   5.580  -1.953  0.00  0.00    -0.246 OA
ATOM      9  N   UNL     1       2.863   4.775  -1.782  0.00  0.00    -0.273 N 
ATOM     10  H   UNL     1       2.996   5.250  -0.912  0.00  0.00    +0.173 HD
ATOM     11  C   UNL     1       3.860   4.024  -2.289  0.00  0.00    +0.277 A 
ATOM     12  O   UNL     1       4.918   3.923  -1.692  0.00  0.00    -0.266 OA
BRANCH   5  13
ATOM     13  N   UNL     1       2.241   2.840  -5.357  0.00  0.00    -0.343 N 
ATOM     14  H   UNL     1       1.424   3.004  -5.854  0.00  0.00    +0.144 HD
ATOM     15  H   UNL     1       2.903   2.221  -5.704  0.00  0.00    +0.144 HD
ENDBRANCH   5  13
BRANCH   6  16
ATOM     16  C   UNL     1       0.192   4.419  -4.287  0.00  0.00    +0.163 C 
BRANCH  16  17
ATOM     17  C   UNL     1       0.251   5.603  -5.217  0.00  0.00    -0.028 A 
ATOM     18  C   UNL     1       0.663   5.434  -6.526  0.00  0.00    +0.005 A 
ATOM     19  C   UNL     1       0.717   6.521  -7.379  0.00  0.00    +0.000 A 
ATOM     20  C   UNL     1       0.364   7.777  -6.922  0.00  0.00    +0.000 A 
ATOM     21  C   UNL     1      -0.051   7.945  -5.614  0.00  0.00    +0.000 A 
ATOM     22  C   UNL     1      -0.106   6.859  -4.761  0.00  0.00    +0.005 A 
ENDBRANCH  16  17
ENDBRANCH   6  16
ENDBRANCH   1   4
BRANCH   1  23
ATOM     23  C   UNL     1       5.294   2.923  -5.354  0.00  0.00    +0.117 C 
BRANCH  23  25
ATOM     24  C   UNL     1       7.270   3.983  -6.455  0.00  0.00    +0.009 C 
ATOM     25  C   UNL     1       6.564   3.743  -5.119  0.00  0.00    +0.001 C 
ATOM     26  C   UNL     1       6.195   5.087  -4.488  0.00  0.00    +0.009 C 
ENDBRANCH  23  25
ENDBRANCH   1  23
BRANCH   2  27
ATOM     27  C   UNL     1       6.309   0.685  -3.934  0.00  0.00    +0.019 C 
BRANCH  27  33
ATOM     28  C   UNL     1       7.582  -1.348  -3.608  0.00  0.00    -0.078 C 
ATOM     29  C   UNL     1       7.781  -2.543  -2.674  0.00  0.00    -0.018 C 
ATOM     30  C   UNL     1       8.309  -2.048  -1.324  0.00  0.00    +0.008 C 
ATOM     31  C   UNL     1       7.322  -1.033  -0.741  0.00  0.00    +0.077 C 
ATOM     32  C   UNL     1       7.136   0.119  -1.731  0.00  0.00    -0.066 C 
ATOM     33  N   UNL     1       6.604  -0.421  -3.000  0.00  0.00    +0.386 N 
ATOM     34  H   UNL     1       5.736  -0.934  -2.806  0.00  0.00    -0.081 HD
BRANCH  31  35
ATOM     35  C   UNL     1       7.870  -0.488   0.580  0.00  0.00    +0.391 C 
ATOM     36  F   UNL     1       6.970   0.443   1.110  0.00  0.00    -0.171 F 
ATOM     37  F   UNL     1       8.039  -1.541   1.485  0.00  0.00    -0.171 F 
ATOM     38  F   UNL     1       9.103   0.133   0.351  0.00  0.00    -0.171 F 
ENDBRANCH  31  35
ENDBRANCH  27  33
ENDBRANCH   2  27
TORSDOF 9
