REMARK  Name = ZINC12319827
REMARK  6 active torsions:
REMARK  status: ('A' for Active; 'I' for Inactive)
REMARK    1  A    between atoms: C_1  and  C_2
REMARK    2  A    between atoms: C_7  and  N_8
REMARK    3  A    between atoms: N_11  and  C_14
REMARK    4  A    between atoms: C_15  and  C_19
REMARK    5  A    between atoms: C_19  and  N_20
REMARK    6  A    between atoms: C_21  and  C_23
REMARK                            x       y       z     vdW  Elec       q    Type
REMARK                         _______ _______ _______ _____ _____    ______ ____
ROOT
ATOM      1  C   UNL     1       0.231   1.118   6.551  0.00  0.00    +0.104 A 
ATOM      2  C   UNL     1       1.208   0.753   7.472  0.00  0.00    +0.008 A 
ATOM      3  C   UNL     1       1.164   1.288   8.746  0.00  0.00    +0.010 A 
ATOM      4  C   UNL     1       0.141   2.173   9.058  0.00  0.00    +0.018 A 
ATOM      5  C   UNL     1      -0.795   2.491   8.095  0.00  0.00    +0.084 A 
ATOM      6  N   UNL     1      -0.780   1.990   6.831  0.00  0.00    -0.349 N 
ATOM      7  H   UNL     1      -1.484   2.251   6.132  0.00  0.00    +0.167 HD
ENDROOT
BRANCH   1  11
ATOM      8  N   UNL     1      -0.698   0.179   2.617  0.00  0.00    -0.327 N 
ATOM      9  C   UNL     1       0.476   1.028   2.867  0.00  0.00    +0.124 C 
ATOM     10  C   UNL     1       0.363   1.654   4.259  0.00  0.00    +0.125 C 
ATOM     11  N   UNL     1       0.264   0.588   5.266  0.00  0.00    -0.313 N 
ATOM     12  C   UNL     1      -0.910  -0.261   5.016  0.00  0.00    +0.125 C 
ATOM     13  C   UNL     1      -0.797  -0.886   3.624  0.00  0.00    +0.124 C 
BRANCH   8  20
ATOM     14  C   UNL     1      -2.754   0.934   0.802  0.00  0.00    +0.045 C 
ATOM     15  C   UNL     1      -1.649  -0.012   0.408  0.00  0.00    -0.029 A 
ATOM     16  C   UNL     1      -1.617  -0.545  -0.866  0.00  0.00    +0.005 A 
ATOM     17  C   UNL     1      -0.601  -1.409  -1.230  0.00  0.00    +0.000 A 
ATOM     18  C   UNL     1       0.380  -1.751  -0.318  0.00  0.00    +0.002 A 
ATOM     19  C   UNL     1       0.351  -1.226   0.959  0.00  0.00    +0.023 A 
ATOM     20  C   UNL     1      -0.665  -0.353   1.327  0.00  0.00    +0.033 A 
ENDBRANCH   8  20
ENDBRANCH   1  11
BRANCH   2  21
ATOM     21  C   UNL     1       2.299  -0.212   7.086  0.00  0.00    +0.143 C 
BRANCH  21  22
ATOM     22  N   UNL     1       3.303   0.484   6.277  0.00  0.00    -0.310 N 
ATOM     23  C   UNL     1       4.327  -0.205   5.734  0.00  0.00    +0.234 C 
ATOM     24  O   UNL     1       4.463  -1.384   5.981  0.00  0.00    -0.274 OA
ATOM     25  H   UNL     1       3.231   1.440   6.133  0.00  0.00    +0.149 HD
BRANCH  23  26
ATOM     26  C   UNL     1       5.301   0.491   4.819  0.00  0.00    +0.159 C 
ATOM     27  C   UNL     1       4.706   0.616   3.399  0.00  0.00    +0.041 C 
ATOM     28  C   UNL     1       5.268  -0.649   2.709  0.00  0.00    +0.098 C 
ATOM     29  C   UNL     1       6.522  -0.972   3.491  0.00  0.00    +0.214 C 
ATOM     30  O   UNL     1       7.404  -1.713   3.113  0.00  0.00    -0.276 OA
ATOM     31  N   UNL     1       6.517  -0.316   4.664  0.00  0.00    -0.304 N 
ATOM     32  H   UNL     1       7.226  -0.369   5.324  0.00  0.00    +0.149 HD
ENDBRANCH  23  26
ENDBRANCH  21  22
ENDBRANCH   2  21
TORSDOF 5
