REMARK  Name = ZINC04863118
REMARK  6 active torsions:
REMARK  status: ('A' for Active; 'I' for Inactive)
REMARK    1  A    between atoms: C_1  and  O_2
REMARK    2  A    between atoms: O_2  and  C_3
REMARK    3  A    between atoms: C_12  and  C_14
REMARK    4  A    between atoms: N_18  and  N_19
REMARK    5  A    between atoms: C_20  and  C_21
REMARK    6  A    between atoms: C_26  and  O_27
REMARK                            x       y       z     vdW  Elec       q    Type
REMARK                         _______ _______ _______ _____ _____    ______ ____
ROOT
ATOM      1  C   UNL     1       1.093  -6.258   1.053  0.00  0.00    +0.062 A 
ATOM      2  C   UNL     1       0.758  -6.914  -0.081  0.00  0.00    +0.075 A 
ATOM      3  S   UNL     1       0.966  -8.621   0.400  0.00  0.00    -0.056 S 
ATOM      4  C   UNL     1       1.488  -8.342   2.085  0.00  0.00    +0.192 A 
ATOM      5  N   UNL     1       1.811  -9.224   3.017  0.00  0.00    -0.124 NA
ATOM      6  N   UNL     1       1.470  -6.969   2.157  0.00  0.00    -0.332 N 
ATOM      7  H   UNL     1       1.718  -6.514   2.977  0.00  0.00    +0.168 HD
ENDROOT
BRANCH   1  17
ATOM      8  C   UNL     1       0.626  -0.619   1.042  0.00  0.00    +0.163 A 
ATOM      9  C   UNL     1       1.202   0.135   2.051  0.00  0.00    +0.049 A 
ATOM     10  C   UNL     1       1.839  -0.483   3.117  0.00  0.00    +0.004 A 
ATOM     11  C   UNL     1       1.912  -1.846   3.189  0.00  0.00    +0.012 A 
ATOM     12  C   UNL     1       1.339  -2.628   2.179  0.00  0.00    +0.022 A 
ATOM     13  C   UNL     1       0.684  -2.008   1.100  0.00  0.00    +0.180 A 
ATOM     14  O   UNL     1       0.119  -2.767   0.130  0.00  0.00    -0.418 OA
ATOM     15  C   UNL     1       0.656  -3.990  -0.081  0.00  0.00    +0.347 A 
ATOM     16  O   UNL     1       0.803  -4.424  -1.208  0.00  0.00    -0.244 OA
ATOM     17  C   UNL     1       1.058  -4.783   1.096  0.00  0.00    +0.084 A 
ATOM     18  C   UNL     1       1.410  -4.090   2.230  0.00  0.00    +0.028 A 
BRANCH   8  20
ATOM     19  C   UNL     1      -0.017   1.425   0.010  0.00  0.00    +0.277 C 
ATOM     20  O   UNL     1       0.002  -0.004   0.002  0.00  0.00    -0.491 OA
ENDBRANCH   8  20
ENDBRANCH   1  17
BRANCH   5  21
ATOM     21  N   UNL     1       1.769 -10.486   2.753  0.00  0.00    -0.154 NA
ATOM     22  C   UNL     1       2.088 -11.358   3.674  0.00  0.00    +0.146 C 
BRANCH  22  23
ATOM     23  C   UNL     1       2.040 -12.796   3.373  0.00  0.00    +0.036 A 
ATOM     24  C   UNL     1       2.375 -13.732   4.356  0.00  0.00    +0.013 A 
ATOM     25  C   UNL     1       2.328 -15.079   4.067  0.00  0.00    +0.001 A 
ATOM     26  C   UNL     1       1.951 -15.510   2.806  0.00  0.00    +0.004 A 
ATOM     27  C   UNL     1       1.618 -14.594   1.824  0.00  0.00    +0.046 A 
ATOM     28  C   UNL     1       1.653 -13.238   2.098  0.00  0.00    +0.125 A 
BRANCH  28  29
ATOM     29  O   UNL     1       1.320 -12.338   1.136  0.00  0.00    -0.506 OA
ATOM     30  H   UNL     1       2.065 -12.050   0.592  0.00  0.00    +0.292 HD
ENDBRANCH  28  29
ENDBRANCH  22  23
ENDBRANCH   5  21
TORSDOF 5
