REMARK  Name = ZINC58235566
REMARK  7 active torsions:
REMARK  status: ('A' for Active; 'I' for Inactive)
REMARK    1  A    between atoms: C_1  and  C_2
REMARK    2  A    between atoms: C_2  and  C_3
REMARK    3  A    between atoms: C_2  and  N_14
REMARK    4  A    between atoms: C_8  and  N_9
REMARK    5  A    between atoms: N_9  and  S_10
REMARK    6  A    between atoms: S_10  and  C_13
REMARK    7  A    between atoms: C_15  and  C_17
REMARK                            x       y       z     vdW  Elec       q    Type
REMARK                         _______ _______ _______ _____ _____    ______ ____
ROOT
ATOM      1  N   UNL     1       0.688  -0.476  -1.203  0.00  0.00    -0.305 N 
ATOM      2  C   UNL     1       0.006  -0.608  -2.358  0.00  0.00    +0.244 C 
ATOM      3  O   UNL     1      -1.179  -0.335  -2.400  0.00  0.00    -0.270 OA
ATOM      4  H   UNL     1       1.632  -0.695  -1.170  0.00  0.00    +0.150 HD
ENDROOT
BRANCH   2   5
ATOM      5  C   UNL     1       0.691  -1.080  -3.562  0.00  0.00    +0.052 C 
ATOM      6  C   UNL     1       0.009  -1.208  -4.727  0.00  0.00    +0.023 C 
ATOM      7  C   UNL     1       0.742  -1.706  -5.901  0.00  0.00    +0.017 A 
ATOM      8  C   UNL     1       0.235  -1.560  -7.192  0.00  0.00    +0.011 A 
ATOM      9  C   UNL     1       0.958  -2.041  -8.264  0.00  0.00    +0.001 A 
ATOM     10  C   UNL     1       2.178  -2.666  -8.063  0.00  0.00    +0.004 A 
ATOM     11  C   UNL     1       2.690  -2.816  -6.787  0.00  0.00    +0.046 A 
ATOM     12  C   UNL     1       1.980  -2.340  -5.699  0.00  0.00    +0.128 A 
ATOM     13  O   UNL     1       2.455  -2.472  -4.436  0.00  0.00    -0.487 OA
ATOM     14  C   UNL     1       2.158  -1.419  -3.514  0.00  0.00    +0.269 C 
ENDBRANCH   2   5
BRANCH   1  16
ATOM     15  C   UNL     1      -0.019   1.526   0.010  0.00  0.00    +0.033 C 
ATOM     16  C   UNL     1       0.002  -0.004   0.002  0.00  0.00    +0.102 C 
BRANCH  16  17
ATOM     17  C   UNL     1       0.731  -0.503   1.223  0.00  0.00    -0.003 A 
ATOM     18  C   UNL     1       2.076  -0.808   1.149  0.00  0.00    +0.007 A 
ATOM     19  C   UNL     1       2.745  -1.267   2.268  0.00  0.00    +0.000 A 
ATOM     20  C   UNL     1       2.071  -1.421   3.466  0.00  0.00    +0.002 A 
ATOM     21  C   UNL     1       0.727  -1.118   3.547  0.00  0.00    +0.027 A 
ATOM     22  C   UNL     1       0.052  -0.652   2.425  0.00  0.00    +0.079 A 
BRANCH  22  23
ATOM     23  N   UNL     1      -1.307  -0.339   2.506  0.00  0.00    -0.103 NA
BRANCH  23  24
ATOM     24  S   UNL     1      -2.114  -0.517   3.940  0.00  0.00    +0.059 S 
ATOM     25  O   UNL     1      -2.069  -1.912   4.211  0.00  0.00    -0.154 OA
ATOM     26  O   UNL     1      -1.498   0.412   4.821  0.00  0.00    -0.154 OA
ATOM     27  C   UNL     1      -3.818  -0.006   3.583  0.00  0.00    +0.220 C 
ENDBRANCH  23  24
ENDBRANCH  22  23
ENDBRANCH  16  17
ENDBRANCH   1  16
TORSDOF 5
