REMARK  Name = ZINC13371715
REMARK  5 active torsions:
REMARK  status: ('A' for Active; 'I' for Inactive)
REMARK    1  A    between atoms: C_1  and  C_2
REMARK    2  A    between atoms: C_2  and  C_3
REMARK    3  A    between atoms: C_2  and  N_4
REMARK    4  A    between atoms: N_12  and  N_13
REMARK    5  A    between atoms: C_14  and  C_16
REMARK                            x       y       z     vdW  Elec       q    Type
REMARK                         _______ _______ _______ _____ _____    ______ ____
ROOT
ATOM      1  N   UNL     1      -1.348  -0.593   0.051  0.00  0.00    -0.263 N 
ATOM      2  C   UNL     1      -1.968  -1.151  -1.062  0.00  0.00    +0.046 A 
ATOM      3  C   UNL     1      -1.481  -1.489  -2.319  0.00  0.00    +0.024 A 
ATOM      4  C   UNL     1      -2.323  -2.040  -3.264  0.00  0.00    +0.002 A 
ATOM      5  C   UNL     1      -3.659  -2.262  -2.974  0.00  0.00    +0.001 A 
ATOM      6  C   UNL     1      -4.161  -1.932  -1.731  0.00  0.00    +0.012 A 
ATOM      7  C   UNL     1      -3.320  -1.377  -0.773  0.00  0.00    +0.028 A 
ATOM      8  C   UNL     1      -3.533  -0.921   0.621  0.00  0.00    +0.153 C 
ATOM      9  N   UNL     1      -4.649  -0.945   1.307  0.00  0.00    -0.174 NA
ATOM     10  C   UNL     1      -2.211  -0.439   1.069  0.00  0.00    +0.272 C 
ATOM     11  O   UNL     1      -1.949   0.019   2.166  0.00  0.00    -0.268 OA
ENDROOT
BRANCH   9  12
ATOM     12  N   UNL     1      -5.786  -1.566   0.774  0.00  0.00    -0.203 N 
ATOM     13  C   UNL     1      -6.964  -1.486   1.423  0.00  0.00    +0.276 C 
ATOM     14  O   UNL     1      -7.041  -0.875   2.468  0.00  0.00    -0.270 OA
ATOM     15  H   UNL     1      -5.725  -2.054  -0.062  0.00  0.00    +0.177 HD
BRANCH  13  16
ATOM     16  C   UNL     1      -8.187  -2.154   0.850  0.00  0.00    +0.297 C 
ATOM     17  C   UNL     1      -7.994  -3.676   0.853  0.00  0.00    +0.283 C 
ATOM     18  O   UNL     1      -9.177  -4.279   0.316  0.00  0.00    -0.484 OA
ATOM     19  C   UNL     1     -10.367  -3.817   0.789  0.00  0.00    +0.162 A 
ATOM     20  C   UNL     1     -11.514  -4.575   0.602  0.00  0.00    +0.049 A 
ATOM     21  C   UNL     1     -12.730  -4.118   1.073  0.00  0.00    +0.004 A 
ATOM     22  C   UNL     1     -12.807  -2.905   1.732  0.00  0.00    +0.004 A 
ATOM     23  C   UNL     1     -11.668  -2.146   1.923  0.00  0.00    +0.049 A 
ATOM     24  C   UNL     1     -10.444  -2.600   1.454  0.00  0.00    +0.163 A 
ATOM     25  O   UNL     1      -9.329  -1.845   1.656  0.00  0.00    -0.472 OA
ENDBRANCH  13  16
ENDBRANCH   9  12
BRANCH   1  27
ATOM     26  C   UNL     1       0.196   1.272   0.395  0.00  0.00    +0.028 C 
ATOM     27  C   UNL     1       0.069  -0.225   0.107  0.00  0.00    +0.076 C 
ATOM     28  C   UNL     1       0.759  -1.018   1.218  0.00  0.00    +0.028 C 
ENDBRANCH   1  27
TORSDOF 3
