REMARK  Name = ZINC08718313
REMARK  7 active torsions:
REMARK  status: ('A' for Active; 'I' for Inactive)
REMARK    1  A    between atoms: C_1  and  C_2
REMARK    2  A    between atoms: C_5  and  C_9
REMARK    3  A    between atoms: C_6  and  C_8
REMARK    4  A    between atoms: N_11  and  N_12
REMARK    5  A    between atoms: C_13  and  C_15
REMARK    6  A    between atoms: C_15  and  N_16
REMARK    7  A    between atoms: C_22  and  C_25
REMARK                            x       y       z     vdW  Elec       q    Type
REMARK                         _______ _______ _______ _____ _____    ______ ____
ROOT
ATOM      1  N   UNL     1      -3.371  -1.186  -1.655  0.00  0.00    -0.233 N 
ATOM      2  C   UNL     1      -2.418  -0.267  -1.404  0.00  0.00    +0.247 C 
ATOM      3  O   UNL     1      -1.754   0.183  -2.314  0.00  0.00    -0.273 OA
ATOM      4  H   UNL     1      -3.901  -1.546  -0.927  0.00  0.00    +0.173 HD
ENDROOT
BRANCH   1   7
ATOM      5  C   UNL     1      -4.548  -2.542  -3.219  0.00  0.00    +0.260 C 
ATOM      6  O   UNL     1      -5.213  -2.992  -2.306  0.00  0.00    -0.269 OA
ATOM      7  N   UNL     1      -3.595  -1.622  -2.968  0.00  0.00    -0.230 N 
ATOM      8  H   UNL     1      -3.064  -1.262  -3.696  0.00  0.00    +0.173 HD
BRANCH   5  13
ATOM      9  C   UNL     1      -5.468  -4.334  -8.609  0.00  0.00    +0.044 C 
ATOM     10  C   UNL     1      -5.227  -3.864  -7.197  0.00  0.00    -0.050 A 
ATOM     11  C   UNL     1      -4.341  -2.829  -6.958  0.00  0.00    +0.004 A 
ATOM     12  C   UNL     1      -4.116  -2.395  -5.668  0.00  0.00    +0.013 A 
ATOM     13  C   UNL     1      -4.784  -3.002  -4.604  0.00  0.00    +0.041 A 
ATOM     14  C   UNL     1      -5.673  -4.049  -4.852  0.00  0.00    -0.038 A 
ATOM     15  C   UNL     1      -5.893  -4.471  -6.147  0.00  0.00    +0.007 A 
ATOM     16  C   UNL     1      -6.394  -4.715  -3.708  0.00  0.00    +0.044 C 
ENDBRANCH   5  13
ENDBRANCH   1   7
BRANCH   2  17
ATOM     17  C   UNL     1      -2.176   0.203   0.007  0.00  0.00    +0.215 C 
BRANCH  17  18
ATOM     18  N   UNL     1      -1.098   1.194   0.015  0.00  0.00    -0.215 N 
ATOM     19  C   UNL     1      -1.289   2.523  -0.124  0.00  0.00    +0.247 C 
ATOM     20  O   UNL     1      -2.344   3.101  -0.278  0.00  0.00    -0.273 OA
ATOM     21  C   UNL     1       0.090   3.138  -0.054  0.00  0.00    +0.113 C 
ATOM     22  C   UNL     1       0.187   4.090   1.133  0.00  0.00    +0.035 C 
ATOM     23  C   UNL     1       1.598   4.681   1.203  0.00  0.00    +0.006 C 
ATOM     24  C   UNL     1       1.902   5.427  -0.098  0.00  0.00    -0.014 C 
ATOM     25  C   UNL     1       1.825   4.454  -1.276  0.00  0.00    +0.006 C 
ATOM     26  C   UNL     1       0.415   3.863  -1.356  0.00  0.00    +0.035 C 
ATOM     27  C   UNL     1       3.307   6.028  -0.024  0.00  0.00    +0.007 C 
ATOM     28  N   UNL     1       0.984   1.989   0.133  0.00  0.00    -0.285 N 
ATOM     29  C   UNL     1       0.198   0.895   0.161  0.00  0.00    +0.310 C 
ATOM     30  O   UNL     1       0.619  -0.236   0.304  0.00  0.00    -0.252 OA
ATOM     31  H   UNL     1       1.950   2.012   0.219  0.00  0.00    +0.151 HD
ENDBRANCH  17  18
ENDBRANCH   2  17
TORSDOF 4
