REMARK  Name = ZINC67268338
REMARK  11 active torsions:
REMARK  status: ('A' for Active; 'I' for Inactive)
REMARK    1  A    between atoms: C_1  and  C_2
REMARK    2  A    between atoms: C_5  and  C_8
REMARK    3  A    between atoms: C_8  and  C_10
REMARK    4  A    between atoms: C_8  and  N_26
REMARK    5  A    between atoms: C_10  and  N_11
REMARK    6  A    between atoms: C_12  and  C_14
REMARK    7  A    between atoms: C_14  and  N_15
REMARK    8  A    between atoms: C_18  and  C_22
REMARK    9  A    between atoms: C_18  and  C_23
REMARK   10  A    between atoms: N_26  and  C_27
REMARK   11  A    between atoms: N_26  and  C_28
REMARK                            x       y       z     vdW  Elec       q    Type
REMARK                         _______ _______ _______ _____ _____    ______ ____
ROOT
ATOM      1  N   UNL     1      -1.115  -6.359   0.374  0.00  0.00    -0.315 N 
ATOM      2  C   UNL     1      -2.197  -7.131   0.595  0.00  0.00    +0.231 C 
ATOM      3  O   UNL     1      -3.277  -6.619   0.800  0.00  0.00    -0.274 OA
ATOM      4  H   UNL     1      -0.252  -6.769   0.210  0.00  0.00    +0.149 HD
ENDROOT
BRANCH   1   5
ATOM      5  C   UNL     1      -1.244  -4.899   0.382  0.00  0.00    +0.093 C 
BRANCH   5   6
ATOM      6  C   UNL     1       0.090  -4.268  -0.022  0.00  0.00    -0.021 C 
BRANCH   6  11
ATOM      7  C   UNL     1       1.299  -5.664  -5.498  0.00  0.00    +0.044 C 
ATOM      8  C   UNL     1       0.984  -5.300  -4.070  0.00  0.00    -0.050 A 
ATOM      9  C   UNL     1       1.585  -5.987  -3.032  0.00  0.00    +0.003 A 
ATOM     10  C   UNL     1       1.296  -5.653  -1.722  0.00  0.00    +0.002 A 
ATOM     11  C   UNL     1       0.406  -4.631  -1.450  0.00  0.00    -0.059 A 
ATOM     12  C   UNL     1      -0.195  -3.943  -2.487  0.00  0.00    +0.002 A 
ATOM     13  C   UNL     1       0.097  -4.274  -3.797  0.00  0.00    +0.003 A 
ENDBRANCH   6  11
BRANCH   6  14
ATOM     14  N   UNL     1      -0.002  -2.807   0.103  0.00  0.00    +0.382 N 
ATOM     15  C   UNL     1      -0.293  -2.452   1.498  0.00  0.00    -0.096 C 
ATOM     16  C   UNL     1       1.273  -2.200  -0.302  0.00  0.00    -0.096 C 
ATOM     17  H   UNL     1      -0.742  -2.465  -0.492  0.00  0.00    -0.082 HD
ENDBRANCH   6  14
ENDBRANCH   5   6
ENDBRANCH   1   5
BRANCH   2  18
ATOM     18  C   UNL     1      -2.065  -8.633   0.587  0.00  0.00    +0.213 C 
BRANCH  18  19
ATOM     19  N   UNL     1      -3.373  -9.239   0.850  0.00  0.00    -0.215 N 
ATOM     20  C   UNL     1      -3.836  -9.535   2.080  0.00  0.00    +0.247 C 
ATOM     21  O   UNL     1      -3.272  -9.356   3.138  0.00  0.00    -0.273 OA
ATOM     22  C   UNL     1      -5.211 -10.137   1.866  0.00  0.00    +0.113 C 
ATOM     23  N   UNL     1      -5.378 -10.108   0.403  0.00  0.00    -0.285 N 
ATOM     24  C   UNL     1      -4.256  -9.563  -0.102  0.00  0.00    +0.310 C 
ATOM     25  O   UNL     1      -4.065  -9.387  -1.289  0.00  0.00    -0.252 OA
ATOM     26  C   UNL     1      -5.255 -11.576   2.384  0.00  0.00    +0.042 C 
ATOM     27  H   UNL     1      -6.148 -10.418  -0.099  0.00  0.00    +0.151 HD
BRANCH  22  28
ATOM     28  C   UNL     1      -6.284  -9.285   2.547  0.00  0.00    +0.021 C 
ATOM     29  C   UNL     1      -6.912  -9.833   3.830  0.00  0.00    +0.006 C 
ATOM     30  C   UNL     1      -7.720  -9.812   2.530  0.00  0.00    +0.006 C 
ENDBRANCH  22  28
ENDBRANCH  18  19
ENDBRANCH   2  18
TORSDOF 7
