REMARK  Name = ZINC42273478
REMARK  7 active torsions:
REMARK  status: ('A' for Active; 'I' for Inactive)
REMARK    1  A    between atoms: C_1  and  C_2
REMARK    2  A    between atoms: C_2  and  C_3
REMARK    3  A    between atoms: C_2  and  C_4
REMARK    4  A    between atoms: C_2  and  C_5
REMARK    5  A    between atoms: C_5  and  C_7
REMARK    6  A    between atoms: C_5  and  N_21
REMARK    7  A    between atoms: N_9  and  C_10
REMARK                            x       y       z     vdW  Elec       q    Type
REMARK                         _______ _______ _______ _____ _____    ______ ____
ROOT
ATOM      1  C   UNL     1       2.131   0.025  -1.264  0.00  0.00    +0.203 C 
ATOM      2  O   UNL     1       3.046  -0.695  -0.924  0.00  0.00    -0.277 OA
ATOM      3  N   UNL     1       2.381   1.288  -1.662  0.00  0.00    -0.286 N 
ATOM      4  H   UNL     1       1.661   1.838  -2.010  0.00  0.00    +0.155 HD
ENDROOT
BRANCH   3   5
ATOM      5  C   UNL     1       3.679   1.808  -1.573  0.00  0.00    +0.051 A 
ATOM      6  C   UNL     1       4.575   1.284  -0.651  0.00  0.00    +0.073 A 
ATOM      7  C   UNL     1       5.860   1.797  -0.564  0.00  0.00    +0.164 A 
ATOM      8  C   UNL     1       6.250   2.835  -1.402  0.00  0.00    +0.163 A 
ATOM      9  C   UNL     1       5.353   3.357  -2.321  0.00  0.00    +0.066 A 
ATOM     10  C   UNL     1       4.073   2.842  -2.412  0.00  0.00    +0.043 A 
ATOM     11 BR   UNL     1       2.856   3.553  -3.672  0.00  0.00    -0.048 Br
ATOM     12  O   UNL     1       7.511   3.347  -1.335  0.00  0.00    -0.485 OA
ATOM     13  C   UNL     1       8.263   3.054  -0.153  0.00  0.00    +0.270 C 
ATOM     14  C   UNL     1       8.115   1.557   0.152  0.00  0.00    +0.270 C 
ATOM     15  O   UNL     1       6.725   1.275   0.349  0.00  0.00    -0.485 OA
ENDBRANCH   3   5
BRANCH   1  16
ATOM     16  C   UNL     1       0.716  -0.492  -1.242  0.00  0.00    +0.019 C 
BRANCH  16  18
ATOM     17  C   UNL     1      -0.005   1.534   0.029  0.00  0.00    +0.009 C 
ATOM     18  C   UNL     1       0.011   0.004   0.021  0.00  0.00    -0.042 C 
ATOM     19  C   UNL     1       0.759  -0.504   1.256  0.00  0.00    +0.009 C 
ATOM     20  C   UNL     1      -1.426  -0.521   0.044  0.00  0.00    +0.009 C 
ENDBRANCH  16  18
BRANCH  16  21
ATOM     21  N   UNL     1       0.732  -1.961  -1.249  0.00  0.00    +0.386 N 
ATOM     22  H   UNL     1       1.197  -2.289  -2.083  0.00  0.00    -0.089 HD
ATOM     23  H   UNL     1       1.225  -2.296  -0.435  0.00  0.00    -0.089 HD
ATOM     24  H   UNL     1      -0.216  -2.308  -1.234  0.00  0.00    -0.089 HD
ENDBRANCH  16  21
ENDBRANCH   1  16
TORSDOF 4
