REMARK  Name = ZINC13302691
REMARK  12 active torsions:
REMARK  status: ('A' for Active; 'I' for Inactive)
REMARK    1  A    between atoms: C_1  and  C_2
REMARK    2  A    between atoms: C_2  and  O_3
REMARK    3  A    between atoms: O_3  and  C_4
REMARK    4  A    between atoms: C_4  and  C_6
REMARK    5  A    between atoms: C_7  and  C_30
REMARK    6  A    between atoms: C_8  and  C_12
REMARK    7  A    between atoms: C_10  and  N_11
REMARK    8  A    between atoms: C_14  and  C_24
REMARK    9  A    between atoms: C_15  and  C_19
REMARK   10  A    between atoms: C_19  and  O_21
REMARK   11  A    between atoms: O_21  and  C_22
REMARK   12  A    between atoms: C_22  and  C_23
REMARK                            x       y       z     vdW  Elec       q    Type
REMARK                         _______ _______ _______ _____ _____    ______ ____
ROOT
ATOM      1  C   UNL     1       1.041   2.012   3.561  0.00  0.00    +0.095 A 
ATOM      2  C   UNL     1       0.774   3.377   3.682  0.00  0.00    +0.012 A 
ATOM      3  C   UNL     1       0.989   4.164   2.544  0.00  0.00    +0.024 A 
ATOM      4  S   UNL     1       1.571   2.974   1.351  0.00  0.00    -0.073 S 
ATOM      5  C   UNL     1       1.510   1.545   2.329  0.00  0.00    +0.078 A 
ENDROOT
BRANCH   3   6
ATOM      6  C   UNL     1       0.801   5.543   2.384  0.00  0.00    +0.031 C 
ATOM      7  C   UNL     1       0.013   6.019   1.349  0.00  0.00    +0.024 C 
ATOM      8  C   UNL     1      -0.832   5.289   0.489  0.00  0.00    +0.012 C 
ATOM      9  C   UNL     1      -1.539   5.973  -0.481  0.00  0.00    +0.099 C 
ATOM     10  C   UNL     1      -1.339   7.429  -0.534  0.00  0.00    +0.107 C 
ATOM     11  N   UNL     1      -1.881   8.306  -1.347  0.00  0.00    -0.292 NA
ATOM     12  S   UNL     1      -0.172   7.702   0.788  0.00  0.00    -0.069 S 
ATOM     13  H   UNL     1      -1.655   9.246  -1.268  0.00  0.00    +0.187 HD
BRANCH   8  14
ATOM     14  C   UNL     1      -0.962   3.823   0.626  0.00  0.00    -0.016 A 
ATOM     15  C   UNL     1      -0.470   2.979  -0.371  0.00  0.00    +0.008 A 
ATOM     16  C   UNL     1      -0.595   1.612  -0.236  0.00  0.00    +0.001 A 
ATOM     17  C   UNL     1      -1.206   1.077   0.884  0.00  0.00    +0.000 A 
ATOM     18  C   UNL     1      -1.700   1.908   1.874  0.00  0.00    +0.001 A 
ATOM     19  C   UNL     1      -1.577   3.276   1.754  0.00  0.00    +0.008 A 
ENDBRANCH   8  14
BRANCH   9  20
ATOM     20  C   UNL     1      -2.412   5.306  -1.377  0.00  0.00    +0.342 C 
ATOM     21  O   UNL     1      -2.554   4.100  -1.303  0.00  0.00    -0.245 OA
BRANCH  20  22
ATOM     22  O   UNL     1      -3.086   6.009  -2.311  0.00  0.00    -0.461 OA
BRANCH  22  23
ATOM     23  C   UNL     1      -3.948   5.273  -3.180  0.00  0.00    +0.229 C 
ATOM     24  C   UNL     1      -4.620   6.232  -4.164  0.00  0.00    +0.048 C 
ENDBRANCH  22  23
ENDBRANCH  20  22
ENDBRANCH   9  20
ENDBRANCH   3   6
BRANCH   2  25
ATOM     25  C   UNL     1       0.283   3.962   4.948  0.00  0.00    -0.016 A 
ATOM     26  C   UNL     1       1.093   3.950   6.086  0.00  0.00    +0.008 A 
ATOM     27  C   UNL     1       0.631   4.503   7.262  0.00  0.00    +0.001 A 
ATOM     28  C   UNL     1      -0.636   5.058   7.319  0.00  0.00    +0.000 A 
ATOM     29  C   UNL     1      -1.446   5.067   6.197  0.00  0.00    +0.001 A 
ATOM     30  C   UNL     1      -0.994   4.523   5.013  0.00  0.00    +0.008 A 
ENDBRANCH   2  25
BRANCH   5  31
ATOM     31  N   UNL     1       1.842   0.260   1.977  0.00  0.00    -0.352 N 
ATOM     32  H   UNL     1       2.081   0.054   1.060  0.00  0.00    +0.143 HD
ATOM     33  H   UNL     1       1.838  -0.442   2.646  0.00  0.00    +0.143 HD
ENDBRANCH   5  31
BRANCH   1  34
ATOM     34  C   UNL     1       0.844   1.100   4.689  0.00  0.00    +0.342 C 
ATOM     35  O   UNL     1       1.754   0.892   5.470  0.00  0.00    -0.245 OA
BRANCH  34  36
ATOM     36  O   UNL     1      -0.346   0.490   4.864  0.00  0.00    -0.461 OA
BRANCH  36  38
ATOM     37  C   UNL     1      -1.879  -0.995   6.036  0.00  0.00    +0.048 C 
ATOM     38  C   UNL     1      -0.470  -0.401   6.003  0.00  0.00    +0.229 C 
ENDBRANCH  36  38
ENDBRANCH  34  36
ENDBRANCH   1  34
TORSDOF 10
