REMARK  Name = ZINC39467386
REMARK  4 active torsions:
REMARK  status: ('A' for Active; 'I' for Inactive)
REMARK    1  A    between atoms: C_1  and  O_2
REMARK    2  A    between atoms: O_2  and  C_3
REMARK    3  A    between atoms: P_19  and  C_22
REMARK    4  A    between atoms: C_27  and  O_28
REMARK                            x       y       z     vdW  Elec       q    Type
REMARK                         _______ _______ _______ _____ _____    ______ ____
ROOT
ATOM      1  C   UNL     1      -1.200  -0.637   0.010  0.00  0.00    +0.134 C 
ATOM      2  C   UNL     1      -2.335   0.073   0.019  0.00  0.00    +0.022 C 
ATOM      3  C   UNL     1      -3.647  -0.663   0.015  0.00  0.00    +0.008 C 
ATOM      4  C   UNL     1      -4.778   0.206  -0.522  0.00  0.00    -0.046 C 
ATOM      5  N   UNL     1      -6.048  -0.539  -0.468  0.00  0.00    +0.398 N 
ATOM      6  C   UNL     1      -5.987  -1.759  -1.273  0.00  0.00    -0.020 C 
ATOM      7  C   UNL     1      -4.835  -2.666  -0.817  0.00  0.00    -0.003 C 
ATOM      8  C   UNL     1      -3.523  -1.893  -0.894  0.00  0.00    +0.017 C 
ATOM      9  C   UNL     1      -2.363  -2.728  -0.426  0.00  0.00    +0.000 C 
ATOM     10  C   UNL     1      -1.262  -2.113   0.003  0.00  0.00    +0.079 C 
ATOM     11 CL   UNL     1       0.093  -3.046   0.557  0.00  0.00    -0.080 Cl
ATOM     12  C   UNL     1      -7.273  -2.585  -1.137  0.00  0.00    +0.157 C 
ATOM     13  O   UNL     1      -8.388  -1.815  -1.623  0.00  0.00    -0.316 OA
ATOM     14  P   UNL     1      -8.564  -0.299  -1.059  0.00  0.00    +0.291 P 
ATOM     15  O   UNL     1      -9.208  -0.319   0.274  0.00  0.00    -0.269 OA
ATOM     16  N   UNL     1      -7.016   0.312  -0.957  0.00  0.00    -0.288 NA
ATOM     17  H   UNL     1      -6.803   1.223  -1.212  0.00  0.00    +0.111 HD
ATOM     18  H   UNL     1      -6.259  -0.775   0.490  0.00  0.00    -0.055 HD
ENDROOT
BRANCH  14  19
ATOM     19  C   UNL     1      -9.547   0.693  -2.217  0.00  0.00    +0.091 A 
ATOM     20  C   UNL     1      -8.923   1.393  -3.230  0.00  0.00    +0.018 A 
ATOM     21  C   UNL     1      -9.672   2.150  -4.113  0.00  0.00    +0.001 A 
ATOM     22  C   UNL     1     -11.048   2.206  -3.984  0.00  0.00    +0.004 A 
ATOM     23  C   UNL     1     -11.677   1.506  -2.972  0.00  0.00    +0.046 A 
ATOM     24  C   UNL     1     -10.928   0.743  -2.088  0.00  0.00    +0.131 A 
BRANCH  24  25
ATOM     25  O   UNL     1     -11.545   0.049  -1.096  0.00  0.00    -0.506 OA
ATOM     26  H   UNL     1     -11.648   0.548  -0.274  0.00  0.00    +0.292 HD
ENDBRANCH  24  25
ENDBRANCH  14  19
BRANCH   1  28
ATOM     27  C   UNL     1      -0.017   1.425   0.010  0.00  0.00    +0.277 C 
ATOM     28  O   UNL     1       0.002  -0.004   0.002  0.00  0.00    -0.494 OA
ENDBRANCH   1  28
TORSDOF 3
