REMARK  Name = ZINC05602047
REMARK  6 active torsions:
REMARK  status: ('A' for Active; 'I' for Inactive)
REMARK    1  A    between atoms: C_1  and  C_2
REMARK    2  A    between atoms: C_2  and  C_24
REMARK    3  A    between atoms: N_3  and  N_4
REMARK    4  A    between atoms: N_4  and  P_5
REMARK    5  A    between atoms: C_8  and  C_18
REMARK    6  A    between atoms: C_10  and  C_12
REMARK                            x       y       z     vdW  Elec       q    Type
REMARK                         _______ _______ _______ _____ _____    ______ ____
ROOT
ATOM      1  P   UNL     1      -0.018   1.476   0.010  0.00  0.00    +0.229 P 
ATOM      2  O   UNL     1       0.002  -0.004   0.002  0.00  0.00    -0.290 OA
ATOM      3  C   UNL     1      -0.921   2.089   1.477  0.00  0.00    +0.111 C 
ATOM      4  C   UNL     1      -1.843   3.033   1.241  0.00  0.00    +0.141 C 
ATOM      5  O   UNL     1      -2.114   3.545   0.038  0.00  0.00    -0.454 OA
ATOM      6  C   UNL     1      -1.863   3.046  -1.174  0.00  0.00    +0.141 C 
ATOM      7  C   UNL     1      -0.949   2.104  -1.432  0.00  0.00    +0.111 C 
ENDROOT
BRANCH   6   8
ATOM      8  C   UNL     1      -2.653   3.570  -2.312  0.00  0.00    +0.017 A 
ATOM      9  C   UNL     1      -2.428   3.088  -3.601  0.00  0.00    +0.011 A 
ATOM     10  C   UNL     1      -3.170   3.577  -4.657  0.00  0.00    +0.001 A 
ATOM     11  C   UNL     1      -4.128   4.551  -4.439  0.00  0.00    +0.000 A 
ATOM     12  C   UNL     1      -4.352   5.037  -3.164  0.00  0.00    +0.001 A 
ATOM     13  C   UNL     1      -3.620   4.552  -2.099  0.00  0.00    +0.011 A 
ENDBRANCH   6   8
BRANCH   4  14
ATOM     14  C   UNL     1      -2.614   3.545   2.397  0.00  0.00    +0.017 A 
ATOM     15  C   UNL     1      -2.376   3.042   3.676  0.00  0.00    +0.011 A 
ATOM     16  C   UNL     1      -3.093   3.527   4.750  0.00  0.00    +0.001 A 
ATOM     17  C   UNL     1      -4.054   4.503   4.559  0.00  0.00    +0.000 A 
ATOM     18  C   UNL     1      -4.298   5.003   3.292  0.00  0.00    +0.001 A 
ATOM     19  C   UNL     1      -3.584   4.530   2.211  0.00  0.00    +0.011 A 
ENDBRANCH   4  14
BRANCH   1  20
ATOM     20  N   UNL     1       1.513   2.064  -0.001  0.00  0.00    -0.210 N 
ATOM     21  H   UNL     1       1.808   2.634  -0.729  0.00  0.00    +0.176 HD
BRANCH  20  24
ATOM     22  C   UNL     1       4.048   3.087  -0.100  0.00  0.00    +0.062 C 
ATOM     23  C   UNL     1       3.589   2.202   1.030  0.00  0.00    +0.031 C 
ATOM     24  N   UNL     1       2.394   1.743   1.039  0.00  0.00    -0.190 NA
ATOM     25  C   UNL     1       4.537   1.857   2.150  0.00  0.00    +0.062 C 
ENDBRANCH  20  24
ENDBRANCH   1  20
TORSDOF 4
