REMARK  Name = ZINC44549909
REMARK  8 active torsions:
REMARK  status: ('A' for Active; 'I' for Inactive)
REMARK    1  A    between atoms: C_3  and  C_7
REMARK    2  A    between atoms: C_10  and  S_13
REMARK    3  A    between atoms: S_13  and  C_14
REMARK    4  A    between atoms: C_14  and  C_15
REMARK    5  A    between atoms: C_15  and  C_17
REMARK    6  A    between atoms: C_15  and  O_25
REMARK    7  A    between atoms: C_17  and  N_18
REMARK    8  A    between atoms: N_18  and  C_19
REMARK                            x       y       z     vdW  Elec       q    Type
REMARK                         _______ _______ _______ _____ _____    ______ ____
ROOT
ATOM      1  C   UNL     1       7.684   0.217  -0.072  0.00  0.00    +0.106 C 
ENDROOT
BRANCH   1   2
ATOM      2  S   UNL     1       7.566   2.027  -0.060  0.00  0.00    -0.084 S 
BRANCH   2   6
ATOM      3  C   UNL     1       3.683   2.033  -0.023  0.00  0.00    +0.184 A 
ATOM      4  N   UNL     1       4.882   1.432  -0.037  0.00  0.00    -0.201 NA
ATOM      5  H   UNL     1       5.694   4.419  -0.030  0.00  0.00    +0.191 HD
ATOM      6  C   UNL     1       5.832   2.341  -0.042  0.00  0.00    +0.185 A 
ATOM      7  N   UNL     1       5.246   3.559  -0.030  0.00  0.00    -0.253 N 
ATOM      8  N   UNL     1       3.860   3.334  -0.024  0.00  0.00    -0.152 NA
BRANCH   3  11
ATOM      9  C   UNL     1      -0.017   1.379   0.010  0.00  0.00    +0.020 A 
ATOM     10  C   UNL     1       1.182   2.072   0.002  0.00  0.00    +0.014 A 
ATOM     11  C   UNL     1       2.371   1.339  -0.013  0.00  0.00    +0.039 A 
ATOM     12  C   UNL     1       2.306  -0.052  -0.020  0.00  0.00    +0.122 A 
ATOM     13  N   UNL     1       1.142  -0.669  -0.013  0.00  0.00    -0.263 NA
ATOM     14  C   UNL     1       0.002  -0.004   0.002  0.00  0.00    +0.111 A 
ENDBRANCH   3  11
ENDBRANCH   2   6
ENDBRANCH   1   2
BRANCH   1  15
ATOM     15  C   UNL     1       9.156  -0.198  -0.088  0.00  0.00    +0.108 C 
BRANCH  15  16
ATOM     16  O   UNL     1       9.786   0.328  -1.258  0.00  0.00    -0.393 OA
ATOM     17  H   UNL     1       9.394   0.021  -2.087  0.00  0.00    +0.210 HD
ENDBRANCH  15  16
BRANCH  15  18
ATOM     18  C   UNL     1       9.256  -1.725  -0.097  0.00  0.00    -0.050 C 
BRANCH  18  19
ATOM     19  N   UNL     1      10.666  -2.124   0.007  0.00  0.00    +0.383 N 
ATOM     20  H   UNL     1      11.181  -1.749  -0.775  0.00  0.00    -0.085 HD
ATOM     21  H   UNL     1      11.053  -1.767   0.868  0.00  0.00    -0.085 HD
BRANCH  19  22
ATOM     22  C   UNL     1      10.761  -3.590  -0.002  0.00  0.00    -0.072 C 
ATOM     23  C   UNL     1      10.087  -4.153   1.251  0.00  0.00    -0.016 C 
ATOM     24  C   UNL     1      10.186  -5.679   1.242  0.00  0.00    -0.002 C 
ATOM     25  C   UNL     1      11.659  -6.094   1.225  0.00  0.00    -0.000 C 
ATOM     26  C   UNL     1      12.333  -5.532  -0.027  0.00  0.00    -0.002 C 
ATOM     27  C   UNL     1      12.234  -4.005  -0.018  0.00  0.00    -0.016 C 
ENDBRANCH  19  22
ENDBRANCH  18  19
ENDBRANCH  15  18
ENDBRANCH   1  15
TORSDOF 8
