REMARK  Name = ZINC12599174
REMARK  5 active torsions:
REMARK  status: ('A' for Active; 'I' for Inactive)
REMARK    1  A    between atoms: C_1  and  C_2
REMARK    2  A    between atoms: C_7  and  C_8
REMARK    3  A    between atoms: C_14  and  C_16
REMARK    4  A    between atoms: C_26  and  C_30
REMARK    5  A    between atoms: C_26  and  C_31
REMARK                            x       y       z     vdW  Elec       q    Type
REMARK                         _______ _______ _______ _____ _____    ______ ____
ROOT
ATOM      1  C   UNL     1      -1.585   5.476   2.347  0.00  0.00    +0.264 C 
ATOM      2  O   UNL     1      -0.600   4.929   2.805  0.00  0.00    -0.268 OA
ATOM      3  N   UNL     1      -1.658   5.737   1.027  0.00  0.00    -0.287 N 
ATOM      4  C   UNL     1      -2.802   6.361   0.331  0.00  0.00    +0.109 C 
ATOM      5  C   UNL     1      -2.193   6.992  -0.947  0.00  0.00    +0.021 C 
ATOM      6  C   UNL     1      -1.122   5.938  -1.334  0.00  0.00    +0.031 C 
ATOM      7  C   UNL     1      -0.612   5.444   0.036  0.00  0.00    +0.132 C 
ENDROOT
BRANCH   1  14
ATOM      8  C   UNL     1      -1.560   5.284   5.467  0.00  0.00    +0.047 C 
ATOM      9  C   UNL     1      -2.689   5.772   4.597  0.00  0.00    -0.010 A 
ATOM     10  C   UNL     1      -3.938   6.234   5.030  0.00  0.00    +0.042 A 
ATOM     11  C   UNL     1      -4.679   6.576   3.898  0.00  0.00    +0.028 A 
ATOM     12  N   UNL     1      -3.920   6.344   2.826  0.00  0.00    -0.354 N 
ATOM     13  H   UNL     1      -4.187   6.496   1.906  0.00  0.00    +0.166 HD
ATOM     14  C   UNL     1      -2.694   5.853   3.232  0.00  0.00    +0.106 A 
ATOM     15  C   UNL     1      -6.089   7.105   3.971  0.00  0.00    +0.060 C 
ATOM     16  C   UNL     1      -6.701   6.723   5.322  0.00  0.00    -0.023 C 
ATOM     17  C   UNL     1      -5.792   7.162   6.473  0.00  0.00    +0.086 C 
ATOM     18  C   UNL     1      -4.492   6.377   6.385  0.00  0.00    +0.166 C 
ATOM     19  O   UNL     1      -3.951   5.903   7.362  0.00  0.00    -0.292 OA
ATOM     20  C   UNL     1      -8.064   7.404   5.468  0.00  0.00    +0.011 C 
ATOM     21  C   UNL     1      -6.889   5.205   5.379  0.00  0.00    +0.011 C 
ENDBRANCH   1  14
BRANCH   7  22
ATOM     22  C   UNL     1      -0.356   3.960  -0.017  0.00  0.00    +0.100 A 
ATOM     23  N   UNL     1       0.788   3.337  -0.046  0.00  0.00    -0.242 NA
ATOM     24  C   UNL     1       0.880   1.992  -0.092  0.00  0.00    +0.079 A 
ATOM     25  C   UNL     1       2.035   1.179  -0.129  0.00  0.00    +0.029 A 
ATOM     26  C   UNL     1       1.929  -0.177  -0.174  0.00  0.00    +0.002 A 
ATOM     27  C   UNL     1       0.694  -0.810  -0.187  0.00  0.00    +0.001 A 
ATOM     28  C   UNL     1      -0.460  -0.050  -0.152  0.00  0.00    +0.017 A 
ATOM     29  C   UNL     1      -0.363   1.319  -0.106  0.00  0.00    +0.039 A 
ATOM     30  S   UNL     1      -1.516   2.668  -0.058  0.00  0.00    -0.070 S 
ENDBRANCH   7  22
TORSDOF 2
