REMARK  Name = ZINC02130313
REMARK  5 active torsions:
REMARK  status: ('A' for Active; 'I' for Inactive)
REMARK    1  A    between atoms: C_12  and  C_14
REMARK    2  A    between atoms: C_14  and  C_15
REMARK    3  A    between atoms: C_18  and  O_22
REMARK    4  A    between atoms: C_19  and  O_21
REMARK    5  A    between atoms: N_25  and  C_28
REMARK                            x       y       z     vdW  Elec       q    Type
REMARK                         _______ _______ _______ _____ _____    ______ ____
ROOT
ATOM      1  C   UNL     1       1.165   3.162   0.008  0.00  0.00    +0.000 A 
ATOM      2  C   UNL     1       1.174   1.779   0.000  0.00  0.00    +0.002 A 
ATOM      3  C   UNL     1      -0.013   1.076   0.008  0.00  0.00    +0.023 A 
ATOM      4  C   UNL     1      -1.230   1.754   0.017  0.00  0.00    +0.036 A 
ATOM      5  C   UNL     1      -1.226   3.145   0.029  0.00  0.00    -0.028 A 
ATOM      6  C   UNL     1      -0.039   3.844   0.023  0.00  0.00    +0.004 A 
ATOM      7  C   UNL     1      -2.670   3.559   0.042  0.00  0.00    +0.050 C 
ATOM      8  C   UNL     1      -3.020   4.420  -1.179  0.00  0.00    +0.088 C 
ATOM      9  C   UNL     1      -4.057   5.448  -0.648  0.00  0.00    +0.073 C 
ATOM     10  C   UNL     1      -4.238   5.095   0.844  0.00  0.00    -0.053 C 
ATOM     11  C   UNL     1      -3.306   6.773  -0.769  0.00  0.00    +0.224 C 
ATOM     12  O   UNL     1      -3.746   7.856  -0.449  0.00  0.00    -0.275 OA
ATOM     13  N   UNL     1      -2.093   6.553  -1.288  0.00  0.00    -0.239 N 
ATOM     14  C   UNL     1      -1.828   5.270  -1.559  0.00  0.00    +0.225 C 
ATOM     15  O   UNL     1      -0.793   4.853  -2.034  0.00  0.00    -0.275 OA
ATOM     16  C   UNL     1      -3.446   2.271   0.031  0.00  0.00    +0.211 C 
ATOM     17  O   UNL     1      -4.654   2.154   0.039  0.00  0.00    -0.277 OA
ATOM     18  N   UNL     1      -2.541   1.274   0.023  0.00  0.00    -0.286 N 
ATOM     19  H   UNL     1      -2.773   0.332   0.022  0.00  0.00    +0.155 HD
ATOM     20  N   UNL     1      -3.006   4.381   1.191  0.00  0.00    +0.394 N 
ATOM     21  H   UNL     1      -2.251   5.050   1.382  0.00  0.00    -0.083 HD
ATOM     22  H   UNL     1      -3.159   3.791   2.017  0.00  0.00    -0.083 HD
ENDROOT
BRANCH  13  23
ATOM     23  C   UNL     1      -1.133   7.630  -1.541  0.00  0.00    +0.084 C 
ATOM     24  C   UNL     1      -0.806   8.341  -0.226  0.00  0.00    +0.023 C 
ATOM     25  C   UNL     1       0.197   9.466  -0.489  0.00  0.00    +0.002 C 
ATOM     26  C   UNL     1      -0.408  10.468  -1.474  0.00  0.00    +0.000 C 
ATOM     27  C   UNL     1      -0.735   9.758  -2.789  0.00  0.00    +0.002 C 
ATOM     28  C   UNL     1      -1.738   8.633  -2.525  0.00  0.00    +0.023 C 
ENDBRANCH  13  23
BRANCH  10  29
ATOM     29  C   UNL     1      -4.399   6.368   1.677  0.00  0.00    +0.020 C 
BRANCH  29  30
ATOM     30  C   UNL     1      -4.696   5.998   3.107  0.00  0.00    -0.045 A 
ATOM     31  C   UNL     1      -3.658   5.820   4.003  0.00  0.00    +0.007 A 
ATOM     32  C   UNL     1      -3.925   5.482   5.316  0.00  0.00    +0.049 A 
ATOM     33  C   UNL     1      -5.235   5.320   5.737  0.00  0.00    +0.158 A 
ATOM     34  C   UNL     1      -6.280   5.499   4.836  0.00  0.00    +0.158 A 
ATOM     35  C   UNL     1      -6.005   5.844   3.522  0.00  0.00    +0.052 A 
BRANCH  34  36
ATOM     36  O   UNL     1      -7.567   5.342   5.244  0.00  0.00    -0.503 OA
ATOM     37  H   UNL     1      -7.977   6.153   5.575  0.00  0.00    +0.292 HD
ENDBRANCH  34  36
BRANCH  33  38
ATOM     38  O   UNL     1      -5.500   4.987   7.029  0.00  0.00    -0.503 OA
ATOM     39  H   UNL     1      -5.613   5.747   7.616  0.00  0.00    +0.292 HD
ENDBRANCH  33  38
ENDBRANCH  29  30
ENDBRANCH  10  29
TORSDOF 5
