REMARK  Name = ZINC39655271
REMARK  6 active torsions:
REMARK  status: ('A' for Active; 'I' for Inactive)
REMARK    1  A    between atoms: C_4  and  N_7
REMARK    2  A    between atoms: N_7  and  C_8
REMARK    3  A    between atoms: C_8  and  C_9
REMARK    4  A    between atoms: C_9  and  N_10
REMARK    5  A    between atoms: C_11  and  C_13
REMARK    6  A    between atoms: C_24  and  C_26
REMARK                            x       y       z     vdW  Elec       q    Type
REMARK                         _______ _______ _______ _____ _____    ______ ____
ROOT
ATOM      1  C   UNL     1       6.308  -6.226  -0.087  0.00  0.00    +0.100 C 
ATOM      2  C   UNL     1       5.792  -6.781   1.260  0.00  0.00    +0.121 C 
ATOM      3  N   UNL     1       6.635  -7.971   1.522  0.00  0.00    -0.296 N 
ATOM      4  C   UNL     1       7.991  -7.566   1.081  0.00  0.00    +0.115 C 
ATOM      5  C   UNL     1       7.752  -6.743  -0.200  0.00  0.00    -0.004 C 
ATOM      6  C   UNL     1       8.728  -5.573  -0.265  0.00  0.00    -0.010 C 
ATOM      7  C   UNL     1      10.152  -6.111  -0.436  0.00  0.00    -0.082 C 
ATOM      8  N   UNL     1      10.231  -6.909  -1.665  0.00  0.00    +0.379 N 
ATOM      9  C   UNL     1       9.358  -8.084  -1.556  0.00  0.00    -0.082 C 
ATOM     10  C   UNL     1       7.901  -7.629  -1.433  0.00  0.00    -0.010 C 
ATOM     11  C   UNL     1       6.255  -9.154   2.043  0.00  0.00    +0.249 C 
ATOM     12  O   UNL     1       5.079  -9.370   2.267  0.00  0.00    -0.270 OA
ATOM     13  H   UNL     1       9.939  -6.346  -2.450  0.00  0.00    -0.086 HD
ATOM     14  H   UNL     1      11.183  -7.211  -1.808  0.00  0.00    -0.086 HD
ENDROOT
BRANCH  11  15
ATOM     15  C   UNL     1       7.264 -10.188   2.342  0.00  0.00    +0.072 A 
ATOM     16  C   UNL     1       8.533  -9.818   2.797  0.00  0.00    +0.019 A 
ATOM     17  C   UNL     1       9.472 -10.787   3.074  0.00  0.00    +0.039 A 
ATOM     18  C   UNL     1       9.162 -12.129   2.904  0.00  0.00    +0.126 A 
ATOM     19  C   UNL     1       7.907 -12.504   2.453  0.00  0.00    +0.077 A 
ATOM     20  C   UNL     1       6.954 -11.542   2.177  0.00  0.00    +0.138 A 
ATOM     21  F   UNL     1       5.728 -11.908   1.743  0.00  0.00    -0.205 F 
ATOM     22  F   UNL     1      10.088 -13.073   3.177  0.00  0.00    -0.205 F 
ENDBRANCH  11  15
BRANCH   1  24
ATOM     23  N   UNL     1       6.292  -4.036  -1.237  0.00  0.00    -0.314 N 
ATOM     24  C   UNL     1       6.289  -4.719  -0.075  0.00  0.00    +0.218 C 
ATOM     25  O   UNL     1       6.272  -4.121   0.980  0.00  0.00    -0.275 OA
ATOM     26  H   UNL     1       6.305  -4.515  -2.081  0.00  0.00    +0.149 HD
BRANCH  23  27
ATOM     27  C   UNL     1       6.274  -2.571  -1.226  0.00  0.00    +0.123 C 
BRANCH  27  28
ATOM     28  C   UNL     1       6.280  -2.050  -2.664  0.00  0.00    +0.120 C 
BRANCH  28  29
ATOM     29  N   UNL     1       6.262  -0.585  -2.653  0.00  0.00    -0.342 N 
ATOM     30  H   UNL     1       6.249  -0.107  -1.809  0.00  0.00    +0.146 HD
BRANCH  29  34
ATOM     31  C   UNL     1       6.270   1.525  -6.243  0.00  0.00    +0.000 A 
ATOM     32  C   UNL     1       6.251   2.208  -5.041  0.00  0.00    +0.002 A 
ATOM     33  C   UNL     1       6.248   1.511  -3.848  0.00  0.00    +0.023 A 
ATOM     34  C   UNL     1       6.265   0.122  -3.857  0.00  0.00    +0.027 A 
ATOM     35  C   UNL     1       6.285  -0.561  -5.066  0.00  0.00    +0.023 A 
ATOM     36  C   UNL     1       6.287   0.142  -6.255  0.00  0.00    +0.002 A 
ENDBRANCH  29  34
ENDBRANCH  28  29
ENDBRANCH  27  28
ENDBRANCH  23  27
ENDBRANCH   1  24
TORSDOF 6
