REMARK  Name = ZINC35760647
REMARK  12 active torsions:
REMARK  status: ('A' for Active; 'I' for Inactive)
REMARK    1  A    between atoms: C_1  and  C_2
REMARK    2  A    between atoms: C_2  and  C_3
REMARK    3  A    between atoms: C_2  and  C_4
REMARK    4  A    between atoms: C_2  and  N_5
REMARK    5  A    between atoms: N_16  and  C_25
REMARK    6  A    between atoms: N_18  and  C_19
REMARK    7  A    between atoms: C_25  and  C_26
REMARK    8  A    between atoms: N_28  and  C_29
REMARK    9  A    between atoms: C_29  and  C_30
REMARK   10  A    between atoms: C_30  and  C_31
REMARK   11  A    between atoms: C_36  and  O_37
REMARK   12  A    between atoms: O_37  and  C_38
REMARK                            x       y       z     vdW  Elec       q    Type
REMARK                         _______ _______ _______ _____ _____    ______ ____
ROOT
ATOM      1  N   UNL     1       0.159  -0.999  -1.580  0.00  0.00    -0.294 N 
ATOM      2  C   UNL     1       1.402  -0.487  -1.680  0.00  0.00    +0.303 C 
ATOM      3  O   UNL     1       1.781   0.348  -0.882  0.00  0.00    -0.253 OA
ATOM      4  N   UNL     1       2.224  -0.903  -2.663  0.00  0.00    -0.285 N 
ATOM      5  C   UNL     1       1.742  -1.820  -3.705  0.00  0.00    +0.112 C 
ATOM      6  C   UNL     1       2.029  -1.202  -5.077  0.00  0.00    +0.054 C 
ATOM      7  C   UNL     1       3.514  -0.854  -5.176  0.00  0.00    +0.115 C 
ATOM      8  C   UNL     1       3.890   0.160  -4.095  0.00  0.00    +0.054 C 
ATOM      9  C   UNL     1       3.618  -0.442  -2.718  0.00  0.00    +0.112 C 
ATOM     10  C   UNL     1       3.824  -0.294  -6.540  0.00  0.00    +0.241 C 
ATOM     11  O   UNL     1       3.340   0.712  -7.014  0.00  0.00    -0.273 OA
ATOM     12  N   UNL     1       4.724  -1.087  -7.146  0.00  0.00    -0.275 N 
ATOM     13  C   UNL     1       5.082  -2.205  -6.274  0.00  0.00    +0.217 C 
ATOM     14  N   UNL     1       4.323  -2.070  -5.024  0.00  0.00    -0.300 N 
ATOM     15  H   UNL     1      -0.170  -1.611  -2.257  0.00  0.00    +0.151 HD
ENDROOT
BRANCH  14  16
ATOM     16  C   UNL     1       4.364  -2.921  -3.918  0.00  0.00    +0.032 A 
ATOM     17  C   UNL     1       3.644  -2.608  -2.772  0.00  0.00    +0.023 A 
ATOM     18  C   UNL     1       3.686  -3.453  -1.680  0.00  0.00    +0.002 A 
ATOM     19  C   UNL     1       4.443  -4.609  -1.727  0.00  0.00    +0.000 A 
ATOM     20  C   UNL     1       5.161  -4.924  -2.867  0.00  0.00    +0.002 A 
ATOM     21  C   UNL     1       5.119  -4.086  -3.964  0.00  0.00    +0.023 A 
ENDBRANCH  14  16
BRANCH   1  23
ATOM     22  C   UNL     1      -0.919   0.885  -0.452  0.00  0.00    +0.031 C 
ATOM     23  C   UNL     1      -0.697  -0.629  -0.450  0.00  0.00    +0.028 C 
ATOM     24  C   UNL     1      -0.021  -1.044   0.858  0.00  0.00    +0.031 C 
ATOM     25  C   UNL     1      -2.045  -1.342  -0.576  0.00  0.00    +0.031 C 
ENDBRANCH   1  23
BRANCH  12  26
ATOM     26  C   UNL     1       5.268  -0.863  -8.488  0.00  0.00    +0.205 C 
BRANCH  26  27
ATOM     27  C   UNL     1       6.510  -0.015  -8.391  0.00  0.00    +0.230 C 
ATOM     28  O   UNL     1       6.902   0.365  -7.309  0.00  0.00    -0.274 OA
ATOM     29  N   UNL     1       7.184   0.321  -9.509  0.00  0.00    -0.314 N 
ATOM     30  H   UNL     1       6.871   0.017 -10.375  0.00  0.00    +0.149 HD
BRANCH  29  31
ATOM     31  C   UNL     1       8.392   1.145  -9.415  0.00  0.00    +0.109 C 
BRANCH  31  32
ATOM     32  C   UNL     1       8.960   1.379 -10.816  0.00  0.00    +0.057 C 
BRANCH  32  33
ATOM     33  C   UNL     1      10.202   2.227 -10.720  0.00  0.00    -0.004 A 
ATOM     34  C   UNL     1      10.117   3.597 -10.879  0.00  0.00    +0.007 A 
ATOM     35  C   UNL     1      11.257   4.375 -10.792  0.00  0.00    +0.000 A 
ATOM     36  C   UNL     1      12.483   3.786 -10.544  0.00  0.00    +0.004 A 
ATOM     37  C   UNL     1      12.572   2.417 -10.384  0.00  0.00    +0.046 A 
ATOM     38  C   UNL     1      11.430   1.634 -10.466  0.00  0.00    +0.123 A 
BRANCH  38  39
ATOM     39  O   UNL     1      11.514   0.287 -10.304  0.00  0.00    -0.495 OA
ATOM     40  C   UNL     1      12.811  -0.255 -10.045  0.00  0.00    +0.277 C 
ENDBRANCH  38  39
ENDBRANCH  32  33
ENDBRANCH  31  32
ENDBRANCH  29  31
ENDBRANCH  26  27
ENDBRANCH  12  26
TORSDOF 8
