REMARK  Name = ZINC36611787
REMARK  10 active torsions:
REMARK  status: ('A' for Active; 'I' for Inactive)
REMARK    1  A    between atoms: C_1  and  C_2
REMARK    2  A    between atoms: C_2  and  N_3
REMARK    3  A    between atoms: C_5  and  C_8
REMARK    4  A    between atoms: C_9  and  C_10
REMARK    5  A    between atoms: N_12  and  C_13
REMARK    6  A    between atoms: C_13  and  N_15
REMARK    7  A    between atoms: N_15  and  C_16
REMARK    8  A    between atoms: C_18  and  C_31
REMARK    9  A    between atoms: C_20  and  C_28
REMARK   10  A    between atoms: C_24  and  C_25
REMARK                            x       y       z     vdW  Elec       q    Type
REMARK                         _______ _______ _______ _____ _____    ______ ____
ROOT
ATOM      1  C   UNL     1     -10.763  -4.753  -2.355  0.00  0.00    +0.062 A 
ATOM      2  C   UNL     1     -12.155  -4.794  -1.935  0.00  0.00    +0.033 A 
ATOM      3  C   UNL     1     -12.835  -3.930  -1.040  0.00  0.00    -0.031 A 
ATOM      4  C   UNL     1     -14.166  -4.154  -0.780  0.00  0.00    +0.033 A 
ATOM      5  C   UNL     1     -14.832  -5.210  -1.387  0.00  0.00    +0.108 A 
ATOM      6  N   UNL     1     -14.196  -6.011  -2.219  0.00  0.00    -0.239 NA
ATOM      7  C   UNL     1     -12.922  -5.838  -2.499  0.00  0.00    +0.111 A 
ATOM      8  S   UNL     1     -11.771  -6.697  -3.544  0.00  0.00    -0.062 S 
ATOM      9  C   UNL     1     -10.321  -5.703  -3.248  0.00  0.00    +0.097 A 
ENDROOT
BRANCH   9  10
ATOM     10  C   UNL     1      -8.983  -5.861  -3.815  0.00  0.00    +0.250 C 
ATOM     11  O   UNL     1      -8.062  -5.181  -3.400  0.00  0.00    -0.270 OA
ATOM     12  N   UNL     1      -8.769  -6.759  -4.796  0.00  0.00    -0.325 N 
ATOM     13  H   UNL     1      -9.503  -7.301  -5.127  0.00  0.00    +0.145 HD
ATOM     14  H   UNL     1      -7.881  -6.864  -5.173  0.00  0.00    +0.145 HD
ENDBRANCH   9  10
BRANCH   5  15
ATOM     15  C   UNL     1     -16.291  -5.442  -1.093  0.00  0.00    +0.390 C 
ATOM     16  F   UNL     1     -16.577  -6.808  -1.201  0.00  0.00    -0.202 F 
ATOM     17  F   UNL     1     -16.580  -5.007   0.205  0.00  0.00    -0.202 F 
ENDBRANCH   5  15
BRANCH   3  18
ATOM     18  C   UNL     1     -12.110  -2.785  -0.382  0.00  0.00    +0.020 C 
ATOM     19  C   UNL     1     -12.893  -1.934   0.619  0.00  0.00    +0.009 C 
ATOM     20  C   UNL     1     -12.542  -1.366  -0.757  0.00  0.00    +0.009 C 
ENDBRANCH   3  18
BRANCH   1  21
ATOM     21  N   UNL     1      -9.901  -3.774  -1.872  0.00  0.00    -0.295 N 
ATOM     22  H   UNL     1     -10.132  -2.836  -1.964  0.00  0.00    +0.154 HD
BRANCH  21  23
ATOM     23  C   UNL     1      -8.745  -4.128  -1.276  0.00  0.00    +0.141 C 
ATOM     24  S   UNL     1      -8.373  -5.783  -1.045  0.00  0.00    -0.018 S 
BRANCH  23  27
ATOM     25  C   UNL     1      -6.727  -3.533  -0.266  0.00  0.00    +0.242 C 
ATOM     26  O   UNL     1      -6.462  -4.710  -0.102  0.00  0.00    -0.270 OA
ATOM     27  N   UNL     1      -7.882  -3.179  -0.862  0.00  0.00    -0.264 N 
ATOM     28  H   UNL     1      -8.093  -2.241  -0.993  0.00  0.00    +0.157 HD
BRANCH  25  30
ATOM     29  C   UNL     1      -4.660  -2.891   0.767  0.00  0.00    +0.016 C 
ATOM     30  C   UNL     1      -5.819  -2.536   0.170  0.00  0.00    +0.068 C 
BRANCH  29  33
ATOM     31  N   UNL     1      -1.962  -0.862   2.085  0.00  0.00    -0.271 N 
ATOM     32  C   UNL     1      -2.503  -2.068   1.842  0.00  0.00    +0.116 A 
ATOM     33  C   UNL     1      -3.720  -1.857   1.218  0.00  0.00    +0.013 A 
ATOM     34  C   UNL     1      -3.888  -0.457   1.097  0.00  0.00    +0.142 A 
ATOM     35  N   UNL     1      -2.842   0.121   1.620  0.00  0.00    -0.179 NA
BRANCH  31  37
ATOM     36  C   UNL     1       0.195   0.261   1.831  0.00  0.00    +0.029 C 
ATOM     37  C   UNL     1      -0.672  -0.618   2.734  0.00  0.00    +0.140 C 
ENDBRANCH  31  37
ENDBRANCH  29  33
ENDBRANCH  25  30
ENDBRANCH  23  27
ENDBRANCH  21  23
ENDBRANCH   1  21
TORSDOF 9
