REMARK  Name = ZINC01830514
REMARK  9 active torsions:
REMARK  status: ('A' for Active; 'I' for Inactive)
REMARK    1  A    between atoms: C_9  and  S_13
REMARK    2  A    between atoms: S_13  and  C_14
REMARK    3  A    between atoms: C_14  and  C_15
REMARK    4  A    between atoms: C_15  and  C_16
REMARK    5  A    between atoms: C_16  and  C_17
REMARK    6  A    between atoms: N_19  and  C_20
REMARK    7  A    between atoms: C_20  and  C_21
REMARK    8  A    between atoms: C_21  and  C_22
REMARK    9  A    between atoms: C_22  and  O_23
REMARK                            x       y       z     vdW  Elec       q    Type
REMARK                         _______ _______ _______ _____ _____    ______ ____
ROOT
ATOM      1  C   UNL     1      -0.139   1.691   1.136  0.00  0.00    +0.005 C 
ATOM      2  C   UNL     1       0.687   1.341  -0.106  0.00  0.00    +0.005 C 
ATOM      3  C   UNL     1      -0.081   1.794  -1.355  0.00  0.00    +0.043 C 
ATOM      4  C   UNL     1      -0.558   3.197  -1.136  0.00  0.00    -0.004 A 
ATOM      5  C   UNL     1      -0.614   3.870   0.035  0.00  0.00    -0.025 A 
ATOM      6  C   UNL     1      -1.120   5.232  -0.018  0.00  0.00    +0.051 A 
ATOM      7  C   UNL     1      -1.273   6.135   1.075  0.00  0.00    +0.129 A 
ATOM      8  N   UNL     1      -1.761   7.335   0.775  0.00  0.00    -0.207 NA
ATOM      9  C   UNL     1      -2.097   7.711  -0.450  0.00  0.00    +0.191 A 
ATOM     10  N   UNL     1      -1.978   6.914  -1.514  0.00  0.00    -0.215 NA
ATOM     11  C   UNL     1      -1.500   5.705  -1.299  0.00  0.00    +0.115 A 
ATOM     12  S   UNL     1      -1.170   4.332  -2.357  0.00  0.00    -0.073 S 
ATOM     13  N   UNL     1      -0.935   5.783   2.369  0.00  0.00    -0.343 N 
ATOM     14  C   UNL     1      -0.161   3.206   1.333  0.00  0.00    +0.037 C 
ATOM     15  H   UNL     1      -1.267   6.305   3.116  0.00  0.00    +0.144 HD
ATOM     16  H   UNL     1      -0.366   5.014   2.530  0.00  0.00    +0.144 HD
ENDROOT
BRANCH   9  17
ATOM     17  S   UNL     1      -2.731   9.338  -0.686  0.00  0.00    -0.086 S 
BRANCH  17  18
ATOM     18  C   UNL     1      -2.677   9.947   1.018  0.00  0.00    +0.078 C 
BRANCH  18  19
ATOM     19  C   UNL     1      -3.197  11.385   1.063  0.00  0.00    +0.020 C 
BRANCH  19  20
ATOM     20  C   UNL     1      -3.151  11.899   2.503  0.00  0.00    +0.096 C 
BRANCH  20  21
ATOM     21  C   UNL     1      -3.663  13.316   2.548  0.00  0.00    +0.213 C 
ATOM     22  O   UNL     1      -4.028  13.861   1.528  0.00  0.00    -0.276 OA
ATOM     23  N   UNL     1      -3.714  13.977   3.721  0.00  0.00    -0.315 N 
ATOM     24  H   UNL     1      -3.422  13.541   4.537  0.00  0.00    +0.149 HD
BRANCH  23  25
ATOM     25  C   UNL     1      -4.212  15.355   3.764  0.00  0.00    +0.106 C 
BRANCH  25  26
ATOM     26  C   UNL     1      -4.166  15.869   5.204  0.00  0.00    +0.046 C 
BRANCH  26  27
ATOM     27  C   UNL     1      -4.686  17.307   5.249  0.00  0.00    +0.157 C 
BRANCH  27  28
ATOM     28  O   UNL     1      -4.643  17.787   6.594  0.00  0.00    -0.395 OA
ATOM     29  H   UNL     1      -4.959  18.695   6.698  0.00  0.00    +0.209 HD
ENDBRANCH  27  28
ENDBRANCH  26  27
ENDBRANCH  25  26
ENDBRANCH  23  25
ENDBRANCH  20  21
ENDBRANCH  19  20
ENDBRANCH  18  19
ENDBRANCH  17  18
ENDBRANCH   9  17
TORSDOF 9
