REMARK  Name = ZINC01235348
REMARK  5 active torsions:
REMARK  status: ('A' for Active; 'I' for Inactive)
REMARK    1  A    between atoms: C_1  and  C_2
REMARK    2  A    between atoms: C_2  and  C_3
REMARK    3  A    between atoms: C_2  and  C_4
REMARK    4  A    between atoms: C_4  and  C_5
REMARK    5  A    between atoms: C_11  and  C_19
REMARK                            x       y       z     vdW  Elec       q    Type
REMARK                         _______ _______ _______ _____ _____    ______ ____
ROOT
ATOM      1  C   UNL     1       2.165  -0.079  -1.208  0.00  0.00    +0.219 C 
ATOM      2  O   UNL     1       2.583   0.551  -0.260  0.00  0.00    -0.275 OA
ATOM      3  N   UNL     1       2.995  -0.406  -2.218  0.00  0.00    -0.255 N 
ATOM      4  C   UNL     1       4.331  -0.021  -2.173  0.00  0.00    +0.229 C 
ATOM      5  N   UNL     1       5.225  -0.273  -3.090  0.00  0.00    -0.143 NA
ATOM      6  N   UNL     1       6.434   0.276  -2.674  0.00  0.00    -0.184 N 
ATOM      7  C   UNL     1       7.745   0.253  -3.327  0.00  0.00    +0.140 C 
ATOM      8  C   UNL     1       8.501   1.524  -2.923  0.00  0.00    +0.127 C 
ATOM      9  C   UNL     1       8.314   1.816  -1.460  0.00  0.00    +0.241 C 
ATOM     10  O   UNL     1       9.222   2.339  -0.844  0.00  0.00    -0.274 OA
ATOM     11  N   UNL     1       7.188   1.522  -0.821  0.00  0.00    -0.148 NA
ATOM     12  C   UNL     1       6.223   0.878  -1.478  0.00  0.00    +0.222 C 
ATOM     13  N   UNL     1       4.924   0.695  -1.157  0.00  0.00    -0.149 NA
ATOM     14  H   UNL     1       2.662  -0.910  -2.977  0.00  0.00    +0.158 HD
ENDROOT
BRANCH   7  15
ATOM     15  C   UNL     1       7.568   0.219  -4.823  0.00  0.00    -0.025 A 
ATOM     16  C   UNL     1       6.584   0.985  -5.420  0.00  0.00    +0.007 A 
ATOM     17  C   UNL     1       6.421   0.954  -6.792  0.00  0.00    +0.020 A 
ATOM     18  C   UNL     1       7.242   0.157  -7.569  0.00  0.00    +0.041 A 
ATOM     19  C   UNL     1       8.226  -0.610  -6.971  0.00  0.00    +0.020 A 
ATOM     20  C   UNL     1       8.393  -0.574  -5.599  0.00  0.00    +0.007 A 
ATOM     21 CL   UNL     1       7.037   0.117  -9.292  0.00  0.00    -0.084 Cl
ENDBRANCH   7  15
BRANCH   1  22
ATOM     22  C   UNL     1       0.718  -0.497  -1.257  0.00  0.00    +0.099 C 
BRANCH  22  24
ATOM     23  C   UNL     1      -0.019   1.526   0.010  0.00  0.00    +0.008 C 
ATOM     24  C   UNL     1       0.002  -0.004   0.002  0.00  0.00    -0.008 C 
ATOM     25  C   UNL     1      -1.433  -0.534   0.013  0.00  0.00    +0.008 C 
ENDBRANCH  22  24
ENDBRANCH   1  22
TORSDOF 3
