REMARK  Name = ZINC00507290
REMARK  4 active torsions:
REMARK  status: ('A' for Active; 'I' for Inactive)
REMARK    1  A    between atoms: C_1  and  C_2
REMARK    2  A    between atoms: C_2  and  C_8
REMARK    3  A    between atoms: C_8  and  O_23
REMARK    4  A    between atoms: C_10  and  C_17
REMARK                            x       y       z     vdW  Elec       q    Type
REMARK                         _______ _______ _______ _____ _____    ______ ____
ROOT
ATOM      1  C   UNL     1       0.277   1.686   2.799  0.00  0.00    +0.157 C 
ATOM      2  C   UNL     1      -1.010   1.759   1.942  0.00  0.00    +0.082 C 
ATOM      3  C   UNL     1      -0.414   1.978   0.524  0.00  0.00    +0.107 C 
ATOM      4  N   UNL     1       0.783   2.805   0.823  0.00  0.00    -0.227 NA
ATOM      5  N   UNL     1       1.325   2.325   1.987  0.00  0.00    -0.189 N 
ATOM      6  C   UNL     1       2.623   2.423   2.335  0.00  0.00    +0.316 C 
ATOM      7  O   UNL     1       2.983   2.072   3.442  0.00  0.00    -0.251 OA
ATOM      8  N   UNL     1       3.522   2.909   1.457  0.00  0.00    -0.312 N 
ATOM      9  H   UNL     1       1.451   2.760   0.067  0.00  0.00    +0.145 HD
ATOM     10  H   UNL     1       3.235   3.188   0.573  0.00  0.00    +0.147 HD
ATOM     11  H   UNL     1       4.457   2.979   1.707  0.00  0.00    +0.147 HD
ENDROOT
BRANCH   1  13
ATOM     12  C   UNL     1       1.880   0.178   3.981  0.00  0.00    +0.016 C 
ATOM     13  C   UNL     1       0.642   0.228   3.084  0.00  0.00    +0.015 C 
ATOM     14  C   UNL     1       0.938  -0.490   1.766  0.00  0.00    +0.011 C 
ATOM     15  C   UNL     1       1.303  -1.948   2.051  0.00  0.00    +0.001 C 
ATOM     16  C   UNL     1       0.134  -2.639   2.756  0.00  0.00    +0.000 C 
ATOM     17  C   UNL     1      -0.162  -1.920   4.074  0.00  0.00    +0.001 C 
ATOM     18  C   UNL     1      -0.527  -0.462   3.789  0.00  0.00    +0.011 C 
ENDBRANCH   1  13
BRANCH   3  19
ATOM     19  C   UNL     1      -1.380   2.725  -0.358  0.00  0.00    -0.029 A 
ATOM     20  C   UNL     1      -1.543   4.090  -0.204  0.00  0.00    +0.005 A 
ATOM     21  C   UNL     1      -2.426   4.776  -1.016  0.00  0.00    +0.000 A 
ATOM     22  C   UNL     1      -3.153   4.097  -1.976  0.00  0.00    +0.000 A 
ATOM     23  C   UNL     1      -2.994   2.732  -2.127  0.00  0.00    +0.000 A 
ATOM     24  C   UNL     1      -2.108   2.046  -1.317  0.00  0.00    +0.005 A 
ENDBRANCH   3  19
BRANCH   1  25
ATOM     25  O   UNL     1       0.096   2.400   4.024  0.00  0.00    -0.370 OA
ATOM     26  H   UNL     1      -0.157   3.326   3.905  0.00  0.00    +0.212 HD
ENDBRANCH   1  25
TORSDOF 3
