REMARK  Name = ZINC49570586
REMARK  4 active torsions:
REMARK  status: ('A' for Active; 'I' for Inactive)
REMARK    1  A    between atoms: C_1  and  C_2
REMARK    2  A    between atoms: C_2  and  C_4
REMARK    3  A    between atoms: C_2  and  N_11
REMARK    4  A    between atoms: C_14  and  C_18
REMARK                            x       y       z     vdW  Elec       q    Type
REMARK                         _______ _______ _______ _____ _____    ______ ____
ROOT
ATOM      1  N   UNL     1      -1.372  -0.511   0.012  0.00  0.00    -0.324 N 
ATOM      2  C   UNL     1      -2.072  -0.647  -1.181  0.00  0.00    +0.097 A 
ATOM      3  C   UNL     1      -1.458  -0.304  -2.382  0.00  0.00    +0.056 A 
ATOM      4  C   UNL     1      -2.175  -0.447  -3.571  0.00  0.00    +0.068 A 
ATOM      5  C   UNL     1      -3.487  -0.932  -3.500  0.00  0.00    +0.032 A 
ATOM      6  C   UNL     1      -4.021  -1.248  -2.267  0.00  0.00    +0.085 A 
ATOM      7  N   UNL     1      -3.313  -1.105  -1.163  0.00  0.00    -0.350 N 
ATOM      8  H   UNL     1      -1.794  -0.752   0.852  0.00  0.00    +0.148 HD
ATOM      9  H   UNL     1      -3.716  -1.340  -0.313  0.00  0.00    +0.166 HD
ENDROOT
BRANCH   4  10
ATOM     10  C   UNL     1      -1.565  -0.095  -4.872  0.00  0.00    +0.387 C 
ATOM     11  O   UNL     1      -0.418   0.327  -4.916  0.00  0.00    -0.241 OA
ATOM     12  O   UNL     1      -2.207  -0.227  -5.904  0.00  0.00    -0.241 OA
ENDBRANCH   4  10
BRANCH   1  14
ATOM     13  C   UNL     1      -0.019   1.526   0.010  0.00  0.00    +0.033 C 
ATOM     14  C   UNL     1       0.002  -0.004   0.002  0.00  0.00    +0.099 C 
BRANCH  14  15
ATOM     15  C   UNL     1       0.731  -0.503   1.223  0.00  0.00    -0.026 A 
ATOM     16  C   UNL     1       0.081  -0.558   2.442  0.00  0.00    +0.005 A 
ATOM     17  C   UNL     1       0.749  -1.016   3.562  0.00  0.00    +0.001 A 
ATOM     18  C   UNL     1       2.067  -1.419   3.464  0.00  0.00    +0.015 A 
ATOM     19  C   UNL     1       2.718  -1.365   2.245  0.00  0.00    +0.018 A 
ATOM     20  C   UNL     1       2.048  -0.911   1.123  0.00  0.00    +0.020 A 
ATOM     21 BR   UNL     1       4.522  -1.915   2.110  0.00  0.00    -0.050 Br
ENDBRANCH  14  15
ENDBRANCH   1  14
TORSDOF 3
