REMARK  Name = ZINC36922460
REMARK  5 active torsions:
REMARK  status: ('A' for Active; 'I' for Inactive)
REMARK    1  A    between atoms: C_1  and  C_2
REMARK    2  A    between atoms: C_2  and  C_4
REMARK    3  A    between atoms: C_2  and  N_8
REMARK    4  A    between atoms: C_4  and  C_7
REMARK    5  A    between atoms: N_8  and  C_9
REMARK                            x       y       z     vdW  Elec       q    Type
REMARK                         _______ _______ _______ _____ _____    ______ ____
ROOT
ATOM      1  C   UNL     1      -0.020  -0.613  -2.403  0.00  0.00    +0.050 A 
ATOM      2  C   UNL     1      -1.370  -0.296  -2.453  0.00  0.00    +0.073 A 
ATOM      3  C   UNL     1      -2.071  -0.431  -3.642  0.00  0.00    +0.164 A 
ATOM      4  C   UNL     1      -1.420  -0.882  -4.783  0.00  0.00    +0.164 A 
ATOM      5  C   UNL     1      -0.071  -1.200  -4.730  0.00  0.00    +0.071 A 
ATOM      6  C   UNL     1       0.629  -1.061  -3.546  0.00  0.00    +0.065 A 
ATOM      7 CL   UNL     1       2.320  -1.453  -3.487  0.00  0.00    -0.082 Cl
ATOM      8  O   UNL     1      -2.090  -1.013  -5.962  0.00  0.00    -0.485 OA
ATOM      9  C   UNL     1      -3.520  -1.042  -5.889  0.00  0.00    +0.270 C 
ATOM     10  C   UNL     1      -3.977   0.093  -4.964  0.00  0.00    +0.270 C 
ATOM     11  O   UNL     1      -3.396  -0.119  -3.673  0.00  0.00    -0.485 OA
ENDROOT
BRANCH   1  12
ATOM     12  N   UNL     1       0.688  -0.476  -1.203  0.00  0.00    -0.340 N 
ATOM     13  H   UNL     1       1.632  -0.695  -1.170  0.00  0.00    +0.146 HD
BRANCH  12  15
ATOM     14  C   UNL     1      -0.019   1.526   0.010  0.00  0.00    +0.028 C 
ATOM     15  C   UNL     1       0.002  -0.004   0.002  0.00  0.00    +0.073 C 
BRANCH  15  16
ATOM     16  C   UNL     1       0.742  -0.511   1.242  0.00  0.00    -0.014 C 
ATOM     17  C   UNL     1       1.469   0.524   2.103  0.00  0.00    +0.009 C 
ATOM     18  C   UNL     1       0.178  -0.122   2.610  0.00  0.00    +0.009 C 
ATOM     19  C   UNL     1       1.381  -1.895   1.109  0.00  0.00    +0.013 C 
ENDBRANCH  15  16
ENDBRANCH  12  15
ENDBRANCH   1  12
TORSDOF 3
