REMARK  Name = ZINC39364470
REMARK  5 active torsions:
REMARK  status: ('A' for Active; 'I' for Inactive)
REMARK    1  A    between atoms: C_1  and  N_2
REMARK    2  A    between atoms: N_2  and  C_3
REMARK    3  A    between atoms: N_2  and  C_4
REMARK    4  A    between atoms: C_5  and  N_13
REMARK    5  A    between atoms: C_17  and  C_20
REMARK                            x       y       z     vdW  Elec       q    Type
REMARK                         _______ _______ _______ _____ _____    ______ ____
ROOT
ATOM      1  N   UNL     1       0.984  -2.376  -0.005  0.00  0.00    -0.315 N 
ATOM      2  C   UNL     1       0.881  -1.586   1.230  0.00  0.00    +0.106 C 
ATOM      3  C   UNL     1       0.203  -2.441   2.306  0.00  0.00    +0.020 C 
ATOM      4  C   UNL     1       0.967  -3.757   2.463  0.00  0.00    +0.014 C 
ATOM      5  C   UNL     1       0.934  -4.529   1.142  0.00  0.00    +0.072 C 
ATOM      6  C   UNL     1       1.615  -3.701   0.054  0.00  0.00    +0.117 C 
ENDROOT
BRANCH   1   8
ATOM      7  C   UNL     1       1.317  -1.228  -2.060  0.00  0.00    +0.160 C 
ATOM      8  C   UNL     1       0.487  -1.879  -1.209  0.00  0.00    +0.133 C 
ATOM      9  N   UNL     1      -0.851  -2.055  -1.525  0.00  0.00    -0.279 N 
ATOM     10  C   UNL     1      -1.317  -1.552  -2.727  0.00  0.00    +0.211 C 
ATOM     11  N   UNL     1      -2.491  -1.555  -3.299  0.00  0.00    -0.034 NA
ATOM     12  O   UNL     1      -2.408  -0.890  -4.545  0.00  0.00    -0.265 OA
ATOM     13  N   UNL     1      -1.069  -0.457  -4.723  0.00  0.00    -0.174 N 
ATOM     14  C   UNL     1      -0.370  -0.858  -3.603  0.00  0.00    +0.209 C 
ATOM     15  N   UNL     1       0.885  -0.726  -3.229  0.00  0.00    -0.206 NA
ATOM     16  H   UNL     1      -0.714   0.028  -5.485  0.00  0.00    +0.212 HD
ATOM     17  H   UNL     1      -1.446  -2.521  -0.917  0.00  0.00    +0.155 HD
BRANCH   7  19
ATOM     18  C   UNL     1       3.669  -2.027  -2.180  0.00  0.00    +0.130 C 
ATOM     19  N   UNL     1       2.669  -1.067  -1.706  0.00  0.00    -0.319 N 
ATOM     20  C   UNL     1       3.077   0.060  -0.864  0.00  0.00    +0.130 C 
ENDBRANCH   7  19
ENDBRANCH   1   8
BRANCH   5  21
ATOM     21  C   UNL     1       1.658  -5.840   1.307  0.00  0.00    +0.113 A 
ATOM     22  N   UNL     1       1.325  -6.954   0.724  0.00  0.00    -0.232 NA
ATOM     23  C   UNL     1       2.187  -7.937   1.091  0.00  0.00    +0.089 A 
ATOM     24  C   UNL     1       2.294  -9.293   0.771  0.00  0.00    +0.030 A 
ATOM     25  C   UNL     1       3.298 -10.043   1.315  0.00  0.00    +0.002 A 
ATOM     26  C   UNL     1       4.217  -9.472   2.185  0.00  0.00    +0.002 A 
ATOM     27  C   UNL     1       4.130  -8.136   2.514  0.00  0.00    +0.028 A 
ATOM     28  C   UNL     1       3.117  -7.359   1.971  0.00  0.00    +0.066 A 
ATOM     29  N   UNL     1       2.759  -6.030   2.083  0.00  0.00    -0.342 N 
ATOM     30  H   UNL     1       3.208  -5.357   2.618  0.00  0.00    +0.167 HD
ENDBRANCH   5  21
TORSDOF 3
