REMARK  Name = ZINC06566419
REMARK  9 active torsions:
REMARK  status: ('A' for Active; 'I' for Inactive)
REMARK    1  A    between atoms: C_1  and  C_2
REMARK    2  A    between atoms: C_5  and  N_9
REMARK    3  A    between atoms: C_6  and  C_8
REMARK    4  A    between atoms: C_10  and  C_12
REMARK    5  A    between atoms: C_12  and  C_13
REMARK    6  A    between atoms: N_19  and  N_20
REMARK    7  A    between atoms: C_21  and  C_22
REMARK    8  A    between atoms: C_25  and  O_29
REMARK    9  A    between atoms: C_27  and  O_28
REMARK                            x       y       z     vdW  Elec       q    Type
REMARK                         _______ _______ _______ _____ _____    ______ ____
ROOT
ATOM      1  C   UNL     1      -2.310   5.644   0.360  0.00  0.00    +0.149 C 
ATOM      2  C   UNL     1      -3.600   6.408   0.610  0.00  0.00    +0.233 C 
ATOM      3  O   UNL     1      -4.270   6.235   1.606  0.00  0.00    -0.274 OA
ATOM      4  N   UNL     1      -3.948   7.274  -0.328  0.00  0.00    -0.263 N 
ATOM      5  C   UNL     1      -3.191   7.475  -1.463  0.00  0.00    +0.183 C 
ATOM      6  N   UNL     1      -3.426   8.300  -2.461  0.00  0.00    -0.127 NA
ATOM      7  S   UNL     1      -1.815   6.353  -1.260  0.00  0.00    -0.075 S 
ATOM      8  H   UNL     1      -4.764   7.785  -0.213  0.00  0.00    +0.157 HD
ENDROOT
BRANCH   6   9
ATOM      9  N   UNL     1      -2.534   8.367  -3.539  0.00  0.00    -0.155 NA
ATOM     10  C   UNL     1      -2.767   9.185  -4.529  0.00  0.00    +0.146 C 
BRANCH  10  11
ATOM     11  C   UNL     1      -1.831   9.256  -5.661  0.00  0.00    +0.036 A 
ATOM     12  C   UNL     1      -2.078  10.132  -6.723  0.00  0.00    +0.016 A 
ATOM     13  C   UNL     1      -1.198  10.194  -7.781  0.00  0.00    +0.046 A 
ATOM     14  C   UNL     1      -0.065   9.389  -7.798  0.00  0.00    +0.120 A 
ATOM     15  C   UNL     1       0.190   8.518  -6.749  0.00  0.00    +0.091 A 
ATOM     16  C   UNL     1      -0.683   8.449  -5.677  0.00  0.00    +0.129 A 
BRANCH  16  17
ATOM     17  O   UNL     1      -0.432   7.600  -4.647  0.00  0.00    -0.506 OA
ATOM     18  H   UNL     1      -0.812   6.718  -4.763  0.00  0.00    +0.292 HD
ENDBRANCH  16  17
BRANCH  14  19
ATOM     19  O   UNL     1       0.797   9.457  -8.845  0.00  0.00    -0.507 OA
ATOM     20  H   UNL     1       1.502  10.109  -8.733  0.00  0.00    +0.292 HD
ENDBRANCH  14  19
ENDBRANCH  10  11
ENDBRANCH   6   9
BRANCH   1  21
ATOM     21  C   UNL     1      -2.569   4.140   0.252  0.00  0.00    +0.120 C 
BRANCH  21  23
ATOM     22  N   UNL     1      -1.237   2.069   0.019  0.00  0.00    -0.285 N 
ATOM     23  C   UNL     1      -1.255   3.412   0.128  0.00  0.00    +0.219 C 
ATOM     24  O   UNL     1      -0.215   4.035   0.127  0.00  0.00    -0.275 OA
ATOM     25  H   UNL     1      -2.070   1.576  -0.046  0.00  0.00    +0.155 HD
BRANCH  22  30
ATOM     26  C   UNL     1       3.708  -0.710  -0.076  0.00  0.00    +0.044 C 
ATOM     27  C   UNL     1       2.394   0.028  -0.050  0.00  0.00    -0.050 A 
ATOM     28  C   UNL     1       2.295   1.279  -0.632  0.00  0.00    +0.005 A 
ATOM     29  C   UNL     1       1.093   1.959  -0.609  0.00  0.00    +0.024 A 
ATOM     30  C   UNL     1      -0.016   1.385  -0.001  0.00  0.00    +0.036 A 
ATOM     31  C   UNL     1       0.087   0.129   0.582  0.00  0.00    -0.029 A 
ATOM     32  C   UNL     1       1.292  -0.546   0.556  0.00  0.00    +0.008 A 
ATOM     33  C   UNL     1      -1.114  -0.497   1.242  0.00  0.00    +0.045 C 
ENDBRANCH  22  30
ENDBRANCH  21  23
ENDBRANCH   1  21
TORSDOF 7
