REMARK  Name = ZINC01007323
REMARK  5 active torsions:
REMARK  status: ('A' for Active; 'I' for Inactive)
REMARK    1  A    between atoms: C_1  and  O_2
REMARK    2  A    between atoms: O_2  and  C_3
REMARK    3  A    between atoms: C_6  and  O_29
REMARK    4  A    between atoms: C_7  and  C_9
REMARK    5  A    between atoms: C_15  and  C_17
REMARK                            x       y       z     vdW  Elec       q    Type
REMARK                         _______ _______ _______ _____ _____    ______ ____
ROOT
ATOM      1  C   UNL     1      -2.465  -2.866   0.011  0.00  0.00    +0.314 C 
ATOM      2  N   UNL     1      -3.570  -1.993   0.425  0.00  0.00    -0.205 N 
ATOM      3  C   UNL     1      -3.946  -0.812  -0.385  0.00  0.00    +0.136 C 
ATOM      4  C   UNL     1      -5.337  -0.438   0.144  0.00  0.00    +0.087 C 
ATOM      5  C   UNL     1      -5.480  -1.278   1.397  0.00  0.00    +0.075 C 
ATOM      6  N   UNL     1      -4.477  -2.092   1.488  0.00  0.00    -0.184 NA
ATOM      7  C   UNL     1      -3.995  -1.277  -1.817  0.00  0.00    +0.017 A 
ATOM      8  C   UNL     1      -4.625  -0.490  -2.762  0.00  0.00    +0.009 A 
ATOM      9  C   UNL     1      -4.647  -0.875  -4.089  0.00  0.00    +0.001 A 
ATOM     10  C   UNL     1      -4.035  -2.054  -4.470  0.00  0.00    +0.004 A 
ATOM     11  C   UNL     1      -3.413  -2.847  -3.530  0.00  0.00    +0.046 A 
ATOM     12  C   UNL     1      -3.393  -2.471  -2.187  0.00  0.00    +0.129 A 
ATOM     13  O   UNL     1      -2.781  -3.311  -1.314  0.00  0.00    -0.465 OA
ENDROOT
BRANCH   1  18
ATOM     14  C   UNL     1       0.941  -1.590  -1.016  0.00  0.00    +0.121 A 
ATOM     15  C   UNL     1       1.209  -0.675  -0.008  0.00  0.00    +0.049 A 
ATOM     16  C   UNL     1       0.290  -0.470   1.002  0.00  0.00    +0.049 A 
ATOM     17  C   UNL     1      -0.902  -1.180   1.010  0.00  0.00    +0.125 A 
ATOM     18  C   UNL     1      -1.171  -2.095   0.002  0.00  0.00    +0.057 A 
ATOM     19  C   UNL     1      -0.253  -2.296  -1.011  0.00  0.00    +0.058 A 
BRANCH  14  21
ATOM     20  C   UNL     1       3.051  -1.027  -1.955  0.00  0.00    +0.277 C 
ATOM     21  O   UNL     1       1.845  -1.792  -2.010  0.00  0.00    -0.495 OA
ENDBRANCH  14  21
BRANCH  17  22
ATOM     22  O   UNL     1      -1.807  -0.979   2.004  0.00  0.00    -0.506 OA
ATOM     23  H   UNL     1      -2.451  -0.283   1.815  0.00  0.00    +0.292 HD
ENDBRANCH  17  22
ENDBRANCH   1  18
BRANCH   5  24
ATOM     24  C   UNL     1      -6.585  -1.184   2.359  0.00  0.00    +0.035 A 
ATOM     25  C   UNL     1      -6.798  -1.909   3.517  0.00  0.00    +0.017 A 
ATOM     26  C   UNL     1      -7.920  -1.633   4.266  0.00  0.00    +0.008 A 
ATOM     27  C   UNL     1      -8.781  -0.674   3.842  0.00  0.00    +0.046 A 
ATOM     28  S   UNL     1      -8.010  -0.108   2.335  0.00  0.00    -0.095 S 
ENDBRANCH   5  24
TORSDOF 4
