REMARK  Name = ZINC00239380
REMARK  5 active torsions:
REMARK  status: ('A' for Active; 'I' for Inactive)
REMARK    1  A    between atoms: C_1  and  C_2
REMARK    2  A    between atoms: C_5  and  N_8
REMARK    3  A    between atoms: N_8  and  C_9
REMARK    4  A    between atoms: C_10  and  C_21
REMARK    5  A    between atoms: C_17  and  C_20
REMARK                            x       y       z     vdW  Elec       q    Type
REMARK                         _______ _______ _______ _____ _____    ______ ____
ROOT
ATOM      1  C   UNL     1       2.380  -2.707   0.032  0.00  0.00    +0.141 A 
ATOM      2  C   UNL     1       3.591  -2.009  -0.200  0.00  0.00    +0.119 A 
ATOM      3  C   UNL     1       3.580  -0.596  -0.111  0.00  0.00    +0.270 A 
ATOM      4  O   UNL     1       4.598   0.045  -0.302  0.00  0.00    -0.266 OA
ATOM      5  N   UNL     1       2.421   0.029   0.191  0.00  0.00    -0.267 N 
ATOM      6  C   UNL     1       2.401   1.389   0.279  0.00  0.00    +0.096 A 
ATOM      7  C   UNL     1       1.258   2.047   0.577  0.00  0.00    +0.019 A 
ATOM      8  C   UNL     1       0.075   1.332   0.803  0.00  0.00    +0.008 A 
ATOM      9  C   UNL     1       0.085  -0.029   0.718  0.00  0.00    -0.007 A 
ATOM     10  C   UNL     1       1.282  -0.695   0.405  0.00  0.00    +0.145 A 
ATOM     11  N   UNL     1       1.282  -2.027   0.325  0.00  0.00    -0.213 NA
ATOM     12  C   UNL     1      -1.180  -0.813   0.958  0.00  0.00    +0.047 C 
ENDROOT
BRANCH   1  13
ATOM     13  N   UNL     1       2.345  -4.081  -0.044  0.00  0.00    -0.299 N 
ATOM     14  H   UNL     1       3.166  -4.580  -0.176  0.00  0.00    +0.154 HD
BRANCH  13  19
ATOM     15  C   UNL     1      -2.599  -6.823   0.411  0.00  0.00    +0.044 C 
ATOM     16  C   UNL     1      -1.285  -6.095   0.290  0.00  0.00    -0.050 A 
ATOM     17  C   UNL     1      -1.222  -4.896  -0.397  0.00  0.00    +0.005 A 
ATOM     18  C   UNL     1      -0.020  -4.226  -0.509  0.00  0.00    +0.023 A 
ATOM     19  C   UNL     1       1.127  -4.756   0.068  0.00  0.00    +0.032 A 
ATOM     20  C   UNL     1       1.060  -5.963   0.753  0.00  0.00    +0.023 A 
ATOM     21  C   UNL     1      -0.146  -6.626   0.867  0.00  0.00    +0.005 A 
ENDBRANCH  13  19
ENDBRANCH   1  13
BRANCH   2  22
ATOM     22  C   UNL     1       4.777  -2.705  -0.513  0.00  0.00    +0.267 C 
ATOM     23  O   UNL     1       5.807  -2.091  -0.709  0.00  0.00    -0.295 OA
ENDBRANCH   2  22
TORSDOF 3
