REMARK  Name = ZINC51347435
REMARK  8 active torsions:
REMARK  status: ('A' for Active; 'I' for Inactive)
REMARK    1  A    between atoms: C_1  and  C_2
REMARK    2  A    between atoms: N_5  and  S_11
REMARK    3  A    between atoms: C_7  and  C_10
REMARK    4  A    between atoms: S_11  and  C_14
REMARK    5  A    between atoms: C_18  and  C_20
REMARK    6  A    between atoms: C_22  and  C_23
REMARK    7  A    between atoms: C_22  and  C_25
REMARK    8  A    between atoms: N_27  and  C_28
REMARK                            x       y       z     vdW  Elec       q    Type
REMARK                         _______ _______ _______ _____ _____    ______ ____
ROOT
ATOM      1  C   UNL     1      -0.960  -3.194  -2.306  0.00  0.00    +0.106 A 
ATOM      2  C   UNL     1      -1.251  -2.731  -3.578  0.00  0.00    +0.028 A 
ATOM      3  C   UNL     1      -0.685  -3.334  -4.688  0.00  0.00    +0.003 A 
ATOM      4  C   UNL     1       0.174  -4.403  -4.534  0.00  0.00    +0.012 A 
ATOM      5  C   UNL     1       0.472  -4.876  -3.252  0.00  0.00    +0.025 A 
ATOM      6  C   UNL     1      -0.100  -4.258  -2.135  0.00  0.00    +0.040 A 
ENDROOT
BRANCH   1   7
ATOM      7  S   UNL     1      -1.687  -2.418  -0.901  0.00  0.00    +0.061 S 
ATOM      8  O   UNL     1      -1.678  -3.380   0.144  0.00  0.00    -0.153 OA
ATOM      9  O   UNL     1      -2.881  -1.795  -1.354  0.00  0.00    -0.153 OA
BRANCH   7  13
ATOM     10  C   UNL     1       0.487   2.100  -1.877  0.00  0.00    +0.039 C 
ATOM     11  C   UNL     1       0.561   0.623  -1.483  0.00  0.00    +0.131 C 
ATOM     12  C   UNL     1      -0.809   0.159  -0.977  0.00  0.00    +0.140 C 
ATOM     13  N   UNL     1      -0.667  -1.200  -0.432  0.00  0.00    -0.172 NA
ATOM     14  C   UNL     1       0.409  -1.446   0.541  0.00  0.00    +0.140 C 
ATOM     15  C   UNL     1       1.720  -0.904  -0.039  0.00  0.00    +0.131 C 
ATOM     16  O   UNL     1       1.530   0.453  -0.446  0.00  0.00    -0.371 OA
ATOM     17  C   UNL     1       2.817  -0.971   1.026  0.00  0.00    +0.039 C 
ENDBRANCH   7  13
ENDBRANCH   1   7
BRANCH   5  18
ATOM     18  C   UNL     1       1.388  -6.016  -3.079  0.00  0.00    +0.208 C 
ATOM     19  O   UNL     1       0.990  -7.102  -2.385  0.00  0.00    -0.286 OA
ATOM     20  C   UNL     1       2.662  -5.973  -3.630  0.00  0.00    +0.160 C 
BRANCH  20  21
ATOM     21  C   UNL     1       3.161  -4.730  -4.228  0.00  0.00    +0.258 C 
ATOM     22  O   UNL     1       2.509  -3.706  -4.136  0.00  0.00    -0.269 OA
ATOM     23  N   UNL     1       4.341  -4.722  -4.879  0.00  0.00    -0.314 N 
ATOM     24  C   UNL     1       4.839  -3.480  -5.476  0.00  0.00    +0.128 C 
ATOM     25  H   UNL     1       4.860  -5.538  -4.952  0.00  0.00    +0.149 HD
ENDBRANCH  20  21
BRANCH  20  26
ATOM     26  C   UNL     1       3.489  -7.143  -3.615  0.00  0.00    +0.108 C 
ATOM     27  N   UNL     1       4.144  -8.070  -3.603  0.00  0.00    -0.191 NA
ENDBRANCH  20  26
ENDBRANCH   5  18
TORSDOF 5
