REMARK  Name = ZINC00921154
REMARK  13 active torsions:
REMARK  status: ('A' for Active; 'I' for Inactive)
REMARK    1  A    between atoms: C_1  and  C_2
REMARK    2  A    between atoms: C_2  and  O_3
REMARK    3  A    between atoms: O_3  and  C_4
REMARK    4  A    between atoms: C_6  and  C_16
REMARK    5  A    between atoms: C_8  and  O_13
REMARK    6  A    between atoms: C_9  and  O_10
REMARK    7  A    between atoms: O_10  and  C_11
REMARK    8  A    between atoms: C_11  and  C_12
REMARK    9  A    between atoms: O_13  and  C_14
REMARK   10  A    between atoms: C_14  and  C_15
REMARK   11  A    between atoms: N_18  and  C_19
REMARK   12  A    between atoms: C_20  and  C_30
REMARK   13  A    between atoms: C_25  and  C_29
REMARK                            x       y       z     vdW  Elec       q    Type
REMARK                         _______ _______ _______ _____ _____    ______ ____
ROOT
ATOM      1  C   UNL     1       2.227  -6.106  -3.024  0.00  0.00    +0.249 C 
ATOM      2  O   UNL     1       2.199  -5.213  -3.848  0.00  0.00    -0.270 OA
ATOM      3  N   UNL     1       1.929  -5.845  -1.736  0.00  0.00    -0.275 N 
ATOM      4  H   UNL     1       1.952  -6.558  -1.079  0.00  0.00    +0.156 HD
ENDROOT
BRANCH   3   5
ATOM      5  C   UNL     1       1.592  -4.557  -1.351  0.00  0.00    +0.085 A 
ATOM      6  C   UNL     1       1.258  -4.096  -0.085  0.00  0.00    +0.068 A 
ATOM      7  C   UNL     1       0.941  -2.684   0.053  0.00  0.00    -0.023 A 
ATOM      8  C   UNL     1       1.008  -1.966  -1.089  0.00  0.00    -0.004 A 
ATOM      9  S   UNL     1       1.484  -3.133  -2.331  0.00  0.00    -0.077 S 
ATOM     10  C   UNL     1       0.736  -0.502  -1.252  0.00  0.00    +0.046 C 
ATOM     11  C   UNL     1       0.002  -0.004   0.002  0.00  0.00    -0.009 C 
ATOM     12  C   UNL     1       0.742  -0.514   1.242  0.00  0.00    +0.008 C 
ATOM     13  C   UNL     1       0.557  -2.027   1.373  0.00  0.00    +0.037 C 
ATOM     14  C   UNL     1      -0.019   1.526   0.010  0.00  0.00    +0.008 C 
BRANCH   6  15
ATOM     15  C   UNL     1       1.226  -4.998   1.070  0.00  0.00    +0.244 C 
ATOM     16  O   UNL     1       0.198  -5.582   1.358  0.00  0.00    -0.270 OA
ATOM     17  N   UNL     1       2.336  -5.182   1.812  0.00  0.00    -0.325 N 
ATOM     18  H   UNL     1       3.156  -4.716   1.583  0.00  0.00    +0.145 HD
ATOM     19  H   UNL     1       2.315  -5.779   2.576  0.00  0.00    +0.145 HD
ENDBRANCH   6  15
ENDBRANCH   3   5
BRANCH   1  22
ATOM     20  C   UNL     1       3.231  -9.035  -5.152  0.00  0.00    +0.166 A 
ATOM     21  C   UNL     1       2.894  -7.750  -4.770  0.00  0.00    +0.062 A 
ATOM     22  C   UNL     1       2.586  -7.477  -3.435  0.00  0.00    +0.044 A 
ATOM     23  C   UNL     1       2.624  -8.504  -2.488  0.00  0.00    +0.062 A 
ATOM     24  C   UNL     1       2.957  -9.788  -2.876  0.00  0.00    +0.166 A 
ATOM     25  C   UNL     1       3.264 -10.057  -4.207  0.00  0.00    +0.204 A 
BRANCH  20  26
ATOM     26  O   UNL     1       3.531  -9.301  -6.452  0.00  0.00    -0.488 OA
BRANCH  26  28
ATOM     27  C   UNL     1       3.843  -8.694  -8.770  0.00  0.00    +0.048 C 
ATOM     28  C   UNL     1       3.478  -8.205  -7.367  0.00  0.00    +0.226 C 
ENDBRANCH  26  28
ENDBRANCH  20  26
BRANCH  25  29
ATOM     29  O   UNL     1       3.595 -11.320  -4.585  0.00  0.00    -0.485 OA
BRANCH  29  30
ATOM     30  C   UNL     1       4.980 -11.670  -4.534  0.00  0.00    +0.226 C 
ATOM     31  C   UNL     1       5.157 -13.119  -4.993  0.00  0.00    +0.048 C 
ENDBRANCH  29  30
ENDBRANCH  25  29
BRANCH  24  32
ATOM     32  O   UNL     1       2.988 -10.789  -1.956  0.00  0.00    -0.488 OA
BRANCH  32  33
ATOM     33  C   UNL     1       2.662 -10.443  -0.609  0.00  0.00    +0.226 C 
ATOM     34  C   UNL     1       2.751 -11.689   0.274  0.00  0.00    +0.048 C 
ENDBRANCH  32  33
ENDBRANCH  24  32
ENDBRANCH   1  22
TORSDOF 9
