REMARK  Name = ZINC59350371
REMARK  14 active torsions:
REMARK  status: ('A' for Active; 'I' for Inactive)
REMARK    1  A    between atoms: C_1  and  C_2
REMARK    2  A    between atoms: C_2  and  C_3
REMARK    3  A    between atoms: C_3  and  C_4
REMARK    4  A    between atoms: C_4  and  N_5
REMARK    5  A    between atoms: N_5  and  C_6
REMARK    6  A    between atoms: C_7  and  N_18
REMARK    7  A    between atoms: N_8  and  C_15
REMARK    8  A    between atoms: C_15  and  C_16
REMARK    9  A    between atoms: C_16  and  C_17
REMARK   10  A    between atoms: C_19  and  C_21
REMARK   11  A    between atoms: C_21  and  N_22
REMARK   12  A    between atoms: N_22  and  C_23
REMARK   13  A    between atoms: N_22  and  C_30
REMARK   14  A    between atoms: C_23  and  C_24
REMARK                            x       y       z     vdW  Elec       q    Type
REMARK                         _______ _______ _______ _____ _____    ______ ____
ROOT
ATOM      1  N   UNL     1      -2.880  -3.107  -0.121  0.00  0.00    -0.266 N 
ATOM      2  C   UNL     1      -3.124  -3.580   1.119  0.00  0.00    +0.203 C 
ATOM      3  O   UNL     1      -3.588  -4.692   1.263  0.00  0.00    -0.277 OA
ENDROOT
BRANCH   1   4
ATOM      4  C   UNL     1      -3.258  -3.861  -1.251  0.00  0.00    +0.140 A 
ATOM      5  C   UNL     1      -2.302  -4.391  -2.094  0.00  0.00    +0.127 A 
ATOM      6  N   UNL     1      -2.701  -5.122  -3.188  0.00  0.00    -0.280 N 
ATOM      7  C   UNL     1      -4.009  -5.319  -3.435  0.00  0.00    +0.331 A 
ATOM      8  O   UNL     1      -4.342  -5.968  -4.408  0.00  0.00    -0.246 OA
ATOM      9  N   UNL     1      -4.955  -4.811  -2.625  0.00  0.00    -0.273 N 
ATOM     10  H   UNL     1      -5.891  -4.966  -2.825  0.00  0.00    +0.173 HD
ATOM     11  C   UNL     1      -4.617  -4.092  -1.537  0.00  0.00    +0.277 A 
ATOM     12  O   UNL     1      -5.483  -3.640  -0.806  0.00  0.00    -0.266 OA
BRANCH   5  13
ATOM     13  N   UNL     1      -0.966  -4.190  -1.842  0.00  0.00    -0.343 N 
ATOM     14  H   UNL     1      -0.691  -3.614  -1.111  0.00  0.00    +0.144 HD
ATOM     15  H   UNL     1      -0.297  -4.624  -2.395  0.00  0.00    +0.144 HD
ENDBRANCH   5  13
BRANCH   6  16
ATOM     16  C   UNL     1      -1.697  -5.691  -4.090  0.00  0.00    +0.128 C 
BRANCH  16  17
ATOM     17  C   UNL     1      -1.316  -7.093  -3.611  0.00  0.00    +0.018 C 
ATOM     18  C   UNL     1      -0.266  -7.686  -4.553  0.00  0.00    +0.005 C 
ENDBRANCH  16  17
ENDBRANCH   6  16
ENDBRANCH   1   4
BRANCH   1  19
ATOM     19  C   UNL     1      -2.222  -1.809  -0.293  0.00  0.00    +0.114 C 
BRANCH  19  20
ATOM     20  C   UNL     1      -3.281  -0.720  -0.473  0.00  0.00    +0.019 C 
BRANCH  20  22
ATOM     21  C   UNL     1      -3.654   1.724  -0.833  0.00  0.00    +0.004 C 
ATOM     22  C   UNL     1      -2.594   0.635  -0.653  0.00  0.00    -0.002 C 
ENDBRANCH  20  22
ENDBRANCH  19  20
ENDBRANCH   1  19
BRANCH   2  23
ATOM     23  C   UNL     1      -2.822  -2.728   2.324  0.00  0.00    +0.020 C 
BRANCH  23  24
ATOM     24  N   UNL     1      -3.352  -3.379   3.530  0.00  0.00    +0.390 N 
ATOM     25  H   UNL     1      -3.218  -4.376   3.460  0.00  0.00    -0.080 HD
BRANCH  24  26
ATOM     26  C   UNL     1      -4.786  -3.084   3.655  0.00  0.00    -0.067 C 
ATOM     27  C   UNL     1      -5.526  -3.624   2.430  0.00  0.00    -0.015 C 
ATOM     28  C   UNL     1      -7.019  -3.318   2.561  0.00  0.00    -0.002 C 
ATOM     29  C   UNL     1      -7.223  -1.804   2.655  0.00  0.00    -0.000 C 
ATOM     30  C   UNL     1      -6.483  -1.265   3.880  0.00  0.00    -0.002 C 
ATOM     31  C   UNL     1      -4.989  -1.571   3.749  0.00  0.00    -0.015 C 
ENDBRANCH  24  26
BRANCH  24  32
ATOM     32  C   UNL     1      -2.643  -2.872   4.712  0.00  0.00    -0.042 C 
BRANCH  32  33
ATOM     33  C   UNL     1      -3.083  -3.641   5.931  0.00  0.00    -0.064 A 
ATOM     34  C   UNL     1      -4.192  -3.227   6.646  0.00  0.00    +0.002 A 
ATOM     35  C   UNL     1      -4.596  -3.932   7.763  0.00  0.00    +0.000 A 
ATOM     36  C   UNL     1      -3.893  -5.052   8.166  0.00  0.00    +0.000 A 
ATOM     37  C   UNL     1      -2.785  -5.466   7.451  0.00  0.00    +0.000 A 
ATOM     38  C   UNL     1      -2.383  -4.763   6.330  0.00  0.00    +0.002 A 
ENDBRANCH  32  33
ENDBRANCH  24  32
ENDBRANCH  23  24
ENDBRANCH   2  23
TORSDOF 12
