REMARK  Name = ZINC04177146
REMARK  5 active torsions:
REMARK  status: ('A' for Active; 'I' for Inactive)
REMARK    1  A    between atoms: C_3  and  N_11
REMARK    2  A    between atoms: C_6  and  C_7
REMARK    3  A    between atoms: C_15  and  N_58
REMARK    4  A    between atoms: C_21  and  C_24
REMARK    5  A    between atoms: C_21  and  N_60
REMARK                            x       y       z     vdW  Elec       q    Type
REMARK                         _______ _______ _______ _____ _____    ______ ____
ROOT
ATOM      1  C   UNL     1      -1.093  -0.226   2.032  0.00  0.00    -0.079 C 
ATOM      2  C   UNL     1      -0.075  -0.730   1.006  0.00  0.00    -0.021 C 
ATOM      3  C   UNL     1      -0.280   0.013  -0.317  0.00  0.00    +0.009 C 
ATOM      4  C   UNL     1      -1.718  -0.202  -0.796  0.00  0.00    -0.021 C 
ATOM      5  C   UNL     1      -2.689   0.286   0.282  0.00  0.00    -0.079 C 
ATOM      6  N   UNL     1      -2.456  -0.484   1.522  0.00  0.00    +0.388 N 
ATOM      7  H   UNL     1      -2.550  -1.486   1.314  0.00  0.00    -0.081 HD
ENDROOT
BRANCH   6  12
ATOM      8  N   UNL     1      -4.761   1.812   2.414  0.00  0.00    -0.212 N 
ATOM      9  C   UNL     1      -5.597   0.842   2.022  0.00  0.00    +0.225 C 
ATOM     10  O   UNL     1      -6.752   1.003   1.691  0.00  0.00    -0.275 OA
ATOM     11  C   UNL     1      -4.871  -0.485   2.057  0.00  0.00    +0.090 C 
ATOM     12  C   UNL     1      -3.456  -0.111   2.543  0.00  0.00    +0.029 C 
ATOM     13  C   UNL     1      -3.531   1.388   2.732  0.00  0.00    +0.213 C 
ATOM     14  O   UNL     1      -2.621   2.095   3.110  0.00  0.00    -0.277 OA
BRANCH   8  17
ATOM     15  C   UNL     1      -5.805   5.191   1.402  0.00  0.00    +0.014 A 
ATOM     16  C   UNL     1      -5.429   3.864   1.327  0.00  0.00    +0.024 A 
ATOM     17  C   UNL     1      -5.142   3.159   2.487  0.00  0.00    +0.044 A 
ATOM     18  C   UNL     1      -5.239   3.788   3.721  0.00  0.00    +0.024 A 
ATOM     19  C   UNL     1      -5.610   5.117   3.789  0.00  0.00    +0.014 A 
ATOM     20  C   UNL     1      -5.895   5.817   2.631  0.00  0.00    +0.055 A 
BRANCH  20  21
ATOM     21  C   UNL     1      -6.306   7.265   2.710  0.00  0.00    +0.417 C 
ATOM     22  F   UNL     1      -7.697   7.350   2.826  0.00  0.00    -0.166 F 
ATOM     23  F   UNL     1      -5.708   7.859   3.826  0.00  0.00    -0.166 F 
ATOM     24  F   UNL     1      -5.893   7.930   1.551  0.00  0.00    -0.166 F 
ENDBRANCH  20  21
ENDBRANCH   8  17
ENDBRANCH   6  12
BRANCH   3  30
ATOM     25  C   UNL     1       2.044  -0.407  -0.849  0.00  0.00    -0.077 C 
ATOM     26  C   UNL     1       2.976  -1.087  -1.854  0.00  0.00    -0.019 C 
ATOM     27  C   UNL     1       2.832  -0.406  -3.218  0.00  0.00    -0.004 C 
ATOM     28  C   UNL     1       1.370  -0.480  -3.665  0.00  0.00    -0.019 C 
ATOM     29  C   UNL     1       0.484   0.182  -2.607  0.00  0.00    -0.077 C 
ATOM     30  N   UNL     1       0.650  -0.535  -1.325  0.00  0.00    +0.389 N 
ATOM     31  H   UNL     1       0.437  -1.529  -1.470  0.00  0.00    -0.080 HD
ENDBRANCH   3  30
BRANCH   3  32
ATOM     32  C   UNL     1      -0.033   1.486  -0.111  0.00  0.00    +0.200 C 
ATOM     33  O   UNL     1      -0.808   2.300  -0.565  0.00  0.00    -0.278 OA
ATOM     34  N   UNL     1       1.053   1.898   0.573  0.00  0.00    -0.330 N 
ATOM     35  H   UNL     1       1.712   1.252   0.872  0.00  0.00    +0.145 HD
ATOM     36  H   UNL     1       1.175   2.840   0.767  0.00  0.00    +0.145 HD
ENDBRANCH   3  32
TORSDOF 5
