REMARK  Name = ZINC13495003
REMARK  12 active torsions:
REMARK  status: ('A' for Active; 'I' for Inactive)
REMARK    1  A    between atoms: C_1  and  C_2
REMARK    2  A    between atoms: C_2  and  O_3
REMARK    3  A    between atoms: O_3  and  C_4
REMARK    4  A    between atoms: C_7  and  C_10
REMARK    5  A    between atoms: N_12  and  C_13
REMARK    6  A    between atoms: C_13  and  C_15
REMARK    7  A    between atoms: C_13  and  C_16
REMARK    8  A    between atoms: C_18  and  C_21
REMARK    9  A    between atoms: C_24  and  C_27
REMARK   10  A    between atoms: C_27  and  C_28
REMARK   11  A    between atoms: C_27  and  C_29
REMARK   12  A    between atoms: C_27  and  C_30
REMARK                            x       y       z     vdW  Elec       q    Type
REMARK                         _______ _______ _______ _____ _____    ______ ____
ROOT
ATOM      1  C   UNL     1      -6.073   0.562   0.033  0.00  0.00    +0.159 C 
ATOM      2  C   UNL     1      -6.590   0.199   1.427  0.00  0.00    +0.038 C 
ENDROOT
BRANCH   1   3
ATOM      3  C   UNL     1      -4.567   0.506   0.026  0.00  0.00    +0.248 A 
ATOM      4  N   UNL     1      -3.750   1.530   0.033  0.00  0.00    -0.190 NA
ATOM      5  C   UNL     1      -2.505   1.002   0.019  0.00  0.00    +0.202 A 
ATOM      6  N   UNL     1      -2.638  -0.299   0.012  0.00  0.00    -0.056 NA
ATOM      7  O   UNL     1      -3.813  -0.598   0.016  0.00  0.00    -0.336 OA
BRANCH   5   8
ATOM      8  C   UNL     1      -1.228   1.757   0.017  0.00  0.00    +0.022 A 
ATOM      9  C   UNL     1      -0.013   1.076   0.008  0.00  0.00    +0.012 A 
ATOM     10  C   UNL     1       1.173   1.783   0.000  0.00  0.00    +0.005 A 
ATOM     11  C   UNL     1       1.155   3.167   0.008  0.00  0.00    -0.042 A 
ATOM     12  C   UNL     1      -0.048   3.848   0.023  0.00  0.00    +0.005 A 
ATOM     13  C   UNL     1      -1.239   3.150   0.031  0.00  0.00    +0.012 A 
BRANCH  11  14
ATOM     14  C   UNL     1       2.452   3.934  -0.001  0.00  0.00    -0.013 C 
ATOM     15  C   UNL     1       3.246   3.579  -1.260  0.00  0.00    +0.015 C 
ATOM     16  C   UNL     1       2.157   5.435   0.010  0.00  0.00    +0.015 C 
ATOM     17  C   UNL     1       3.271   3.566   1.238  0.00  0.00    +0.015 C 
ENDBRANCH  11  14
ENDBRANCH   5   8
ENDBRANCH   1   3
BRANCH   1  20
ATOM     18  C   UNL     1      -7.820  -0.193  -1.488  0.00  0.00    +0.245 C 
ATOM     19  O   UNL     1      -8.480   0.775  -1.164  0.00  0.00    -0.270 OA
ATOM     20  N   UNL     1      -6.601  -0.390  -0.947  0.00  0.00    -0.300 N 
ATOM     21  H   UNL     1      -6.075  -1.163  -1.205  0.00  0.00    +0.150 HD
BRANCH  18  25
ATOM     22  C   UNL     1      -9.353  -2.953  -4.329  0.00  0.00    +0.121 A 
ATOM     23  C   UNL     1     -10.109  -1.847  -3.959  0.00  0.00    +0.046 A 
ATOM     24  C   UNL     1      -9.615  -0.950  -3.038  0.00  0.00    +0.016 A 
ATOM     25  C   UNL     1      -8.352  -1.152  -2.476  0.00  0.00    +0.037 A 
ATOM     26  C   UNL     1      -7.593  -2.263  -2.854  0.00  0.00    +0.016 A 
ATOM     27  C   UNL     1      -8.096  -3.159  -3.771  0.00  0.00    +0.046 A 
BRANCH  22  28
ATOM     28  O   UNL     1      -9.843  -3.835  -5.236  0.00  0.00    -0.492 OA
BRANCH  28  30
ATOM     29  C   UNL     1      -9.729  -5.826  -6.601  0.00  0.00    +0.048 C 
ATOM     30  C   UNL     1      -9.014  -4.950  -5.571  0.00  0.00    +0.225 C 
ENDBRANCH  28  30
ENDBRANCH  22  28
ENDBRANCH  18  25
ENDBRANCH   1  20
TORSDOF 7
