REMARK  Name = ZINC00453220
REMARK  5 active torsions:
REMARK  status: ('A' for Active; 'I' for Inactive)
REMARK    1  A    between atoms: C_4  and  C_7
REMARK    2  A    between atoms: C_7  and  O_8
REMARK    3  A    between atoms: O_8  and  C_9
REMARK    4  A    between atoms: C_14  and  C_15
REMARK    5  A    between atoms: N_16  and  N_17
REMARK                            x       y       z     vdW  Elec       q    Type
REMARK                         _______ _______ _______ _____ _____    ______ ____
ROOT
ATOM      1  C   UNL     1       5.317  -1.604   1.466  0.00  0.00    +0.130 A 
ATOM      2  C   UNL     1       6.048  -2.007   0.360  0.00  0.00    +0.046 A 
ATOM      3  C   UNL     1       7.245  -2.676   0.526  0.00  0.00    +0.004 A 
ATOM      4  C   UNL     1       7.724  -2.950   1.796  0.00  0.00    +0.001 A 
ATOM      5  C   UNL     1       7.011  -2.556   2.908  0.00  0.00    +0.013 A 
ATOM      6  C   UNL     1       5.801  -1.874   2.754  0.00  0.00    +0.036 A 
ENDROOT
BRANCH   6   7
ATOM      7  C   UNL     1       5.037  -1.445   3.938  0.00  0.00    +0.146 C 
ATOM      8  N   UNL     1       3.911  -0.815   3.790  0.00  0.00    -0.152 NA
BRANCH   8   9
ATOM      9  N   UNL     1       3.183  -0.408   4.916  0.00  0.00    -0.095 N 
ATOM     10  C   UNL     1       1.991   0.253   4.938  0.00  0.00    +0.255 A 
ATOM     11  N   UNL     1       1.676   0.432   6.203  0.00  0.00    -0.091 NA
ATOM     12  N   UNL     1       2.579  -0.066   6.967  0.00  0.00    -0.020 NA
ATOM     13  N   UNL     1       3.522  -0.597   6.267  0.00  0.00    -0.020 NA
ATOM     14  N   UNL     1       1.254   0.658   3.839  0.00  0.00    -0.325 N 
ATOM     15  H   UNL     1       1.578   0.475   2.943  0.00  0.00    +0.145 HD
ATOM     16  H   UNL     1       0.412   1.124   3.965  0.00  0.00    +0.145 HD
ENDBRANCH   8   9
ENDBRANCH   6   7
BRANCH   1  17
ATOM     17  O   UNL     1       4.141  -0.946   1.304  0.00  0.00    -0.487 OA
BRANCH  17  18
ATOM     18  C   UNL     1       3.711  -0.707  -0.038  0.00  0.00    +0.264 C 
BRANCH  18  22
ATOM     19  C   UNL     1      -0.017   1.378   0.010  0.00  0.00    +0.000 A 
ATOM     20  C   UNL     1       1.171   2.086   0.002  0.00  0.00    +0.000 A 
ATOM     21  C   UNL     1       2.377   1.411  -0.013  0.00  0.00    +0.007 A 
ATOM     22  C   UNL     1       2.396   0.029  -0.020  0.00  0.00    -0.010 A 
ATOM     23  C   UNL     1       1.208  -0.679  -0.012  0.00  0.00    +0.007 A 
ATOM     24  C   UNL     1       0.002  -0.004   0.002  0.00  0.00    +0.000 A 
ENDBRANCH  18  22
ENDBRANCH  17  18
ENDBRANCH   1  17
TORSDOF 5
