REMARK  Name = ZINC36369754
REMARK  13 active torsions:
REMARK  status: ('A' for Active; 'I' for Inactive)
REMARK    1  A    between atoms: C_4  and  C_7
REMARK    2  A    between atoms: C_11  and  C_32
REMARK    3  A    between atoms: C_12  and  O_13
REMARK    4  A    between atoms: C_17  and  C_18
REMARK    5  A    between atoms: C_18  and  C_20
REMARK    6  A    between atoms: C_18  and  O_31
REMARK    7  A    between atoms: C_20  and  C_22
REMARK    8  A    between atoms: C_20  and  O_30
REMARK    9  A    between atoms: C_22  and  C_24
REMARK   10  A    between atoms: C_22  and  O_29
REMARK   11  A    between atoms: C_24  and  C_26
REMARK   12  A    between atoms: C_24  and  O_28
REMARK   13  A    between atoms: C_26  and  O_27
REMARK                            x       y       z     vdW  Elec       q    Type
REMARK                         _______ _______ _______ _____ _____    ______ ____
ROOT
ATOM      1  C   UNL     1       3.695  -0.705  -0.029  0.00  0.00    +0.021 C 
ATOM      2  C   UNL     1       4.481  -0.314  -1.285  0.00  0.00    -0.061 C 
ATOM      3  N   UNL     1       5.777  -1.000  -1.288  0.00  0.00    +0.393 N 
ATOM      4  C   UNL     1       5.582  -2.452  -1.340  0.00  0.00    -0.061 C 
ATOM      5  C   UNL     1       4.834  -2.917  -0.086  0.00  0.00    +0.021 C 
ATOM      6  C   UNL     1       3.466  -2.222  -0.043  0.00  0.00    +0.134 C 
ATOM      7  C   UNL     1       5.638  -2.495   1.149  0.00  0.00    +0.095 C 
ATOM      8  N   UNL     1       5.825  -1.037   1.118  0.00  0.00    -0.311 NA
ATOM      9  C   UNL     1       4.514  -0.344   1.215  0.00  0.00    +0.095 C 
ATOM     10  C   UNL     1       6.547  -0.633  -0.096  0.00  0.00    +0.034 C 
ATOM     11  H   UNL     1       6.293  -0.720  -2.108  0.00  0.00    -0.079 HD
ENDROOT
BRANCH   1  15
ATOM     12  C   UNL     1      -0.056   1.338   0.042  0.00  0.00    +0.000 A 
ATOM     13  C   UNL     1       1.123   2.058   0.035  0.00  0.00    +0.000 A 
ATOM     14  C   UNL     1       2.337   1.397   0.012  0.00  0.00    +0.004 A 
ATOM     15  C   UNL     1       2.371   0.016  -0.003  0.00  0.00    -0.039 A 
ATOM     16  C   UNL     1       1.192  -0.705   0.004  0.00  0.00    +0.004 A 
ATOM     17  C   UNL     1      -0.022  -0.044   0.026  0.00  0.00    +0.000 A 
ENDBRANCH   1  15
BRANCH   5  18
ATOM     18  C   UNL     1       4.653  -4.412  -0.117  0.00  0.00    -0.039 A 
ATOM     19  C   UNL     1       4.088  -5.063   0.964  0.00  0.00    +0.004 A 
ATOM     20  C   UNL     1       3.922  -6.435   0.936  0.00  0.00    +0.000 A 
ATOM     21  C   UNL     1       4.320  -7.156  -0.174  0.00  0.00    +0.000 A 
ATOM     22  C   UNL     1       4.884  -6.506  -1.255  0.00  0.00    +0.000 A 
ATOM     23  C   UNL     1       5.046  -5.133  -1.229  0.00  0.00    +0.004 A 
ENDBRANCH   5  18
BRANCH   6  24
ATOM     24  O   UNL     1       2.720  -2.586  -1.206  0.00  0.00    -0.390 OA
ATOM     25  H   UNL     1       2.465  -3.519  -1.234  0.00  0.00    +0.210 HD
ENDBRANCH   6  24
BRANCH  10  26
ATOM     26  C   UNL     1       6.763   0.882  -0.078  0.00  0.00    +0.146 C 
BRANCH  26  27
ATOM     27  O   UNL     1       7.479   1.275  -1.250  0.00  0.00    -0.390 OA
ATOM     28  H   UNL     1       8.350   0.864  -1.335  0.00  0.00    +0.210 HD
ENDBRANCH  26  27
BRANCH  26  29
ATOM     29  C   UNL     1       7.567   1.268   1.165  0.00  0.00    +0.173 C 
BRANCH  29  30
ATOM     30  O   UNL     1       8.783   0.519   1.197  0.00  0.00    -0.387 OA
ATOM     31  H   UNL     1       9.355   0.665   0.431  0.00  0.00    +0.210 HD
ENDBRANCH  29  30
BRANCH  29  32
ATOM     32  C   UNL     1       7.889   2.763   1.120  0.00  0.00    +0.176 C 
BRANCH  32  33
ATOM     33  O   UNL     1       8.554   3.070  -0.107  0.00  0.00    -0.387 OA
ATOM     34  H   UNL     1       9.387   2.595  -0.233  0.00  0.00    +0.210 HD
ENDBRANCH  32  33
BRANCH  32  35
ATOM     35  C   UNL     1       8.797   3.124   2.297  0.00  0.00    +0.171 C 
BRANCH  35  36
ATOM     36  O   UNL     1       8.132   2.817   3.524  0.00  0.00    -0.387 OA
ATOM     37  H   UNL     1       7.300   3.293   3.650  0.00  0.00    +0.210 HD
ENDBRANCH  35  36
BRANCH  35  38
ATOM     38  C   UNL     1       9.120   4.619   2.252  0.00  0.00    +0.189 C 
BRANCH  38  39
ATOM     39  O   UNL     1      10.060   4.935   3.281  0.00  0.00    -0.392 OA
ATOM     40  H   UNL     1      10.310   5.869   3.312  0.00  0.00    +0.210 HD
ENDBRANCH  38  39
ENDBRANCH  35  38
ENDBRANCH  32  35
ENDBRANCH  29  32
ENDBRANCH  26  29
ENDBRANCH  10  26
TORSDOF 13
