REMARK  Name = ZINC38650306
REMARK  10 active torsions:
REMARK  status: ('A' for Active; 'I' for Inactive)
REMARK    1  A    between atoms: C_1  and  C_2
REMARK    2  A    between atoms: C_5  and  C_8
REMARK    3  A    between atoms: C_9  and  C_10
REMARK    4  A    between atoms: C_10  and  O_12
REMARK    5  A    between atoms: O_12  and  C_13
REMARK    6  A    between atoms: C_20  and  N_34
REMARK    7  A    between atoms: C_21  and  C_32
REMARK    8  A    between atoms: C_22  and  C_24
REMARK    9  A    between atoms: C_27  and  O_30
REMARK   10  A    between atoms: O_30  and  C_31
REMARK                            x       y       z     vdW  Elec       q    Type
REMARK                         _______ _______ _______ _____ _____    ______ ____
ROOT
ATOM      1  C   UNL     1       0.091  -8.427   2.344  0.00  0.00    +0.135 A 
ATOM      2  C   UNL     1       0.137  -9.162   1.167  0.00  0.00    +0.047 A 
ATOM      3  C   UNL     1       0.121 -10.542   1.214  0.00  0.00    +0.012 A 
ATOM      4  C   UNL     1       0.058 -11.198   2.431  0.00  0.00    +0.008 A 
ATOM      5  C   UNL     1       0.011 -10.469   3.610  0.00  0.00    +0.138 A 
ATOM      6  C   UNL     1       0.034  -9.081   3.564  0.00  0.00    +0.093 A 
ATOM      7  O   UNL     1      -0.051 -11.094   4.811  0.00  0.00    -0.441 OA
ATOM      8  C   UNL     1       0.314 -12.383   4.917  0.00  0.00    +0.199 C 
ATOM      9  C   UNL     1       0.378 -13.200   3.839  0.00  0.00    +0.098 C 
ATOM     10  C   UNL     1       0.041 -12.703   2.461  0.00  0.00    +0.098 C 
ENDROOT
BRANCH  10  11
ATOM     11  C   UNL     1      -1.331 -13.194   2.075  0.00  0.00    -0.034 A 
ATOM     12  C   UNL     1      -2.433 -12.825   2.825  0.00  0.00    +0.008 A 
ATOM     13  C   UNL     1      -3.691 -13.274   2.473  0.00  0.00    +0.046 A 
ATOM     14  C   UNL     1      -3.849 -14.096   1.367  0.00  0.00    +0.120 A 
ATOM     15  C   UNL     1      -2.742 -14.464   0.615  0.00  0.00    +0.046 A 
ATOM     16  C   UNL     1      -1.486 -14.008   0.968  0.00  0.00    +0.008 A 
BRANCH  14  17
ATOM     17  O   UNL     1      -5.085 -14.539   1.019  0.00  0.00    -0.495 OA
ATOM     18  C   UNL     1      -5.173 -15.382  -0.132  0.00  0.00    +0.277 C 
ENDBRANCH  14  17
ENDBRANCH  10  11
BRANCH   8  19
ATOM     19  N   UNL     1       0.631 -12.886   6.153  0.00  0.00    -0.328 N 
ATOM     20  H   UNL     1       0.591 -12.313   6.935  0.00  0.00    +0.145 HD
ATOM     21  H   UNL     1       0.896 -13.815   6.246  0.00  0.00    +0.145 HD
ENDBRANCH   8  19
BRANCH   9  22
ATOM     22  C   UNL     1       0.774 -14.564   4.015  0.00  0.00    +0.101 C 
ATOM     23  N   UNL     1       1.088 -15.647   4.155  0.00  0.00    -0.191 NA
ENDBRANCH   9  22
BRANCH   1  24
ATOM     24  O   UNL     1       0.106  -7.069   2.300  0.00  0.00    -0.423 OA
BRANCH  24  25
ATOM     25  C   UNL     1      -1.034  -6.433   1.962  0.00  0.00    +0.337 C 
ATOM     26  O   UNL     1      -2.010  -7.074   1.622  0.00  0.00    -0.245 OA
BRANCH  25  28
ATOM     27  C   UNL     1      -2.238  -4.337   1.667  0.00  0.00    +0.015 C 
ATOM     28  C   UNL     1      -1.097  -4.973   2.005  0.00  0.00    +0.092 C 
BRANCH  27  33
ATOM     29  C   UNL     1      -2.487   1.404   1.839  0.00  0.00    +0.044 C 
ATOM     30  C   UNL     1      -2.422  -0.101   1.793  0.00  0.00    -0.050 A 
ATOM     31  C   UNL     1      -3.534  -0.827   1.405  0.00  0.00    +0.004 A 
ATOM     32  C   UNL     1      -3.482  -2.204   1.361  0.00  0.00    +0.008 A 
ATOM     33  C   UNL     1      -2.302  -2.867   1.710  0.00  0.00    -0.025 A 
ATOM     34  C   UNL     1      -1.182  -2.126   2.102  0.00  0.00    +0.008 A 
ATOM     35  C   UNL     1      -1.248  -0.749   2.135  0.00  0.00    +0.004 A 
ENDBRANCH  27  33
ENDBRANCH  25  28
ENDBRANCH  24  25
ENDBRANCH   1  24
TORSDOF 8
