REMARK  Name = ZINC11124818
REMARK  4 active torsions:
REMARK  status: ('A' for Active; 'I' for Inactive)
REMARK    1  A    between atoms: C_1  and  C_2
REMARK    2  A    between atoms: C_15  and  C_17
REMARK    3  A    between atoms: C_17  and  N_18
REMARK    4  A    between atoms: N_18  and  C_19
REMARK                            x       y       z     vdW  Elec       q    Type
REMARK                         _______ _______ _______ _____ _____    ______ ____
ROOT
ATOM      1  C   UNL     1      -0.868   5.852  -2.272  0.00  0.00    +0.029 C 
ATOM      2  C   UNL     1       0.303   5.916  -1.289  0.00  0.00    +0.087 C 
ATOM      3  C   UNL     1       1.521   5.225  -1.904  0.00  0.00    +0.118 C 
ATOM      4  C   UNL     1       2.540   4.924  -0.837  0.00  0.00    +0.219 C 
ATOM      5  O   UNL     1       3.540   5.605  -0.750  0.00  0.00    -0.275 OA
ATOM      6  N   UNL     1       2.347   3.902   0.025  0.00  0.00    -0.284 N 
ATOM      7  C   UNL     1       1.157   3.166  -0.000  0.00  0.00    +0.055 A 
ATOM      8  C   UNL     1       1.177   1.781   0.000  0.00  0.00    +0.025 A 
ATOM      9  C   UNL     1      -0.013   1.076   0.008  0.00  0.00    +0.002 A 
ATOM     10  C   UNL     1      -1.221   1.748   0.017  0.00  0.00    +0.002 A 
ATOM     11  C   UNL     1      -1.249   3.131   0.020  0.00  0.00    +0.025 A 
ATOM     12  C   UNL     1      -0.062   3.845  -0.002  0.00  0.00    +0.058 A 
ATOM     13  N   UNL     1      -0.072   5.245  -0.043  0.00  0.00    -0.265 N 
ATOM     14  C   UNL     1      -0.419   5.961   1.044  0.00  0.00    +0.237 C 
ATOM     15  O   UNL     1      -0.424   7.173   0.996  0.00  0.00    -0.274 OA
ATOM     16  H   UNL     1       3.039   3.676   0.667  0.00  0.00    +0.155 HD
ENDROOT
BRANCH  14  17
ATOM     17  C   UNL     1      -0.803   5.256   2.320  0.00  0.00    +0.198 C 
BRANCH  17  18
ATOM     18  N   UNL     1      -1.135   6.248   3.345  0.00  0.00    -0.335 N 
ATOM     19  H   UNL     1      -1.086   7.195   3.138  0.00  0.00    +0.147 HD
BRANCH  18  20
ATOM     20  C   UNL     1      -1.523   5.832   4.622  0.00  0.00    +0.028 A 
ATOM     21  C   UNL     1      -1.599   4.477   4.918  0.00  0.00    +0.024 A 
ATOM     22  C   UNL     1      -1.977   4.067   6.181  0.00  0.00    +0.022 A 
ATOM     23  C   UNL     1      -2.291   5.006   7.149  0.00  0.00    +0.041 A 
ATOM     24  C   UNL     1      -2.222   6.356   6.855  0.00  0.00    +0.022 A 
ATOM     25  C   UNL     1      -1.839   6.771   5.595  0.00  0.00    +0.024 A 
ATOM     26 CL   UNL     1      -2.773   4.488   8.734  0.00  0.00    -0.084 Cl
ENDBRANCH  18  20
ENDBRANCH  17  18
ENDBRANCH  14  17
TORSDOF 3
