REMARK  Name = ZINC41334162
REMARK  8 active torsions:
REMARK  status: ('A' for Active; 'I' for Inactive)
REMARK    1  A    between atoms: C_1  and  C_2
REMARK    2  A    between atoms: C_2  and  C_4
REMARK    3  A    between atoms: C_2  and  N_7
REMARK    4  A    between atoms: C_4  and  O_5
REMARK    5  A    between atoms: O_5  and  C_6
REMARK    6  A    between atoms: C_11  and  N_25
REMARK    7  A    between atoms: C_12  and  N_14
REMARK    8  A    between atoms: N_14  and  C_15
REMARK                            x       y       z     vdW  Elec       q    Type
REMARK                         _______ _______ _______ _____ _____    ______ ____
ROOT
ATOM      1  N   UNL     1       0.690  -0.715   1.122  0.00  0.00    -0.309 N 
ATOM      2  C   UNL     1       2.062  -0.890   1.092  0.00  0.00    +0.219 A 
ATOM      3  N   UNL     1       2.703  -0.772  -0.061  0.00  0.00    -0.197 NA
ATOM      4  C   UNL     1       4.022  -0.934  -0.128  0.00  0.00    +0.154 A 
ATOM      5  C   UNL     1       4.728  -1.229   1.035  0.00  0.00    +0.205 A 
ATOM      6  C   UNL     1       4.021  -1.345   2.228  0.00  0.00    +0.160 A 
ATOM      7  N   UNL     1       2.702  -1.165   2.219  0.00  0.00    -0.197 NA
ATOM      8  N   UNL     1       4.685  -0.810  -1.339  0.00  0.00    -0.341 N 
ATOM      9  H   UNL     1       0.209  -0.794   1.960  0.00  0.00    +0.149 HD
ATOM     10  H   UNL     1       4.186  -0.604  -2.146  0.00  0.00    +0.144 HD
ATOM     11  H   UNL     1       5.646  -0.928  -1.381  0.00  0.00    +0.144 HD
ENDROOT
BRANCH   5  12
ATOM     12  N   UNL     1       6.196  -1.417   1.003  0.00  0.00    +0.063 N 
ATOM     13  O   UNL     1       6.930  -0.470   1.169  0.00  0.00    -0.126 OA
ATOM     14  O   UNL     1       6.661  -2.516   0.812  0.00  0.00    -0.126 OA
ENDBRANCH   5  12
BRANCH   1  16
ATOM     15  C   UNL     1       0.003   1.098  -0.369  0.00  0.00    +0.030 C 
ATOM     16  C   UNL     1      -0.036  -0.410  -0.113  0.00  0.00    +0.096 C 
BRANCH  16  17
ATOM     17  C   UNL     1      -1.490  -0.867   0.024  0.00  0.00    +0.181 C 
BRANCH  17  18
ATOM     18  O   UNL     1      -2.136  -0.099   1.042  0.00  0.00    -0.381 OA
ATOM     19  C   UNL     1      -3.506  -0.448   1.252  0.00  0.00    +0.194 C 
ENDBRANCH  17  18
ENDBRANCH  16  17
ENDBRANCH   1  16
BRANCH   6  20
ATOM     20  N   UNL     1       4.682  -1.638   3.411  0.00  0.00    -0.296 N 
ATOM     21  H   UNL     1       5.652  -1.672   3.430  0.00  0.00    +0.154 HD
BRANCH  20  22
ATOM     22  C   UNL     1       3.953  -1.885   4.575  0.00  0.00    +0.059 A 
ATOM     23  C   UNL     1       2.666  -2.371   4.498  0.00  0.00    +0.025 A 
ATOM     24  C   UNL     1       1.928  -2.620   5.651  0.00  0.00    +0.003 A 
ATOM     25  C   UNL     1       2.457  -2.392   6.885  0.00  0.00    +0.010 A 
ATOM     26  C   UNL     1       3.766  -1.898   7.005  0.00  0.00    +0.002 A 
ATOM     27  C   UNL     1       4.531  -1.645   5.841  0.00  0.00    +0.092 A 
ATOM     28  N   UNL     1       5.778  -1.179   5.952  0.00  0.00    -0.253 NA
ATOM     29  C   UNL     1       6.320  -0.954   7.124  0.00  0.00    +0.111 A 
ATOM     30  C   UNL     1       5.626  -1.188   8.309  0.00  0.00    +0.020 A 
ATOM     31  C   UNL     1       4.342  -1.651   8.267  0.00  0.00    +0.011 A 
ENDBRANCH  20  22
ENDBRANCH   6  20
TORSDOF 6
