REMARK  Name = ZINC06284100
REMARK  8 active torsions:
REMARK  status: ('A' for Active; 'I' for Inactive)
REMARK    1  A    between atoms: C_1  and  C_2
REMARK    2  A    between atoms: C_2  and  C_3
REMARK    3  A    between atoms: C_6  and  C_8
REMARK    4  A    between atoms: C_10  and  C_31
REMARK    5  A    between atoms: C_11  and  N_30
REMARK    6  A    between atoms: N_12  and  C_20
REMARK    7  A    between atoms: C_22  and  N_27
REMARK    8  A    between atoms: C_25  and  C_26
REMARK                            x       y       z     vdW  Elec       q    Type
REMARK                         _______ _______ _______ _____ _____    ______ ____
ROOT
ATOM      1  C   UNL     1      -5.178   0.390   0.027  0.00  0.00    +0.104 C 
ATOM      2  C   UNL     1      -4.328   0.362   1.263  0.00  0.00    +0.077 C 
ATOM      3  C   UNL     1      -3.010   0.686   1.216  0.00  0.00    +0.107 C 
ATOM      4  N   UNL     1      -2.428   1.041   0.020  0.00  0.00    -0.260 N 
ATOM      5  C   UNL     1      -3.022   0.705  -1.169  0.00  0.00    +0.024 C 
ATOM      6  C   UNL     1      -4.328   0.374  -1.218  0.00  0.00    +0.026 C 
ATOM      7  C   UNL     1      -4.938   0.007  -2.431  0.00  0.00    +0.162 C 
ATOM      8  O   UNL     1      -6.120  -0.274  -2.442  0.00  0.00    -0.292 OA
ATOM      9  C   UNL     1      -4.155  -0.044  -3.714  0.00  0.00    +0.080 C 
ATOM     10  C   UNL     1      -2.690  -0.356  -3.392  0.00  0.00    +0.014 C 
ATOM     11  C   UNL     1      -2.171   0.704  -2.417  0.00  0.00    +0.052 C 
ENDROOT
BRANCH   4  12
ATOM     12  C   UNL     1      -1.224   1.755   0.017  0.00  0.00    +0.045 A 
ATOM     13  C   UNL     1      -0.013   1.076   0.008  0.00  0.00    +0.056 A 
ATOM     14  C   UNL     1       1.173   1.783   0.000  0.00  0.00    +0.128 A 
ATOM     15  C   UNL     1       1.155   3.166   0.007  0.00  0.00    +0.033 A 
ATOM     16  C   UNL     1      -0.049   3.845   0.022  0.00  0.00    +0.007 A 
ATOM     17  C   UNL     1      -1.239   3.143   0.030  0.00  0.00    -0.029 A 
ATOM     18  C   UNL     1      -2.551   3.884   0.046  0.00  0.00    +0.045 C 
BRANCH  14  19
ATOM     19  N   UNL     1       2.465   1.061  -0.015  0.00  0.00    +0.056 N 
ATOM     20  O   UNL     1       2.482  -0.157  -0.021  0.00  0.00    -0.126 OA
ATOM     21  O   UNL     1       3.511   1.684  -0.022  0.00  0.00    -0.126 OA
ENDBRANCH  14  19
ENDBRANCH   4  12
BRANCH   1  25
ATOM     22  C   UNL     1      -7.116   4.103   0.056  0.00  0.00    -0.010 A 
ATOM     23  C   UNL     1      -7.932   3.021   0.033  0.00  0.00    +0.011 A 
ATOM     24  C   UNL     1      -7.370   1.758   0.022  0.00  0.00    +0.012 A 
ATOM     25  C   UNL     1      -6.020   1.639   0.034  0.00  0.00    +0.003 A 
ATOM     26  S   UNL     1      -5.499   3.346   0.070  0.00  0.00    -0.097 S 
BRANCH  22  28
ATOM     27  C   UNL     1      -7.618   6.041   1.519  0.00  0.00    +0.009 C 
ATOM     28  C   UNL     1      -7.480   5.566   0.072  0.00  0.00    +0.039 C 
ENDBRANCH  22  28
ENDBRANCH   1  25
BRANCH   3  29
ATOM     29  N   UNL     1      -2.255   0.661   2.365  0.00  0.00    -0.345 N 
ATOM     30  H   UNL     1      -1.314   0.892   2.332  0.00  0.00    +0.144 HD
ATOM     31  H   UNL     1      -2.664   0.411   3.208  0.00  0.00    +0.144 HD
ENDBRANCH   3  29
BRANCH   2  32
ATOM     32  C   UNL     1      -4.916  -0.012   2.514  0.00  0.00    +0.099 C 
ATOM     33  N   UNL     1      -5.383  -0.309   3.506  0.00  0.00    -0.191 NA
ENDBRANCH   2  32
TORSDOF 6
