REMARK  Name = ZINC36014890
REMARK  10 active torsions:
REMARK  status: ('A' for Active; 'I' for Inactive)
REMARK    1  A    between atoms: C_1  and  C_2
REMARK    2  A    between atoms: C_5  and  C_30
REMARK    3  A    between atoms: C_6  and  C_8
REMARK    4  A    between atoms: C_10  and  C_13
REMARK    5  A    between atoms: C_20  and  C_22
REMARK    6  A    between atoms: N_24  and  C_25
REMARK    7  A    between atoms: C_25  and  C_26
REMARK    8  A    between atoms: C_26  and  N_27
REMARK    9  A    between atoms: N_27  and  C_28
REMARK   10  A    between atoms: N_27  and  C_29
REMARK                            x       y       z     vdW  Elec       q    Type
REMARK                         _______ _______ _______ _____ _____    ______ ____
ROOT
ATOM      1  C   UNL     1       0.438  -2.661   6.919  0.00  0.00    +0.269 C 
ATOM      2  O   UNL     1       1.505  -2.094   7.048  0.00  0.00    -0.268 OA
ATOM      3  N   UNL     1       0.298  -3.936   7.332  0.00  0.00    -0.285 N 
ATOM      4  C   UNL     1      -0.920  -4.695   7.016  0.00  0.00    +0.109 C 
ATOM      5  C   UNL     1      -0.520  -6.008   6.335  0.00  0.00    +0.019 C 
ATOM      6  C   UNL     1       0.475  -6.757   7.225  0.00  0.00    +0.004 C 
ATOM      7  C   UNL     1       1.734  -5.907   7.413  0.00  0.00    +0.032 C 
ATOM      8  C   UNL     1       1.362  -4.595   8.101  0.00  0.00    +0.162 C 
ENDROOT
BRANCH   1  11
ATOM      9  C   UNL     1      -1.922  -0.378   5.265  0.00  0.00    +0.168 A 
ATOM     10  C   UNL     1      -0.669  -0.673   5.703  0.00  0.00    +0.086 A 
ATOM     11  C   UNL     1      -0.710  -1.949   6.306  0.00  0.00    +0.168 A 
ATOM     12  N   UNL     1      -1.942  -2.394   6.230  0.00  0.00    -0.073 NA
ATOM     13  O   UNL     1      -2.725  -1.411   5.579  0.00  0.00    -0.354 OA
BRANCH   9  19
ATOM     14  C   UNL     1      -1.997   4.606   5.019  0.00  0.00    +0.044 C 
ATOM     15  C   UNL     1      -2.370   3.261   4.450  0.00  0.00    -0.050 A 
ATOM     16  C   UNL     1      -3.099   3.186   3.276  0.00  0.00    +0.003 A 
ATOM     17  C   UNL     1      -3.445   1.956   2.747  0.00  0.00    +0.004 A 
ATOM     18  C   UNL     1      -3.066   0.794   3.388  0.00  0.00    -0.040 A 
ATOM     19  C   UNL     1      -2.331   0.863   4.573  0.00  0.00    +0.023 A 
ATOM     20  C   UNL     1      -1.980   2.107   5.098  0.00  0.00    +0.015 A 
ATOM     21  C   UNL     1      -3.445  -0.545   2.811  0.00  0.00    +0.044 C 
ENDBRANCH   9  19
ENDBRANCH   1  11
BRANCH   8  22
ATOM     22  C   UNL     1       2.572  -3.698   8.161  0.00  0.00    +0.234 C 
ATOM     23  O   UNL     1       3.078  -3.293   7.136  0.00  0.00    -0.274 OA
ATOM     24  N   UNL     1       3.091  -3.347   9.354  0.00  0.00    -0.316 N 
ATOM     25  H   UNL     1       2.687  -3.671  10.173  0.00  0.00    +0.149 HD
BRANCH  24  26
ATOM     26  C   UNL     1       4.267  -2.475   9.412  0.00  0.00    +0.085 C 
BRANCH  26  27
ATOM     27  C   UNL     1       4.650  -2.232  10.873  0.00  0.00    -0.061 C 
BRANCH  27  28
ATOM     28  N   UNL     1       5.829  -1.358  10.932  0.00  0.00    +0.377 N 
ATOM     29  C   UNL     1       6.125  -1.028  12.333  0.00  0.00    -0.097 C 
ATOM     30  C   UNL     1       6.981  -2.049  10.338  0.00  0.00    -0.097 C 
ATOM     31  H   UNL     1       5.644  -0.509  10.418  0.00  0.00    -0.083 HD
ENDBRANCH  27  28
ENDBRANCH  26  27
ENDBRANCH  24  26
ENDBRANCH   8  22
TORSDOF 6
