REMARK  Name = ZINC65847671
REMARK  5 active torsions:
REMARK  status: ('A' for Active; 'I' for Inactive)
REMARK    1  A    between atoms: C_6  and  O_7
REMARK    2  A    between atoms: O_7  and  C_8
REMARK    3  A    between atoms: C_15  and  C_17
REMARK    4  A    between atoms: C_17  and  S_18
REMARK    5  A    between atoms: S_18  and  C_19
REMARK                            x       y       z     vdW  Elec       q    Type
REMARK                         _______ _______ _______ _____ _____    ______ ____
ROOT
ATOM      1  C   UNL     1      -0.021   1.402   0.076  0.00  0.00    +0.048 A 
ATOM      2  C   UNL     1       1.169   2.099   0.046  0.00  0.00    +0.027 A 
ATOM      3  C   UNL     1       2.378   1.414   0.021  0.00  0.00    +0.040 A 
ATOM      4  C   UNL     1       2.393   0.029   0.028  0.00  0.00    -0.022 A 
ATOM      5  C   UNL     1       1.197  -0.668   0.055  0.00  0.00    +0.051 A 
ATOM      6  C   UNL     1      -0.009   0.015   0.079  0.00  0.00    +0.127 A 
ATOM      7  C   UNL     1       3.685  -0.745   0.012  0.00  0.00    +0.038 C 
ATOM      8  C   UNL     1       4.824   0.126  -0.517  0.00  0.00    +0.024 C 
ATOM      9  C   UNL     1       4.840   1.449   0.261  0.00  0.00    +0.114 C 
ATOM     10  N   UNL     1       3.576   2.145  -0.013  0.00  0.00    -0.270 N 
ATOM     11  C   UNL     1       3.567   3.464  -0.293  0.00  0.00    +0.230 C 
ATOM     12  O   UNL     1       2.534   4.006  -0.626  0.00  0.00    -0.274 OA
ENDROOT
BRANCH   6  13
ATOM     13  O   UNL     1      -1.180  -0.675   0.106  0.00  0.00    -0.434 OA
BRANCH  13  14
ATOM     14  C   UNL     1      -2.385   0.093   0.130  0.00  0.00    +0.541 C 
ATOM     15  F   UNL     1      -2.400   0.903   1.271  0.00  0.00    -0.166 F 
ATOM     16  F   UNL     1      -2.449   0.896  -1.013  0.00  0.00    -0.166 F 
ENDBRANCH  13  14
ENDBRANCH   6  13
BRANCH  11  17
ATOM     17  C   UNL     1       4.840   4.264  -0.192  0.00  0.00    +0.173 C 
BRANCH  17  18
ATOM     18  S   UNL     1       4.473   6.020  -0.467  0.00  0.00    -0.077 S 
BRANCH  18  19
ATOM     19  C   UNL     1       6.041   6.811  -0.319  0.00  0.00    +0.184 A 
ATOM     20  N   UNL     1       7.188   6.217  -0.066  0.00  0.00    -0.209 NA
ATOM     21  H   UNL     1       5.628   8.826  -0.643  0.00  0.00    +0.191 HD
ATOM     22  C   UNL     1       8.164   7.125  -0.025  0.00  0.00    +0.245 A 
ATOM     23  N   UNL     1       7.659   8.307  -0.250  0.00  0.00    -0.160 NA
ATOM     24  N   UNL     1       6.280   8.133  -0.451  0.00  0.00    -0.254 N 
ENDBRANCH  18  19
ENDBRANCH  17  18
ENDBRANCH  11  17
TORSDOF 5
