REMARK  Name = ZINC20610965
REMARK  6 active torsions:
REMARK  status: ('A' for Active; 'I' for Inactive)
REMARK    1  A    between atoms: C_1  and  O_2
REMARK    2  A    between atoms: O_2  and  C_3
REMARK    3  A    between atoms: C_6  and  C_9
REMARK    4  A    between atoms: C_9  and  N_10
REMARK    5  A    between atoms: C_15  and  C_33
REMARK    6  A    between atoms: C_33  and  C_34
REMARK                            x       y       z     vdW  Elec       q    Type
REMARK                         _______ _______ _______ _____ _____    ______ ____
ROOT
ATOM      1  N   UNL     1      -5.423  -2.855  -1.343  0.00  0.00    -0.237 N 
ATOM      2  C   UNL     1      -6.161  -1.969  -2.021  0.00  0.00    +0.227 C 
ATOM      3  O   UNL     1      -6.544  -0.902  -1.591  0.00  0.00    -0.275 OA
ATOM      4  C   UNL     1      -6.444  -2.505  -3.406  0.00  0.00    +0.107 C 
ATOM      5  C   UNL     1      -7.949  -2.829  -3.526  0.00  0.00    +0.076 C 
ATOM      6  N   UNL     1      -7.999  -4.171  -4.164  0.00  0.00    -0.295 NA
ATOM      7  C   UNL     1      -6.877  -4.905  -3.549  0.00  0.00    +0.136 C 
ATOM      8  C   UNL     1      -5.723  -3.881  -3.411  0.00  0.00    +0.122 C 
ATOM      9  C   UNL     1      -5.117  -3.963  -2.029  0.00  0.00    +0.229 C 
ATOM     10  O   UNL     1      -4.458  -4.888  -1.606  0.00  0.00    -0.275 OA
ATOM     11  C   UNL     1      -7.265  -5.494  -2.223  0.00  0.00    +0.005 A 
ATOM     12  C   UNL     1      -7.725  -4.953  -1.043  0.00  0.00    +0.027 A 
ATOM     13  C   UNL     1      -8.007  -5.777   0.034  0.00  0.00    +0.041 A 
ATOM     14  C   UNL     1      -7.824  -7.144  -0.080  0.00  0.00    +0.022 A 
ATOM     15  C   UNL     1      -7.362  -7.689  -1.259  0.00  0.00    +0.025 A 
ATOM     16  C   UNL     1      -7.077  -6.868  -2.347  0.00  0.00    +0.039 A 
ATOM     17  N   UNL     1      -6.607  -7.177  -3.626  0.00  0.00    -0.283 N 
ATOM     18  C   UNL     1      -6.463  -6.080  -4.393  0.00  0.00    +0.243 C 
ATOM     19  O   UNL     1      -6.074  -6.045  -5.542  0.00  0.00    -0.273 OA
ATOM     20 CL   UNL     1      -8.587  -5.096   1.522  0.00  0.00    -0.084 Cl
ATOM     21  H   UNL     1      -8.878  -4.630  -3.973  0.00  0.00    +0.124 HD
ATOM     22  H   UNL     1      -6.408  -8.078  -3.926  0.00  0.00    +0.155 HD
ENDROOT
BRANCH   1  23
ATOM     23  C   UNL     1      -4.981  -2.629   0.035  0.00  0.00    +0.151 C 
BRANCH  23  27
ATOM     24  C   UNL     1      -1.200  -0.637   0.010  0.00  0.00    +0.120 A 
ATOM     25  C   UNL     1      -2.375   0.101   0.019  0.00  0.00    +0.046 A 
ATOM     26  C   UNL     1      -3.596  -0.545   0.027  0.00  0.00    +0.009 A 
ATOM     27  C   UNL     1      -3.648  -1.927   0.026  0.00  0.00    -0.029 A 
ATOM     28  C   UNL     1      -2.479  -2.665   0.017  0.00  0.00    +0.009 A 
ATOM     29  C   UNL     1      -1.255  -2.024   0.003  0.00  0.00    +0.046 A 
BRANCH  24  31
ATOM     30  C   UNL     1      -0.017   1.425   0.010  0.00  0.00    +0.277 C 
ATOM     31  O   UNL     1       0.002  -0.004   0.002  0.00  0.00    -0.495 OA
ENDBRANCH  24  31
ENDBRANCH  23  27
ENDBRANCH   1  23
BRANCH   5  32
ATOM     32  C   UNL     1      -8.649  -1.792  -4.406  0.00  0.00    +0.115 C 
BRANCH  32  33
ATOM     33  C   UNL     1     -10.133  -2.055  -4.410  0.00  0.00    +0.212 C 
ATOM     34  O   UNL     1     -10.586  -2.982  -3.771  0.00  0.00    -0.276 OA
ATOM     35  N   UNL     1     -10.957  -1.262  -5.123  0.00  0.00    -0.329 N 
ATOM     36  H   UNL     1     -10.594  -0.521  -5.633  0.00  0.00    +0.145 HD
ATOM     37  H   UNL     1     -11.912  -1.432  -5.125  0.00  0.00    +0.145 HD
ENDBRANCH  32  33
ENDBRANCH   5  32
TORSDOF 5
