REMARK  Name = ZINC43070379
REMARK  10 active torsions:
REMARK  status: ('A' for Active; 'I' for Inactive)
REMARK    1  A    between atoms: C_1  and  C_2
REMARK    2  A    between atoms: C_2  and  C_4
REMARK    3  A    between atoms: C_2  and  N_7
REMARK    4  A    between atoms: C_4  and  C_5
REMARK    5  A    between atoms: C_4  and  C_6
REMARK    6  A    between atoms: N_10  and  N_11
REMARK    7  A    between atoms: C_12  and  C_14
REMARK    8  A    between atoms: N_23  and  C_25
REMARK    9  A    between atoms: C_25  and  C_26
REMARK   10  A    between atoms: C_25  and  C_27
REMARK                            x       y       z     vdW  Elec       q    Type
REMARK                         _______ _______ _______ _____ _____    ______ ____
ROOT
ATOM      1  N   UNL     1      -3.924  -1.457   0.078  0.00  0.00    -0.228 N 
ATOM      2  C   UNL     1      -5.189  -1.924   0.087  0.00  0.00    +0.281 C 
ATOM      3  O   UNL     1      -5.801  -2.043  -0.957  0.00  0.00    -0.267 OA
ATOM      4  H   UNL     1      -3.436  -1.363   0.910  0.00  0.00    +0.173 HD
ENDROOT
BRANCH   2   5
ATOM      5  C   UNL     1      -5.830  -2.291   1.365  0.00  0.00    +0.155 A 
ATOM      6  C   UNL     1      -7.209  -2.807   1.385  0.00  0.00    +0.020 A 
ATOM      7  C   UNL     1      -7.967  -2.974   0.232  0.00  0.00    +0.011 A 
ATOM      8  C   UNL     1      -9.252  -3.463   0.332  0.00  0.00    +0.001 A 
ATOM      9  C   UNL     1      -9.795  -3.789   1.568  0.00  0.00    +0.001 A 
ATOM     10  C   UNL     1      -9.060  -3.630   2.724  0.00  0.00    +0.014 A 
ATOM     11  C   UNL     1      -7.761  -3.138   2.644  0.00  0.00    +0.050 A 
ATOM     12  C   UNL     1      -6.909  -2.938   3.824  0.00  0.00    +0.275 A 
ATOM     13  O   UNL     1      -7.319  -3.203   4.940  0.00  0.00    -0.266 OA
ATOM     14  N   UNL     1      -5.663  -2.455   3.643  0.00  0.00    -0.226 N 
ATOM     15  N   UNL     1      -5.178  -2.166   2.495  0.00  0.00    -0.163 NA
BRANCH  14  16
ATOM     16  C   UNL     1      -4.817  -2.258   4.823  0.00  0.00    +0.105 C 
ATOM     17  C   UNL     1      -3.556  -3.114   4.695  0.00  0.00    +0.032 C 
ATOM     18  C   UNL     1      -4.425  -0.783   4.928  0.00  0.00    +0.032 C 
ENDBRANCH  14  16
ENDBRANCH   2   5
BRANCH   1  22
ATOM     19  N   UNL     1      -1.372  -0.511   0.012  0.00  0.00    -0.295 N 
ATOM     20  C   UNL     1      -2.051  -0.643  -1.145  0.00  0.00    +0.316 C 
ATOM     21  O   UNL     1      -1.522  -0.341  -2.197  0.00  0.00    -0.251 OA
ATOM     22  N   UNL     1      -3.315  -1.109  -1.135  0.00  0.00    -0.218 N 
ATOM     23  H   UNL     1      -1.794  -0.752   0.852  0.00  0.00    +0.151 HD
ATOM     24  H   UNL     1      -3.804  -1.204  -1.968  0.00  0.00    +0.174 HD
BRANCH  19  26
ATOM     25  C   UNL     1      -0.019   1.526   0.010  0.00  0.00    +0.028 C 
ATOM     26  C   UNL     1       0.002  -0.004   0.002  0.00  0.00    +0.074 C 
BRANCH  26  27
ATOM     27  C   UNL     1       0.742  -0.511   1.242  0.00  0.00    +0.003 C 
ATOM     28  C   UNL     1       2.178   0.019   1.231  0.00  0.00    +0.009 C 
ATOM     29  C   UNL     1       0.026  -0.018   2.500  0.00  0.00    +0.009 C 
ENDBRANCH  26  27
ENDBRANCH  19  26
ENDBRANCH   1  22
TORSDOF 5
