REMARK  Name = ZINC05305862
REMARK  5 active torsions:
REMARK  status: ('A' for Active; 'I' for Inactive)
REMARK    1  A    between atoms: C_1  and  C_2
REMARK    2  A    between atoms: C_3  and  C_18
REMARK    3  A    between atoms: C_4  and  C_10
REMARK    4  A    between atoms: C_18  and  O_20
REMARK    5  A    between atoms: O_20  and  C_21
REMARK                            x       y       z     vdW  Elec       q    Type
REMARK                         _______ _______ _______ _____ _____    ______ ____
ROOT
ATOM      1  C   UNL     1       2.374   0.749  -0.005  0.00  0.00    +0.061 C 
ATOM      2  C   UNL     1       1.119   1.583  -0.001  0.00  0.00    +0.019 C 
ATOM      3  C   UNL     1       1.216   2.930   0.010  0.00  0.00    +0.078 C 
ATOM      4  C   UNL     1      -0.070   3.731   0.015  0.00  0.00    +0.142 C 
ATOM      5  N   UNL     1      -1.330   2.968   0.007  0.00  0.00    -0.315 N 
ATOM      6  C   UNL     1      -1.265   1.622  -0.009  0.00  0.00    +0.135 C 
ATOM      7  S   UNL     1      -2.721   0.722  -0.025  0.00  0.00    -0.019 S 
ATOM      8  N   UNL     1      -0.098   0.965  -0.007  0.00  0.00    -0.300 N 
ATOM      9  H   UNL     1      -2.187   3.423   0.009  0.00  0.00    +0.149 HD
ATOM     10  H   UNL     1      -0.118  -0.005  -0.015  0.00  0.00    +0.154 HD
ENDROOT
BRANCH   4  11
ATOM     11  C   UNL     1      -0.064   4.628  -1.196  0.00  0.00    -0.004 A 
ATOM     12  C   UNL     1       0.782   4.354  -2.255  0.00  0.00    +0.008 A 
ATOM     13  C   UNL     1       0.788   5.176  -3.366  0.00  0.00    +0.020 A 
ATOM     14  C   UNL     1      -0.052   6.274  -3.419  0.00  0.00    +0.042 A 
ATOM     15  C   UNL     1      -0.898   6.549  -2.360  0.00  0.00    +0.040 A 
ATOM     16  C   UNL     1      -0.908   5.723  -1.250  0.00  0.00    +0.048 A 
ATOM     17 CL   UNL     1      -1.974   6.063   0.077  0.00  0.00    -0.083 Cl
ATOM     18 CL   UNL     1      -0.043   7.307  -4.814  0.00  0.00    -0.083 Cl
ENDBRANCH   4  11
BRANCH   3  19
ATOM     19  C   UNL     1       2.477   3.572   0.018  0.00  0.00    +0.338 C 
ATOM     20  O   UNL     1       3.495   2.912   0.102  0.00  0.00    -0.245 OA
BRANCH  19  21
ATOM     21  O   UNL     1       2.549   4.917  -0.069  0.00  0.00    -0.465 OA
ATOM     22  C   UNL     1       3.854   5.491  -0.168  0.00  0.00    +0.280 C 
ENDBRANCH  19  21
ENDBRANCH   3  19
TORSDOF 3
