REMARK  Name = ZINC36572017
REMARK  16 active torsions:
REMARK  status: ('A' for Active; 'I' for Inactive)
REMARK    1  A    between atoms: C_1  and  C_2
REMARK    2  A    between atoms: C_2  and  C_3
REMARK    3  A    between atoms: C_3  and  N_4
REMARK    4  A    between atoms: N_4  and  C_5
REMARK    5  A    between atoms: C_5  and  C_7
REMARK    6  A    between atoms: C_5  and  C_16
REMARK    7  A    between atoms: C_8  and  O_15
REMARK    8  A    between atoms: C_10  and  O_14
REMARK    9  A    between atoms: C_12  and  O_13
REMARK   10  A    between atoms: N_18  and  C_19
REMARK   11  A    between atoms: C_19  and  S_20
REMARK   12  A    between atoms: S_20  and  C_23
REMARK   13  A    between atoms: C_26  and  C_29
REMARK   14  A    between atoms: C_30  and  C_32
REMARK   15  A    between atoms: C_32  and  C_33
REMARK   16  A    between atoms: C_33  and  S_34
REMARK                            x       y       z     vdW  Elec       q    Type
REMARK                         _______ _______ _______ _____ _____    ______ ____
ROOT
ATOM      1  C   UNL     1       1.858  -2.670   0.809  0.00  0.00    +0.199 C 
ENDROOT
BRANCH   1   2
ATOM      2  C   UNL     1       2.686  -1.816   1.733  0.00  0.00    +0.065 A 
ATOM      3  C   UNL     1       3.755  -2.373   2.420  0.00  0.00    +0.129 A 
ATOM      4  C   UNL     1       4.517  -1.587   3.271  0.00  0.00    +0.091 A 
ATOM      5  C   UNL     1       4.211  -0.244   3.435  0.00  0.00    +0.124 A 
ATOM      6  C   UNL     1       3.143   0.313   2.748  0.00  0.00    +0.091 A 
ATOM      7  C   UNL     1       2.384  -0.472   1.893  0.00  0.00    +0.129 A 
BRANCH   7   8
ATOM      8  O   UNL     1       1.340   0.074   1.216  0.00  0.00    -0.506 OA
ATOM      9  H   UNL     1       0.498   0.031   1.690  0.00  0.00    +0.292 HD
ENDBRANCH   7   8
BRANCH   5  10
ATOM     10  O   UNL     1       4.958   0.526   4.270  0.00  0.00    -0.507 OA
ATOM     11  H   UNL     1       5.712   0.953   3.841  0.00  0.00    +0.292 HD
ENDBRANCH   5  10
BRANCH   3  12
ATOM     12  O   UNL     1       4.055  -3.688   2.259  0.00  0.00    -0.506 OA
ATOM     13  H   UNL     1       4.736  -3.858   1.594  0.00  0.00    +0.292 HD
ENDBRANCH   3  12
ENDBRANCH   1   2
BRANCH   1  14
ATOM     14  C   UNL     1       2.202  -2.342  -0.621  0.00  0.00    +0.240 C 
ATOM     15  O   UNL     1       1.906  -1.260  -1.083  0.00  0.00    -0.273 OA
ATOM     16  N   UNL     1       2.838  -3.251  -1.387  0.00  0.00    -0.294 N 
ATOM     17  H   UNL     1       3.074  -4.116  -1.018  0.00  0.00    +0.150 HD
BRANCH  16  18
ATOM     18  C   UNL     1       3.172  -2.931  -2.777  0.00  0.00    +0.278 C 
BRANCH  18  19
ATOM     19  S   UNL     1       4.874  -2.309  -2.862  0.00  0.00    +0.013 S 
ATOM     20  O   UNL     1       5.235  -2.054  -4.213  0.00  0.00    -0.168 OA
ATOM     21  O   UNL     1       5.086  -1.326  -1.858  0.00  0.00    -0.168 OA
BRANCH  19  22
ATOM     22  C   UNL     1       5.880  -3.672  -2.377  0.00  0.00    +0.090 A 
ATOM     23  C   UNL     1       6.197  -3.857  -1.045  0.00  0.00    +0.027 A 
ATOM     24  C   UNL     1       6.986  -4.926  -0.664  0.00  0.00    +0.005 A 
ATOM     25  C   UNL     1       7.457  -5.811  -1.616  0.00  0.00    -0.050 A 
ATOM     26  C   UNL     1       7.139  -5.627  -2.949  0.00  0.00    +0.005 A 
ATOM     27  C   UNL     1       6.346  -4.559  -3.329  0.00  0.00    +0.027 A 
ATOM     28  C   UNL     1       8.318  -6.976  -1.202  0.00  0.00    +0.044 C 
ENDBRANCH  19  22
ENDBRANCH  18  19
ENDBRANCH  16  18
ENDBRANCH   1  14
BRANCH   1  29
ATOM     29  N   UNL     1       0.436  -2.405   1.042  0.00  0.00    -0.286 N 
ATOM     30  C   UNL     1      -0.119  -2.705   2.233  0.00  0.00    +0.217 C 
ATOM     31  O   UNL     1      -1.296  -2.486   2.426  0.00  0.00    -0.276 OA
BRANCH  29  32
ATOM     32  C   UNL     1      -0.383  -1.814  -0.019  0.00  0.00    +0.108 C 
BRANCH  32  34
ATOM     33  C   UNL     1      -1.861  -2.320  -1.970  0.00  0.00    +0.005 C 
ATOM     34  C   UNL     1      -0.905  -2.922  -0.937  0.00  0.00    +0.016 C 
ENDBRANCH  32  34
ENDBRANCH  29  32
BRANCH  30  35
ATOM     35  C   UNL     1       0.724  -3.313   3.325  0.00  0.00    +0.106 C 
BRANCH  35  36
ATOM     36  C   UNL     1      -0.142  -3.554   4.563  0.00  0.00    +0.075 C 
BRANCH  36  37
ATOM     37  S   UNL     1       0.872  -4.285   5.877  0.00  0.00    -0.178 S 
ATOM     38  H   UNL     1       0.012  -4.448   6.899  0.00  0.00    +0.102 HD
ENDBRANCH  36  37
ENDBRANCH  35  36
ENDBRANCH  30  35
ENDBRANCH   1  29
TORSDOF 14
