REMARK  Name = ZINC39159680
REMARK  5 active torsions:
REMARK  status: ('A' for Active; 'I' for Inactive)
REMARK    1  A    between atoms: C_6  and  C_7
REMARK    2  A    between atoms: C_9  and  N_13
REMARK    3  A    between atoms: C_14  and  C_15
REMARK    4  A    between atoms: C_17  and  N_22
REMARK    5  A    between atoms: C_20  and  O_21
REMARK                            x       y       z     vdW  Elec       q    Type
REMARK                         _______ _______ _______ _____ _____    ______ ____
ROOT
ATOM      1  N   UNL     1      -3.245  -3.109   1.226  0.00  0.00    -0.259 NA
ATOM      2  C   UNL     1      -3.806  -4.271   1.122  0.00  0.00    +0.119 C 
ENDROOT
BRANCH   2   3
ATOM      3  C   UNL     1      -4.196  -5.013   2.335  0.00  0.00    +0.036 A 
ATOM      4  C   UNL     1      -4.796  -6.269   2.227  0.00  0.00    +0.045 A 
ATOM      5  C   UNL     1      -5.157  -6.958   3.365  0.00  0.00    +0.127 A 
ATOM      6  C   UNL     1      -4.928  -6.409   4.616  0.00  0.00    +0.036 A 
ATOM      7  C   UNL     1      -4.335  -5.168   4.737  0.00  0.00    +0.048 A 
ATOM      8  C   UNL     1      -3.960  -4.463   3.603  0.00  0.00    +0.126 A 
BRANCH   5   9
ATOM      9  N   UNL     1      -5.794  -8.289   3.251  0.00  0.00    +0.056 N 
ATOM     10  O   UNL     1      -5.996  -8.770   2.160  0.00  0.00    -0.126 OA
ATOM     11  O   UNL     1      -6.112  -8.895   4.247  0.00  0.00    -0.126 OA
ENDBRANCH   5   9
BRANCH   8  12
ATOM     12  O   UNL     1      -3.372  -3.246   3.720  0.00  0.00    -0.506 OA
ATOM     13  H   UNL     1      -3.997  -2.507   3.734  0.00  0.00    +0.292 HD
ENDBRANCH   8  12
ENDBRANCH   2   3
BRANCH   1  16
ATOM     14  C   UNL     1      -1.271  -0.766   0.011  0.00  0.00    +0.093 C 
ATOM     15  C   UNL     1      -1.363  -2.110   0.010  0.00  0.00    +0.055 C 
ATOM     16  C   UNL     1      -2.858  -2.372   0.020  0.00  0.00    +0.268 C 
ATOM     17  N   UNL     1      -3.437  -1.019   0.026  0.00  0.00    -0.156 NA
ATOM     18  N   UNL     1      -2.509  -0.206   0.026  0.00  0.00    -0.152 NA
BRANCH  14  24
ATOM     19  C   UNL     1      -0.017   1.389   0.010  0.00  0.00    +0.011 A 
ATOM     20  C   UNL     1       1.170   2.093   0.002  0.00  0.00    +0.016 A 
ATOM     21  C   UNL     1       2.378   1.417  -0.013  0.00  0.00    +0.018 A 
ATOM     22  C   UNL     1       2.402   0.034  -0.021  0.00  0.00    +0.016 A 
ATOM     23  C   UNL     1       1.221  -0.680  -0.014  0.00  0.00    +0.011 A 
ATOM     24  C   UNL     1       0.002  -0.004   0.002  0.00  0.00    +0.002 A 
ATOM     25 BR   UNL     1       4.001   2.388  -0.025  0.00  0.00    -0.050 Br
ENDBRANCH  14  24
ENDBRANCH   1  16
TORSDOF 5
