REMARK  Name = ZINC58551509
REMARK  8 active torsions:
REMARK  status: ('A' for Active; 'I' for Inactive)
REMARK    1  A    between atoms: C_1  and  C_2
REMARK    2  A    between atoms: C_3  and  C_9
REMARK    3  A    between atoms: C_4  and  C_8
REMARK    4  A    between atoms: N_5  and  C_7
REMARK    5  A    between atoms: C_10  and  C_11
REMARK    6  A    between atoms: N_13  and  C_14
REMARK    7  A    between atoms: N_20  and  S_23
REMARK    8  A    between atoms: S_23  and  N_26
REMARK                            x       y       z     vdW  Elec       q    Type
REMARK                         _______ _______ _______ _____ _____    ______ ____
ROOT
ATOM      1  C   UNL     1      -1.785   2.385  -6.010  0.00  0.00    +0.035 A 
ATOM      2  C   UNL     1      -1.388   1.564  -7.059  0.00  0.00    +0.024 A 
ATOM      3  C   UNL     1      -1.338   2.070  -8.343  0.00  0.00    +0.007 A 
ATOM      4  C   UNL     1      -1.681   3.387  -8.587  0.00  0.00    -0.023 A 
ATOM      5  C   UNL     1      -2.078   4.216  -7.549  0.00  0.00    +0.057 A 
ATOM      6  C   UNL     1      -2.134   3.703  -6.253  0.00  0.00    +0.048 A 
ATOM      7  N   UNL     1      -2.379   5.501  -8.004  0.00  0.00    -0.193 N 
ATOM      8  C   UNL     1      -2.182   5.582  -9.454  0.00  0.00    +0.137 C 
ATOM      9  C   UNL     1      -1.713   4.179  -9.875  0.00  0.00    +0.058 C 
ENDROOT
BRANCH   1  12
ATOM     10  C   UNL     1      -0.928   0.970  -4.301  0.00  0.00    +0.241 C 
ATOM     11  O   UNL     1      -0.112   0.529  -5.091  0.00  0.00    -0.270 OA
ATOM     12  N   UNL     1      -1.838   1.877  -4.708  0.00  0.00    -0.282 N 
ATOM     13  H   UNL     1      -2.529   2.178  -4.098  0.00  0.00    +0.155 HD
BRANCH  10  15
ATOM     14  C   UNL     1      -0.008  -0.381  -2.546  0.00  0.00    +0.016 C 
ATOM     15  C   UNL     1      -0.920   0.529  -2.954  0.00  0.00    +0.068 C 
BRANCH  14  18
ATOM     16  C   UNL     1      -0.041   1.488   0.018  0.00  0.00    +0.068 C 
ATOM     17  C   UNL     1      -0.015  -0.018   0.003  0.00  0.00    +0.067 A 
ATOM     18  C   UNL     1      -0.000  -0.838  -1.150  0.00  0.00    +0.018 A 
ATOM     19  C   UNL     1       0.022  -2.151  -0.716  0.00  0.00    +0.043 A 
ATOM     20  N   UNL     1       0.021  -2.129   0.628  0.00  0.00    -0.271 N 
ATOM     21  N   UNL     1       0.003  -0.795   1.051  0.00  0.00    -0.176 NA
ATOM     22  C   UNL     1       0.041  -3.304   1.504  0.00  0.00    +0.172 C 
ATOM     23  C   UNL     1       0.043  -3.379  -1.588  0.00  0.00    +0.066 C 
ENDBRANCH  14  18
ENDBRANCH  10  15
ENDBRANCH   1  12
BRANCH   7  24
ATOM     24  S   UNL     1      -2.887   6.752  -7.045  0.00  0.00    +0.109 S 
ATOM     25  O   UNL     1      -3.596   7.649  -7.889  0.00  0.00    -0.138 OA
ATOM     26  O   UNL     1      -3.474   6.167  -5.891  0.00  0.00    -0.138 OA
BRANCH  24  27
ATOM     27  N   UNL     1      -1.534   7.556  -6.531  0.00  0.00    -0.190 NA
ATOM     28  H   UNL     1      -0.655   7.254  -6.809  0.00  0.00    +0.146 HD
ATOM     29  H   UNL     1      -1.620   8.330  -5.952  0.00  0.00    +0.146 HD
ENDBRANCH  24  27
ENDBRANCH   7  24
TORSDOF 5
