REMARK  Name = ZINC34978771
REMARK  14 active torsions:
REMARK  status: ('A' for Active; 'I' for Inactive)
REMARK    1  A    between atoms: C_1  and  C_2
REMARK    2  A    between atoms: N_11  and  C_12
REMARK    3  A    between atoms: C_12  and  C_13
REMARK    4  A    between atoms: C_12  and  C_14
REMARK    5  A    between atoms: C_15  and  C_17
REMARK    6  A    between atoms: C_17  and  C_19
REMARK    7  A    between atoms: C_17  and  N_26
REMARK    8  A    between atoms: C_19  and  C_20
REMARK    9  A    between atoms: N_26  and  S_27
REMARK   10  A    between atoms: S_27  and  C_30
REMARK   11  A    between atoms: C_33  and  C_36
REMARK   12  A    between atoms: C_36  and  C_37
REMARK   13  A    between atoms: C_36  and  C_38
REMARK   14  A    between atoms: C_36  and  C_39
REMARK                            x       y       z     vdW  Elec       q    Type
REMARK                         _______ _______ _______ _____ _____    ______ ____
ROOT
ATOM      1  C   UNL     1      -3.362   0.414   2.966  0.00  0.00    +0.166 C 
ENDROOT
BRANCH   1  12
ATOM      2  C   UNL     1      -0.336   2.069  -0.384  0.00  0.00    +0.030 C 
ATOM      3  C   UNL     1       0.055   0.590  -0.366  0.00  0.00    +0.092 C 
ATOM      4  C   UNL     1      -1.192  -0.269  -0.123  0.00  0.00    +0.130 C 
ATOM      5  N   UNL     1      -1.633  -0.075   1.266  0.00  0.00    -0.297 N 
ATOM      6  C   UNL     1      -0.676  -0.319   2.354  0.00  0.00    +0.127 C 
ATOM      7  C   UNL     1       0.571   0.540   2.111  0.00  0.00    +0.128 C 
ATOM      8  N   UNL     1       1.015   0.347   0.720  0.00  0.00    -0.280 N 
ATOM      9  C   UNL     1       2.274  -0.049   0.445  0.00  0.00    +0.303 C 
ATOM     10  O   UNL     1       2.652  -0.119  -0.708  0.00  0.00    -0.253 OA
ATOM     11  N   UNL     1       3.115  -0.366   1.450  0.00  0.00    -0.297 N 
ATOM     12  C   UNL     1      -2.893   0.320   1.537  0.00  0.00    +0.235 C 
ATOM     13  O   UNL     1      -3.649   0.600   0.630  0.00  0.00    -0.274 OA
ATOM     14  H   UNL     1       2.793  -0.381   2.365  0.00  0.00    +0.150 HD
BRANCH  11  15
ATOM     15  C   UNL     1       4.514  -0.689   1.160  0.00  0.00    +0.068 C 
ATOM     16  C   UNL     1       5.330   0.603   1.081  0.00  0.00    +0.027 C 
ATOM     17  C   UNL     1       5.073  -1.579   2.272  0.00  0.00    +0.027 C 
ENDBRANCH  11  15
ENDBRANCH   1  12
BRANCH   1  18
ATOM     18  N   UNL     1      -4.587   1.216   3.026  0.00  0.00    -0.178 NA
ATOM     19  H   UNL     1      -5.232   1.172   2.303  0.00  0.00    +0.149 HD
BRANCH  18  20
ATOM     20  S   UNL     1      -4.869   2.200   4.328  0.00  0.00    +0.059 S 
ATOM     21  O   UNL     1      -6.105   2.856   4.081  0.00  0.00    -0.153 OA
ATOM     22  O   UNL     1      -4.643   1.413   5.489  0.00  0.00    -0.153 OA
BRANCH  20  23
ATOM     23  C   UNL     1      -3.625   3.449   4.316  0.00  0.00    +0.105 A 
ATOM     24  C   UNL     1      -2.432   3.242   4.984  0.00  0.00    +0.029 A 
ATOM     25  C   UNL     1      -1.457   4.221   4.975  0.00  0.00    +0.006 A 
ATOM     26  C   UNL     1      -1.674   5.407   4.298  0.00  0.00    -0.042 A 
ATOM     27  C   UNL     1      -2.866   5.613   3.630  0.00  0.00    +0.006 A 
ATOM     28  C   UNL     1      -3.840   4.632   3.635  0.00  0.00    +0.029 A 
BRANCH  26  29
ATOM     29  C   UNL     1      -0.611   6.475   4.290  0.00  0.00    -0.013 C 
ATOM     30  C   UNL     1       0.667   5.918   3.658  0.00  0.00    +0.015 C 
ATOM     31  C   UNL     1      -1.100   7.675   3.476  0.00  0.00    +0.015 C 
ATOM     32  C   UNL     1      -0.320   6.917   5.725  0.00  0.00    +0.015 C 
ENDBRANCH  26  29
ENDBRANCH  20  23
ENDBRANCH  18  20
ENDBRANCH   1  18
BRANCH   1  33
ATOM     33  C   UNL     1      -3.647  -0.990   3.502  0.00  0.00    +0.065 C 
BRANCH  33  34
ATOM     34  C   UNL     1      -4.134  -0.895   4.925  0.00  0.00    -0.045 A 
ATOM     35  C   UNL     1      -3.229  -0.924   5.969  0.00  0.00    +0.004 A 
ATOM     36  C   UNL     1      -3.676  -0.837   7.274  0.00  0.00    +0.000 A 
ATOM     37  C   UNL     1      -5.029  -0.720   7.535  0.00  0.00    +0.000 A 
ATOM     38  C   UNL     1      -5.934  -0.690   6.491  0.00  0.00    +0.000 A 
ATOM     39  C   UNL     1      -5.486  -0.773   5.186  0.00  0.00    +0.004 A 
ENDBRANCH  33  34
ENDBRANCH   1  33
TORSDOF 8
