REMARK  Name = ZINC39700641
REMARK  4 active torsions:
REMARK  status: ('A' for Active; 'I' for Inactive)
REMARK    1  A    between atoms: C_9  and  O_26
REMARK    2  A    between atoms: C_10  and  C_11
REMARK    3  A    between atoms: N_12  and  N_13
REMARK    4  A    between atoms: C_14  and  C_16
REMARK                            x       y       z     vdW  Elec       q    Type
REMARK                         _______ _______ _______ _____ _____    ______ ____
ROOT
ATOM      1  C   UNL     1       4.982   0.092  -0.045  0.00  0.00    +0.142 C 
ATOM      2  N   UNL     1       6.109  -0.555  -0.059  0.00  0.00    -0.188 NA
ENDROOT
BRANCH   1  12
ATOM      3  C   UNL     1      -0.016   1.357   0.009  0.00  0.00    +0.001 A 
ATOM      4  C   UNL     1       1.167   2.091   0.002  0.00  0.00    +0.001 A 
ATOM      5  C   UNL     1       2.379   1.466  -0.013  0.00  0.00    +0.009 A 
ATOM      6  C   UNL     1       2.435   0.067  -0.021  0.00  0.00    -0.006 A 
ATOM      7  C   UNL     1       1.233  -0.683  -0.013  0.00  0.00    -0.017 A 
ATOM      8  C   UNL     1       0.002  -0.004   0.002  0.00  0.00    +0.008 A 
ATOM      9  C   UNL     1       1.291  -2.087  -0.021  0.00  0.00    +0.012 A 
ATOM     10  C   UNL     1       2.487  -2.733  -0.035  0.00  0.00    +0.046 A 
ATOM     11  C   UNL     1       3.696  -2.040  -0.042  0.00  0.00    +0.126 A 
ATOM     12  C   UNL     1       3.711  -0.645  -0.036  0.00  0.00    +0.044 A 
BRANCH  11  13
ATOM     13  O   UNL     1       4.868  -2.727  -0.056  0.00  0.00    -0.506 OA
ATOM     14  H   UNL     1       5.199  -2.922  -0.943  0.00  0.00    +0.292 HD
ENDBRANCH  11  13
ENDBRANCH   1  12
BRANCH   2  15
ATOM     15  N   UNL     1       7.321   0.148  -0.067  0.00  0.00    -0.205 N 
ATOM     16  C   UNL     1       8.489  -0.523  -0.081  0.00  0.00    +0.263 C 
ATOM     17  O   UNL     1       8.492  -1.736  -0.087  0.00  0.00    -0.271 OA
ATOM     18  H   UNL     1       7.319   1.118  -0.062  0.00  0.00    +0.177 HD
BRANCH  16  19
ATOM     19  C   UNL     1       9.793   0.233  -0.090  0.00  0.00    +0.243 C 
ATOM     20  C   UNL     1      10.151   0.665  -1.489  0.00  0.00    -0.012 C 
ATOM     21  C   UNL     1      11.308   0.050  -1.753  0.00  0.00    +0.065 C 
ATOM     22  C   UNL     1      12.040   0.203  -3.069  0.00  0.00    +0.057 C 
ATOM     23  C   UNL     1      11.064   0.766  -4.107  0.00  0.00    +0.006 C 
ATOM     24  C   UNL     1      10.368   2.007  -3.540  0.00  0.00    +0.005 C 
ATOM     25  C   UNL     1       9.410   1.581  -2.418  0.00  0.00    +0.035 C 
ATOM     26  N   UNL     1      11.689  -0.694  -0.692  0.00  0.00    -0.158 NA
ATOM     27  N   UNL     1      10.915  -0.653   0.275  0.00  0.00    -0.170 NA
ENDBRANCH  16  19
ENDBRANCH   2  15
TORSDOF 4
