REMARK  Name = ZINC09379861
REMARK  9 active torsions:
REMARK  status: ('A' for Active; 'I' for Inactive)
REMARK    1  A    between atoms: C_1  and  C_2
REMARK    2  A    between atoms: C_9  and  N_33
REMARK    3  A    between atoms: C_10  and  C_31
REMARK    4  A    between atoms: C_11  and  C_13
REMARK    5  A    between atoms: C_15  and  O_29
REMARK    6  A    between atoms: C_16  and  O_20
REMARK    7  A    between atoms: O_20  and  C_21
REMARK    8  A    between atoms: C_21  and  C_22
REMARK    9  A    between atoms: O_29  and  C_30
REMARK                            x       y       z     vdW  Elec       q    Type
REMARK                         _______ _______ _______ _____ _____    ______ ____
ROOT
ATOM      1  C   UNL     1      -1.367   0.105  -2.954  0.00  0.00    -0.030 A 
ATOM      2  C   UNL     1      -1.500   1.394  -3.436  0.00  0.00    +0.054 A 
ATOM      3  C   UNL     1      -2.751   1.880  -3.779  0.00  0.00    +0.163 A 
ATOM      4  C   UNL     1      -3.873   1.068  -3.638  0.00  0.00    +0.176 A 
ATOM      5  C   UNL     1      -3.733  -0.223  -3.155  0.00  0.00    +0.063 A 
ATOM      6  C   UNL     1      -2.479  -0.704  -2.819  0.00  0.00    +0.023 A 
ATOM      7 BR   UNL     1      -5.253  -1.331  -2.962  0.00  0.00    -0.046 Br
ENDROOT
BRANCH   1  18
ATOM      8  C   UNL     1      -0.018   1.503   0.010  0.00  0.00    +0.068 C 
ATOM      9  C   UNL     1       0.002  -0.004   0.002  0.00  0.00    +0.068 A 
ATOM     10  C   UNL     1       0.008  -0.813  -1.126  0.00  0.00    +0.049 A 
ATOM     11  C   UNL     1       0.028  -2.116  -0.713  0.00  0.00    +0.222 A 
ATOM     12  N   UNL     1       0.033  -2.116   0.629  0.00  0.00    -0.246 N 
ATOM     13  H   UNL     1       0.046  -2.900   1.201  0.00  0.00    +0.192 HD
ATOM     14  N   UNL     1       0.023  -0.780   1.060  0.00  0.00    -0.176 NA
ATOM     15  O   UNL     1       0.042  -3.159  -1.580  0.00  0.00    -0.423 OA
ATOM     16  C   UNL     1       0.311  -2.892  -2.874  0.00  0.00    +0.200 C 
ATOM     17  C   UNL     1       0.309  -1.648  -3.402  0.00  0.00    +0.098 C 
ATOM     18  C   UNL     1      -0.005  -0.421  -2.581  0.00  0.00    +0.101 C 
BRANCH  16  19
ATOM     19  N   UNL     1       0.605  -3.945  -3.704  0.00  0.00    -0.328 N 
ATOM     20  H   UNL     1       0.615  -4.850  -3.354  0.00  0.00    +0.145 HD
ATOM     21  H   UNL     1       0.803  -3.785  -4.640  0.00  0.00    +0.145 HD
ENDBRANCH  16  19
BRANCH  17  22
ATOM     22  C   UNL     1       0.616  -1.487  -4.791  0.00  0.00    +0.101 C 
ATOM     23  N   UNL     1       0.860  -1.360  -5.894  0.00  0.00    -0.191 NA
ENDBRANCH  17  22
ENDBRANCH   1  18
BRANCH   3  24
ATOM     24  O   UNL     1      -2.884   3.148  -4.253  0.00  0.00    -0.491 OA
ATOM     25  C   UNL     1      -1.690   3.925  -4.370  0.00  0.00    +0.277 C 
ENDBRANCH   3  24
BRANCH   4  26
ATOM     26  O   UNL     1      -5.103   1.541  -3.974  0.00  0.00    -0.483 OA
BRANCH  26  27
ATOM     27  C   UNL     1      -5.530   1.339  -5.322  0.00  0.00    +0.266 C 
BRANCH  27  28
ATOM     28  C   UNL     1      -6.906   1.925  -5.506  0.00  0.00    +0.008 A 
ATOM     29  C   UNL     1      -7.543   2.542  -4.446  0.00  0.00    +0.008 A 
ATOM     30  C   UNL     1      -8.805   3.079  -4.614  0.00  0.00    +0.000 A 
ATOM     31  C   UNL     1      -9.432   2.999  -5.844  0.00  0.00    +0.001 A 
ATOM     32  C   UNL     1      -8.797   2.383  -6.905  0.00  0.00    +0.020 A 
ATOM     33  C   UNL     1      -7.531   1.850  -6.738  0.00  0.00    +0.047 A 
ATOM     34 CL   UNL     1      -6.730   1.081  -8.073  0.00  0.00    -0.083 Cl
ENDBRANCH  27  28
ENDBRANCH  26  27
ENDBRANCH   4  26
TORSDOF 7
