REMARK  Name = ZINC67044502
REMARK  6 active torsions:
REMARK  status: ('A' for Active; 'I' for Inactive)
REMARK    1  A    between atoms: C_1  and  C_2
REMARK    2  A    between atoms: C_2  and  C_4
REMARK    3  A    between atoms: C_2  and  N_10
REMARK    4  A    between atoms: N_13  and  N_14
REMARK    5  A    between atoms: C_15  and  C_17
REMARK    6  A    between atoms: C_17  and  C_18
REMARK                            x       y       z     vdW  Elec       q    Type
REMARK                         _______ _______ _______ _____ _____    ______ ____
ROOT
ATOM      1  N   UNL     1      -1.372  -0.511   0.012  0.00  0.00    -0.293 N 
ATOM      2  C   UNL     1      -2.029  -0.655   1.181  0.00  0.00    +0.316 C 
ATOM      3  O   UNL     1      -1.480  -0.364   2.226  0.00  0.00    -0.251 OA
ATOM      4  N   UNL     1      -3.293  -1.122   1.190  0.00  0.00    -0.218 N 
ATOM      5  H   UNL     1      -1.810  -0.743  -0.822  0.00  0.00    +0.151 HD
ATOM      6  H   UNL     1      -3.765  -1.225   2.031  0.00  0.00    +0.174 HD
ENDROOT
BRANCH   4   7
ATOM      7  N   UNL     1      -3.925  -1.457  -0.014  0.00  0.00    -0.233 N 
ATOM      8  C   UNL     1      -5.190  -1.923  -0.005  0.00  0.00    +0.229 C 
ATOM      9  O   UNL     1      -5.780  -2.053   1.047  0.00  0.00    -0.274 OA
ATOM     10  H   UNL     1      -3.453  -1.353  -0.855  0.00  0.00    +0.173 HD
BRANCH   8  11
ATOM     11  C   UNL     1      -5.870  -2.284  -1.300  0.00  0.00    +0.101 C 
BRANCH  11  12
ATOM     12  C   UNL     1      -7.287  -2.783  -1.011  0.00  0.00    -0.002 C 
ATOM     13  C   UNL     1      -7.215  -4.088  -0.215  0.00  0.00    +0.004 C 
ATOM     14  C   UNL     1      -8.632  -4.587   0.075  0.00  0.00    +0.000 C 
ATOM     15  C   UNL     1      -9.365  -4.835  -1.245  0.00  0.00    +0.000 C 
ATOM     16  C   UNL     1      -9.437  -3.530  -2.042  0.00  0.00    +0.000 C 
ATOM     17  C   UNL     1      -8.020  -3.031  -2.331  0.00  0.00    +0.004 C 
ENDBRANCH  11  12
ENDBRANCH   8  11
ENDBRANCH   4   7
BRANCH   1  19
ATOM     18  C   UNL     1      -0.019   1.526   0.010  0.00  0.00    +0.030 C 
ATOM     19  C   UNL     1       0.002  -0.004   0.002  0.00  0.00    +0.100 C 
BRANCH  19  20
ATOM     20  C   UNL     1       0.718  -0.497  -1.257  0.00  0.00    +0.138 C 
ATOM     21  C   UNL     1       0.611  -2.039  -1.367  0.00  0.00    +0.035 C 
ATOM     22  C   UNL     1       0.778  -2.238  -2.898  0.00  0.00    +0.031 C 
ATOM     23  C   UNL     1       0.090  -0.979  -3.469  0.00  0.00    +0.160 C 
ATOM     24  O   UNL     1       0.068   0.011  -2.432  0.00  0.00    -0.375 OA
ENDBRANCH  19  20
ENDBRANCH   1  19
TORSDOF 5
