REMARK  Name = ZINC43595151
REMARK  9 active torsions:
REMARK  status: ('A' for Active; 'I' for Inactive)
REMARK    1  A    between atoms: C_4  and  CA_7
REMARK    2  A    between atoms: CA_7  and  C_9
REMARK    3  A    between atoms: CA_7  and  N_12
REMARK    4  A    between atoms: C_13  and  C_15
REMARK    5  A    between atoms: C_15  and  C_16
REMARK    6  A    between atoms: C_16  and  C_18
REMARK    7  A    between atoms: C_16  and  C_28
REMARK    8  A    between atoms: C_18  and  N_19
REMARK    9  A    between atoms: C_20  and  C_22
REMARK                            x       y       z     vdW  Elec       q    Type
REMARK                         _______ _______ _______ _____ _____    ______ ____
ROOT
ATOM      1  C   UNL     1       6.012  -3.931  -2.935  0.00  0.00    +0.045 C 
ENDROOT
BRANCH   1   2
ATOM      2  C   UNL     1       6.866  -4.390  -1.781  0.00  0.00    -0.042 A 
ATOM      3  C   UNL     1       6.486  -5.490  -1.035  0.00  0.00    +0.005 A 
ATOM      4  C   UNL     1       7.269  -5.911   0.024  0.00  0.00    +0.020 A 
ATOM      5  C   UNL     1       8.433  -5.232   0.336  0.00  0.00    +0.041 A 
ATOM      6  C   UNL     1       8.812  -4.131  -0.411  0.00  0.00    +0.020 A 
ATOM      7  C   UNL     1       8.032  -3.714  -1.473  0.00  0.00    +0.005 A 
ATOM      8 CL   UNL     1       9.416  -5.760   1.665  0.00  0.00    -0.084 Cl
ENDBRANCH   1   2
BRANCH   1   9
ATOM      9  C   UNL     1       4.619  -3.561  -2.422  0.00  0.00    +0.105 C 
BRANCH   9  11
ATOM     10  N   UNL     1       3.611  -1.865  -0.930  0.00  0.00    -0.299 N 
ATOM     11  C   UNL     1       4.721  -2.370  -1.504  0.00  0.00    +0.215 C 
ATOM     12  O   UNL     1       5.802  -1.868  -1.281  0.00  0.00    -0.276 OA
ATOM     13  H   UNL     1       2.747  -2.267  -1.108  0.00  0.00    +0.150 HD
BRANCH  10  14
ATOM     14  CA  UNL     1       3.711  -0.707  -0.038  0.00  0.00    +0.217 C 
BRANCH  14  18
ATOM     15  C   UNL     1      -0.017   1.378   0.010  0.00  0.00    +0.000 A 
ATOM     16  C   UNL     1       1.171   2.086   0.002  0.00  0.00    +0.000 A 
ATOM     17  C   UNL     1       2.377   1.411  -0.013  0.00  0.00    +0.006 A 
ATOM     18  C   UNL     1       2.396   0.029  -0.020  0.00  0.00    -0.016 A 
ATOM     19  C   UNL     1       1.208  -0.679  -0.012  0.00  0.00    +0.006 A 
ATOM     20  C   UNL     1       0.002  -0.004   0.002  0.00  0.00    +0.000 A 
ENDBRANCH  14  18
BRANCH  14  21
ATOM     21  C   UNL     1       4.044  -1.175   1.356  0.00  0.00    +0.380 C 
ATOM     22  O   UNL     1       3.669  -2.270   1.737  0.00  0.00    -0.244 OA
ATOM     23  OXT UNL     1       4.688  -0.457   2.102  0.00  0.00    -0.244 OA
ENDBRANCH  14  21
ENDBRANCH  10  14
ENDBRANCH   9  11
ENDBRANCH   1   9
BRANCH   1  24
ATOM     24  C   UNL     1       5.894  -5.059  -3.962  0.00  0.00    +0.112 C 
BRANCH  24  25
ATOM     25  N   UNL     1       7.212  -5.332  -4.540  0.00  0.00    -0.316 N 
ATOM     26  C   UNL     1       7.352  -6.293  -5.475  0.00  0.00    +0.199 C 
ATOM     27  O   UNL     1       6.387  -6.932  -5.837  0.00  0.00    -0.278 OA
ATOM     28  H   UNL     1       7.984  -4.821  -4.250  0.00  0.00    +0.149 HD
BRANCH  26  29
ATOM     29  C   UNL     1       8.708  -6.574  -6.069  0.00  0.00    +0.016 C 
ATOM     30  C   UNL     1       9.231  -5.320  -6.801  0.00  0.00    -0.009 C 
ATOM     31  C   UNL     1       9.931  -5.912  -8.053  0.00  0.00    -0.020 C 
ATOM     32  C   UNL     1       9.013  -7.115  -8.385  0.00  0.00    -0.082 C 
ATOM     33  N   UNL     1       8.604  -7.655  -7.067  0.00  0.00    +0.387 N 
ATOM     34  H   UNL     1       9.211  -8.417  -6.807  0.00  0.00    -0.085 HD
ATOM     35  H   UNL     1       7.651  -7.983  -7.114  0.00  0.00    -0.085 HD
ENDBRANCH  26  29
ENDBRANCH  24  25
ENDBRANCH   1  24
TORSDOF 9
