REMARK  Name = ZINC19880149
REMARK  2 active torsions:
REMARK  status: ('A' for Active; 'I' for Inactive)
REMARK    1  A    between atoms: C_19  and  C_23
REMARK    2  A    between atoms: C_23  and  C_24
REMARK                            x       y       z     vdW  Elec       q    Type
REMARK                         _______ _______ _______ _____ _____    ______ ____
ROOT
ATOM      1  C   UNL     1       4.045   2.821  -0.228  0.00  0.00    +0.023 A 
ATOM      2  C   UNL     1       3.029   3.394  -0.964  0.00  0.00    +0.048 A 
ATOM      3  C   UNL     1       1.741   2.866  -0.913  0.00  0.00    +0.136 A 
ATOM      4  C   UNL     1       1.486   1.768  -0.112  0.00  0.00    +0.005 A 
ATOM      5  C   UNL     1       2.508   1.194   0.623  0.00  0.00    +0.028 A 
ATOM      6  C   UNL     1       3.787   1.718   0.566  0.00  0.00    +0.041 A 
ATOM      7 CL   UNL     1       5.066   0.992   1.488  0.00  0.00    -0.084 Cl
ATOM      8  C   UNL     1       0.100   1.167  -0.011  0.00  0.00    +0.080 C 
ATOM      9  C   UNL     1      -0.531   1.638   1.258  0.00  0.00    +0.033 A 
ATOM     10  C   UNL     1      -1.754   2.107   1.510  0.00  0.00    +0.087 A 
ATOM     11  N   UNL     1      -2.033   2.444   2.813  0.00  0.00    -0.311 N 
ATOM     12  H   UNL     1      -3.020   2.853   3.076  0.00  0.00    +0.170 HD
ATOM     13  C   UNL     1      -1.101   2.275   3.772  0.00  0.00    +0.289 A 
ATOM     14  O   UNL     1      -1.179   2.515   4.964  0.00  0.00    -0.260 OA
ATOM     15  S   UNL     1       0.237   1.629   2.877  0.00  0.00    -0.030 S 
ATOM     16  S   UNL     1      -2.926   2.289   0.180  0.00  0.00    -0.106 S 
ATOM     17  C   UNL     1      -2.181   1.247  -1.111  0.00  0.00    +0.095 C 
ATOM     18  C   UNL     1      -0.703   1.584  -1.235  0.00  0.00    +0.099 C 
ATOM     19  C   UNL     1      -0.491   3.040  -1.489  0.00  0.00    +0.321 C 
ATOM     20  O   UNL     1      -1.419   3.814  -1.514  0.00  0.00    -0.250 OA
ATOM     21  O   UNL     1       0.780   3.453  -1.677  0.00  0.00    -0.425 OA
ENDROOT
BRANCH  18  22
ATOM     22  C   UNL     1      -0.152   0.835  -2.450  0.00  0.00    +0.145 C 
BRANCH  22  23
ATOM     23  C   UNL     1      -0.273  -0.650  -2.223  0.00  0.00    +0.357 C 
ATOM     24  O   UNL     1      -0.847  -1.066  -1.244  0.00  0.00    -0.246 OA
ATOM     25  O   UNL     1       0.255  -1.510  -3.108  0.00  0.00    -0.246 OA
ENDBRANCH  22  23
ENDBRANCH  18  22
TORSDOF 2
