REMARK  Name = ZINC43465364
REMARK  11 active torsions:
REMARK  status: ('A' for Active; 'I' for Inactive)
REMARK    1  A    between atoms: C_1  and  C_2
REMARK    2  A    between atoms: C_6  and  C_25
REMARK    3  A    between atoms: C_6  and  C_26
REMARK    4  A    between atoms: C_13  and  C_15
REMARK    5  A    between atoms: C_15  and  C_16
REMARK    6  A    between atoms: C_16  and  C_17
REMARK    7  A    between atoms: C_21  and  C_22
REMARK    8  A    between atoms: C_22  and  N_23
REMARK    9  A    between atoms: N_23  and  C_24
REMARK   10  A    between atoms: C_26  and  O_28
REMARK   11  A    between atoms: O_28  and  C_29
REMARK                            x       y       z     vdW  Elec       q    Type
REMARK                         _______ _______ _______ _____ _____    ______ ____
ROOT
ATOM      1  C   UNL     1      -0.705   1.909   0.691  0.00  0.00    +0.012 C 
ATOM      2  C   UNL     1      -0.346   0.422   0.728  0.00  0.00    -0.022 C 
ATOM      3  C   UNL     1       0.152  -0.013  -0.651  0.00  0.00    +0.007 C 
ATOM      4  C   UNL     1       1.377   0.821  -1.033  0.00  0.00    +0.002 C 
ATOM      5  C   UNL     1       2.481   0.615   0.006  0.00  0.00    +0.018 C 
ATOM      6  C   UNL     1       1.976   1.042   1.386  0.00  0.00    +0.068 C 
ATOM      7  C   UNL     1       0.757   0.192   1.762  0.00  0.00    +0.012 C 
ATOM      8  C   UNL     1       1.163  -1.284   1.768  0.00  0.00    +0.009 C 
ATOM      9  C   UNL     1      -0.030  -2.141   2.202  0.00  0.00    +0.031 C 
ATOM     10  C   UNL     1      -1.199  -1.830   1.294  0.00  0.00    -0.073 C 
ATOM     11  C   UNL     1      -1.853  -2.788   0.686  0.00  0.00    +0.008 C 
ATOM     12  C   UNL     1      -1.588  -0.390   1.102  0.00  0.00    +0.021 C 
ATOM     13  C   UNL     1       3.083   0.836   2.422  0.00  0.00    +0.023 C 
ENDROOT
BRANCH   6  14
ATOM     14  C   UNL     1       1.583   2.497   1.350  0.00  0.00    +0.313 C 
ATOM     15  O   UNL     1       1.816   3.161   0.367  0.00  0.00    -0.250 OA
BRANCH  14  16
ATOM     16  O   UNL     1       0.975   3.054   2.409  0.00  0.00    -0.468 OA
ATOM     17  C   UNL     1       0.631   4.437   2.305  0.00  0.00    +0.280 C 
ENDBRANCH  14  16
ENDBRANCH   6  14
BRANCH  12  18
ATOM     18  C   UNL     1      -2.629  -0.279  -0.014  0.00  0.00    +0.013 C 
BRANCH  18  19
ATOM     19  C   UNL     1      -3.963  -0.847   0.475  0.00  0.00    +0.039 C 
BRANCH  19  20
ATOM     20  C   UNL     1      -5.019  -0.623  -0.576  0.00  0.00    -0.008 A 
ATOM     21  C   UNL     1      -5.926   0.460  -0.642  0.00  0.00    +0.045 A 
ATOM     22  C   UNL     1      -6.687   0.265  -1.734  0.00  0.00    +0.195 A 
ATOM     23  O   UNL     1      -6.291  -0.872  -2.330  0.00  0.00    -0.469 OA
ATOM     24  C   UNL     1      -5.276  -1.412  -1.635  0.00  0.00    +0.091 A 
BRANCH  24  25
ATOM     25  C   UNL     1      -4.552  -2.687  -1.981  0.00  0.00    -0.007 C 
BRANCH  25  26
ATOM     26  N   UNL     1      -5.224  -3.822  -1.335  0.00  0.00    +0.382 N 
ATOM     27  C   UNL     1      -4.517  -5.066  -1.672  0.00  0.00    -0.100 C 
ATOM     28  H   UNL     1      -5.217  -3.693  -0.335  0.00  0.00    -0.086 HD
ATOM     29  H   UNL     1      -6.177  -3.878  -1.661  0.00  0.00    -0.086 HD
ENDBRANCH  25  26
ENDBRANCH  24  25
ENDBRANCH  19  20
ENDBRANCH  18  19
ENDBRANCH  12  18
TORSDOF 7
