REMARK  Name = ZINC38932735
REMARK  7 active torsions:
REMARK  status: ('A' for Active; 'I' for Inactive)
REMARK    1  A    between atoms: C_4  and  C_7
REMARK    2  A    between atoms: N_9  and  C_10
REMARK    3  A    between atoms: C_10  and  C_12
REMARK    4  A    between atoms: C_10  and  C_24
REMARK    5  A    between atoms: N_26  and  N_27
REMARK    6  A    between atoms: C_28  and  C_29
REMARK    7  A    between atoms: C_32  and  N_34
REMARK                            x       y       z     vdW  Elec       q    Type
REMARK                         _______ _______ _______ _____ _____    ______ ____
ROOT
ATOM      1  C   UNL     1       5.014  -2.810  -0.152  0.00  0.00    +0.189 C 
ENDROOT
BRANCH   1   2
ATOM      2  C   UNL     1       4.943  -2.573  -1.661  0.00  0.00    +0.156 C 
ATOM      3  C   UNL     1       6.101  -3.301  -2.301  0.00  0.00    -0.009 A 
ATOM      4  C   UNL     1       7.407  -3.053  -1.964  0.00  0.00    +0.006 A 
ATOM      5  C   UNL     1       8.421  -3.760  -2.592  0.00  0.00    +0.000 A 
ATOM      6  C   UNL     1       8.123  -4.710  -3.553  0.00  0.00    +0.001 A 
ATOM      7  C   UNL     1       6.811  -4.967  -3.900  0.00  0.00    +0.013 A 
ATOM      8  C   UNL     1       5.788  -4.261  -3.273  0.00  0.00    +0.045 A 
ATOM      9  C   UNL     1       4.366  -4.486  -3.594  0.00  0.00    +0.283 C 
ATOM     10  O   UNL     1       4.064  -5.312  -4.431  0.00  0.00    -0.267 OA
ATOM     11  N   UNL     1       3.401  -3.790  -2.973  0.00  0.00    -0.105 NA
ATOM     12  N   UNL     1       3.591  -2.933  -2.111  0.00  0.00    -0.305 N 
ATOM     13  H   UNL     1       2.827  -2.483  -1.718  0.00  0.00    +0.181 HD
ENDBRANCH   1   2
BRANCH   1  16
ATOM     14  C   UNL     1       4.343  -0.703   0.872  0.00  0.00    +0.245 C 
ATOM     15  O   UNL     1       5.477  -0.295   0.711  0.00  0.00    -0.270 OA
ATOM     16  N   UNL     1       4.026  -1.966   0.523  0.00  0.00    -0.298 N 
ATOM     17  H   UNL     1       3.142  -2.315   0.719  0.00  0.00    +0.150 HD
BRANCH  14  21
ATOM     18  C   UNL     1       1.383   1.851   2.531  0.00  0.00    +0.000 A 
ATOM     19  C   UNL     1       2.672   2.318   2.350  0.00  0.00    +0.001 A 
ATOM     20  C   UNL     1       3.639   1.494   1.812  0.00  0.00    +0.013 A 
ATOM     21  C   UNL     1       3.313   0.186   1.450  0.00  0.00    +0.037 A 
ATOM     22  C   UNL     1       2.010  -0.279   1.635  0.00  0.00    +0.013 A 
ATOM     23  C   UNL     1       1.053   0.555   2.175  0.00  0.00    +0.001 A 
ENDBRANCH  14  21
ENDBRANCH   1  16
BRANCH   1  24
ATOM     24  C   UNL     1       4.723  -4.259   0.144  0.00  0.00    +0.255 C 
ATOM     25  O   UNL     1       3.622  -4.590   0.514  0.00  0.00    -0.272 OA
ATOM     26  N   UNL     1       5.690  -5.185  -0.006  0.00  0.00    -0.205 N 
ATOM     27  H   UNL     1       6.590  -4.912  -0.243  0.00  0.00    +0.177 HD
BRANCH  26  28
ATOM     28  N   UNL     1       5.419  -6.434   0.167  0.00  0.00    -0.187 NA
ATOM     29  C   UNL     1       6.380  -7.354   0.018  0.00  0.00    +0.145 C 
BRANCH  29  30
ATOM     30  C   UNL     1       6.090  -8.692   0.203  0.00  0.00    +0.034 A 
ATOM     31  C   UNL     1       6.988  -9.868   0.098  0.00  0.00    +0.019 A 
ATOM     32  C   UNL     1       6.394 -11.038   0.339  0.00  0.00    +0.041 A 
ATOM     33  C   UNL     1       5.027 -11.065   0.658  0.00  0.00    +0.164 A 
ATOM     34  S   UNL     1       4.539  -9.458   0.637  0.00  0.00    -0.064 S 
BRANCH  33  35
ATOM     35  N   UNL     1       4.188 -12.265   0.959  0.00  0.00    +0.063 N 
ATOM     36  O   UNL     1       4.727 -13.467   0.939  0.00  0.00    -0.126 OA
ATOM     37  O   UNL     1       2.910 -12.121   1.243  0.00  0.00    -0.126 OA
ENDBRANCH  33  35
ENDBRANCH  29  30
ENDBRANCH  26  28
ENDBRANCH   1  24
TORSDOF 7
