REMARK  Name = ZINC37626066
REMARK  6 active torsions:
REMARK  status: ('A' for Active; 'I' for Inactive)
REMARK    1  A    between atoms: C_1  and  C_2
REMARK    2  A    between atoms: C_5  and  N_9
REMARK    3  A    between atoms: C_10  and  C_12
REMARK    4  A    between atoms: C_12  and  N_13
REMARK    5  A    between atoms: C_14  and  C_16
REMARK    6  A    between atoms: C_16  and  N_17
REMARK                            x       y       z     vdW  Elec       q    Type
REMARK                         _______ _______ _______ _____ _____    ______ ____
ROOT
ATOM      1  N   UNL     1       0.059  -4.172  -0.021  0.00  0.00    -0.282 N 
ATOM      2  C   UNL     1       0.473  -4.846   1.070  0.00  0.00    +0.234 C 
ATOM      3  O   UNL     1       0.743  -4.245   2.088  0.00  0.00    -0.274 OA
ATOM      4  H   UNL     1      -0.225  -4.656  -0.812  0.00  0.00    +0.155 HD
ENDROOT
BRANCH   1   9
ATOM      5  C   UNL     1      -0.020   1.503   0.010  0.00  0.00    +0.044 C 
ATOM      6  C   UNL     1       0.001  -0.004   0.002  0.00  0.00    -0.048 A 
ATOM      7  C   UNL     1       1.143  -0.676  -0.396  0.00  0.00    +0.020 A 
ATOM      8  C   UNL     1       1.165  -2.058  -0.405  0.00  0.00    +0.040 A 
ATOM      9  C   UNL     1       0.040  -2.772  -0.013  0.00  0.00    +0.062 A 
ATOM     10  C   UNL     1      -1.105  -2.094   0.386  0.00  0.00    +0.040 A 
ATOM     11  C   UNL     1      -1.119  -0.712   0.397  0.00  0.00    +0.020 A 
ATOM     12 BR   UNL     1      -2.640  -3.060   0.920  0.00  0.00    -0.048 Br
ATOM     13 BR   UNL     1       2.727  -2.975  -0.949  0.00  0.00    -0.048 Br
ENDBRANCH   1   9
BRANCH   2  14
ATOM     14  C   UNL     1       0.601  -6.347   1.025  0.00  0.00    +0.200 C 
BRANCH  14  15
ATOM     15  N   UNL     1       1.065  -6.837   2.325  0.00  0.00    -0.308 N 
ATOM     16  C   UNL     1       1.253  -8.157   2.520  0.00  0.00    +0.196 C 
ATOM     17  O   UNL     1       1.038  -8.940   1.618  0.00  0.00    -0.278 OA
ATOM     18  H   UNL     1       1.237  -6.211   3.046  0.00  0.00    +0.149 HD
BRANCH  16  19
ATOM     19  C   UNL     1       1.730  -8.662   3.857  0.00  0.00    +0.011 C 
BRANCH  19  20
ATOM     20  N   UNL     1       1.854 -10.124   3.813  0.00  0.00    +0.384 N 
ATOM     21  H   UNL     1       0.956 -10.532   3.601  0.00  0.00    -0.089 HD
ATOM     22  H   UNL     1       2.519 -10.384   3.100  0.00  0.00    -0.089 HD
ATOM     23  H   UNL     1       2.174 -10.462   4.709  0.00  0.00    -0.089 HD
ENDBRANCH  19  20
ENDBRANCH  16  19
ENDBRANCH  14  15
ENDBRANCH   2  14
TORSDOF 5
