REMARK  Name = ZINC43064888
REMARK  12 active torsions:
REMARK  status: ('A' for Active; 'I' for Inactive)
REMARK    1  A    between atoms: C_1  and  C_2
REMARK    2  A    between atoms: C_10  and  C_11
REMARK    3  A    between atoms: N_13  and  N_14
REMARK    4  A    between atoms: N_17  and  C_18
REMARK    5  A    between atoms: C_18  and  C_19
REMARK    6  A    between atoms: C_19  and  N_20
REMARK    7  A    between atoms: N_20  and  C_21
REMARK    8  A    between atoms: N_20  and  C_24
REMARK    9  A    between atoms: C_21  and  C_22
REMARK   10  A    between atoms: C_21  and  C_23
REMARK   11  A    between atoms: C_24  and  C_25
REMARK   12  A    between atoms: C_24  and  C_26
REMARK                            x       y       z     vdW  Elec       q    Type
REMARK                         _______ _______ _______ _____ _____    ______ ____
ROOT
ATOM      1  N   UNL     1       1.210  -0.557   5.352  0.00  0.00    -0.218 N 
ATOM      2  C   UNL     1       1.123  -1.581   6.224  0.00  0.00    +0.316 C 
ATOM      3  O   UNL     1       1.261  -1.378   7.415  0.00  0.00    -0.251 OA
ATOM      4  N   UNL     1       0.885  -2.829   5.776  0.00  0.00    -0.300 N 
ATOM      5  H   UNL     1       1.382   0.342   5.675  0.00  0.00    +0.174 HD
ATOM      6  H   UNL     1       0.775  -2.990   4.825  0.00  0.00    +0.150 HD
ENDROOT
BRANCH   1   9
ATOM      7  C   UNL     1       1.139   0.234   3.108  0.00  0.00    +0.296 C 
ATOM      8  O   UNL     1       1.355   1.361   3.513  0.00  0.00    -0.265 OA
ATOM      9  N   UNL     1       1.052  -0.790   3.980  0.00  0.00    -0.227 N 
ATOM     10  H   UNL     1       0.880  -1.688   3.657  0.00  0.00    +0.173 HD
BRANCH   7  20
ATOM     11  C   UNL     1       1.292   2.414   0.895  0.00  0.00    +0.048 C 
ATOM     12  C   UNL     1       1.040   0.941   0.701  0.00  0.00    +0.008 A 
ATOM     13  C   UNL     1       0.824   0.245  -0.567  0.00  0.00    +0.024 A 
ATOM     14  C   UNL     1       0.778   0.648  -1.904  0.00  0.00    +0.012 A 
ATOM     15  C   UNL     1       0.549  -0.276  -2.883  0.00  0.00    +0.001 A 
ATOM     16  C   UNL     1       0.361  -1.613  -2.558  0.00  0.00    +0.004 A 
ATOM     17  C   UNL     1       0.403  -2.031  -1.246  0.00  0.00    +0.047 A 
ATOM     18  C   UNL     1       0.634  -1.109  -0.232  0.00  0.00    +0.136 A 
ATOM     19  O   UNL     1       0.728  -1.213   1.108  0.00  0.00    -0.450 OA
ATOM     20  C   UNL     1       0.973  -0.010   1.668  0.00  0.00    +0.195 A 
ENDBRANCH   7  20
ENDBRANCH   1   9
BRANCH   4  21
ATOM     21  C   UNL     1       0.790  -3.942   6.723  0.00  0.00    +0.087 C 
BRANCH  21  22
ATOM     22  C   UNL     1       0.516  -5.240   5.960  0.00  0.00    -0.059 C 
BRANCH  22  23
ATOM     23  N   UNL     1       0.563  -6.375   6.892  0.00  0.00    +0.384 N 
ATOM     24  H   UNL     1       1.443  -6.369   7.386  0.00  0.00    -0.081 HD
BRANCH  23  25
ATOM     25  C   UNL     1      -0.540  -6.263   7.856  0.00  0.00    -0.074 C 
ATOM     26  C   UNL     1      -1.812  -6.856   7.246  0.00  0.00    -0.014 C 
ATOM     27  C   UNL     1      -0.182  -7.027   9.132  0.00  0.00    -0.014 C 
ENDBRANCH  23  25
BRANCH  23  28
ATOM     28  C   UNL     1       0.431  -7.630   6.141  0.00  0.00    -0.074 C 
ATOM     29  C   UNL     1       1.493  -7.680   5.040  0.00  0.00    -0.014 C 
ATOM     30  C   UNL     1       0.624  -8.815   7.090  0.00  0.00    -0.014 C 
ENDBRANCH  23  28
ENDBRANCH  22  23
ENDBRANCH  21  22
ENDBRANCH   4  21
TORSDOF 7
