REMARK  Name = ZINC21238519
REMARK  10 active torsions:
REMARK  status: ('A' for Active; 'I' for Inactive)
REMARK    1  A    between atoms: C_1  and  C_2
REMARK    2  A    between atoms: C_2  and  C_4
REMARK    3  A    between atoms: C_2  and  N_12
REMARK    4  A    between atoms: C_13  and  C_15
REMARK    5  A    between atoms: C_15  and  O_16
REMARK    6  A    between atoms: O_16  and  C_17
REMARK    7  A    between atoms: C_17  and  C_19
REMARK    8  A    between atoms: C_19  and  C_20
REMARK    9  A    between atoms: C_20  and  C_22
REMARK   10  A    between atoms: C_20  and  N_29
REMARK                            x       y       z     vdW  Elec       q    Type
REMARK                         _______ _______ _______ _____ _____    ______ ____
ROOT
ATOM      1  C   UNL     1       0.899   1.927  -0.895  0.00  0.00    +0.310 C 
ATOM      2  O   UNL     1       0.880   0.718  -0.900  0.00  0.00    -0.251 OA
ENDROOT
BRANCH   1   3
ATOM      3  O   UNL     1       2.070   2.579  -0.830  0.00  0.00    -0.455 OA
BRANCH   3   4
ATOM      4  C   UNL     1       3.274   1.769  -0.769  0.00  0.00    +0.327 C 
BRANCH   4   6
ATOM      5  N   UNL     1       5.717   2.133  -0.638  0.00  0.00    -0.306 N 
ATOM      6  C   UNL     1       4.481   2.668  -0.702  0.00  0.00    +0.251 C 
ATOM      7  O   UNL     1       4.342   3.872  -0.705  0.00  0.00    -0.272 OA
ATOM      8  H   UNL     1       5.843   1.040  -0.636  0.00  0.00    +0.149 HD
BRANCH   5  10
ATOM      9  C   UNL     1       7.094   3.481   0.868  0.00  0.00    +0.033 C 
ATOM     10  C   UNL     1       6.891   3.006  -0.573  0.00  0.00    +0.102 C 
BRANCH  10  11
ATOM     11  C   UNL     1       8.109   2.245  -1.028  0.00  0.00    -0.009 A 
ATOM     12  C   UNL     1       8.142   0.867  -0.923  0.00  0.00    +0.008 A 
ATOM     13  C   UNL     1       9.259   0.169  -1.340  0.00  0.00    +0.020 A 
ATOM     14  C   UNL     1      10.346   0.849  -1.862  0.00  0.00    +0.042 A 
ATOM     15  C   UNL     1      10.314   2.227  -1.967  0.00  0.00    +0.040 A 
ATOM     16  C   UNL     1       9.193   2.926  -1.555  0.00  0.00    +0.047 A 
ATOM     17 CL   UNL     1       9.148   4.655  -1.693  0.00  0.00    -0.083 Cl
ATOM     18 CL   UNL     1      11.749  -0.029  -2.386  0.00  0.00    -0.083 Cl
ENDBRANCH  10  11
ENDBRANCH   5  10
ENDBRANCH   4   6
ENDBRANCH   3   4
ENDBRANCH   1   3
BRANCH   1  19
ATOM     19  C   UNL     1      -0.392   2.701  -0.967  0.00  0.00    +0.147 C 
BRANCH  19  20
ATOM     20  C   UNL     1      -1.569   1.725  -1.038  0.00  0.00    +0.117 C 
BRANCH  20  21
ATOM     21  C   UNL     1      -2.849   2.496  -1.234  0.00  0.00    -0.008 A 
ATOM     22  C   UNL     1      -2.887   3.852  -0.969  0.00  0.00    +0.007 A 
ATOM     23  C   UNL     1      -4.061   4.559  -1.147  0.00  0.00    +0.000 A 
ATOM     24  C   UNL     1      -5.198   3.910  -1.593  0.00  0.00    +0.001 A 
ATOM     25  C   UNL     1      -5.161   2.554  -1.859  0.00  0.00    +0.020 A 
ATOM     26  C   UNL     1      -3.985   1.847  -1.684  0.00  0.00    +0.046 A 
ATOM     27 CL   UNL     1      -3.935   0.146  -2.025  0.00  0.00    -0.083 Cl
ENDBRANCH  20  21
BRANCH  20  28
ATOM     28  N   UNL     1      -1.645   0.960   0.208  0.00  0.00    -0.292 N 
ATOM     29  C   UNL     1      -1.760   1.602   1.387  0.00  0.00    +0.298 C 
ATOM     30  O   UNL     1      -1.886   2.811   1.411  0.00  0.00    -0.253 OA
ATOM     31  N   UNL     1      -1.736   0.904   2.540  0.00  0.00    -0.313 N 
ATOM     32  H   UNL     1      -1.608  -0.139   0.182  0.00  0.00    +0.151 HD
ATOM     33  H   UNL     1      -1.831   1.429   3.503  0.00  0.00    +0.146 HD
ATOM     34  H   UNL     1      -1.623  -0.190   2.519  0.00  0.00    +0.146 HD
ENDBRANCH  20  28
ENDBRANCH  19  20
ENDBRANCH   1  19
TORSDOF 9
