REMARK  Name = ZINC01167341
REMARK  6 active torsions:
REMARK  status: ('A' for Active; 'I' for Inactive)
REMARK    1  A    between atoms: C_1  and  C_2
REMARK    2  A    between atoms: C_5  and  N_8
REMARK    3  A    between atoms: C_9  and  C_11
REMARK    4  A    between atoms: C_11  and  O_12
REMARK    5  A    between atoms: O_12  and  C_13
REMARK    6  A    between atoms: C_16  and  C_19
REMARK                            x       y       z     vdW  Elec       q    Type
REMARK                         _______ _______ _______ _____ _____    ______ ____
ROOT
ATOM      1  C   UNL     1       1.318  -8.142   3.061  0.00  0.00    +0.121 A 
ATOM      2  C   UNL     1       0.952  -8.825   1.907  0.00  0.00    +0.046 A 
ATOM      3  C   UNL     1       0.829 -10.196   1.925  0.00  0.00    +0.011 A 
ATOM      4  C   UNL     1       1.074 -10.903   3.109  0.00  0.00    -0.023 A 
ATOM      5  C   UNL     1       1.443 -10.210   4.268  0.00  0.00    +0.011 A 
ATOM      6  C   UNL     1       1.568  -8.839   4.238  0.00  0.00    +0.046 A 
ENDROOT
BRANCH   4   7
ATOM      7  C   UNL     1       0.944 -12.365   3.134  0.00  0.00    +0.036 C 
ATOM      8  C   UNL     1       0.368 -12.977   4.200  0.00  0.00    +0.098 C 
ATOM      9  C   UNL     1      -0.342 -12.340   5.319  0.00  0.00    +0.266 C 
ATOM     10  O   UNL     1      -0.535 -11.149   5.479  0.00  0.00    -0.268 OA
ATOM     11  N   UNL     1      -0.737 -13.341   6.132  0.00  0.00    -0.235 N 
ATOM     12  C   UNL     1      -0.342 -14.520   5.627  0.00  0.00    +0.311 C 
ATOM     13  O   UNL     1      -0.558 -15.598   6.147  0.00  0.00    -0.252 OA
ATOM     14  N   UNL     1       0.318 -14.352   4.468  0.00  0.00    -0.265 N 
ATOM     15  H   UNL     1      -1.232 -13.226   6.958  0.00  0.00    +0.159 HD
ATOM     16  H   UNL     1       0.695 -15.056   3.917  0.00  0.00    +0.157 HD
ENDBRANCH   4   7
BRANCH   1  17
ATOM     17  O   UNL     1       1.438  -6.790   3.038  0.00  0.00    -0.483 OA
BRANCH  17  18
ATOM     18  C   UNL     1       1.167  -6.136   1.797  0.00  0.00    +0.324 C 
BRANCH  18  20
ATOM     19  N   UNL     1       1.147  -3.825   0.915  0.00  0.00    -0.283 N 
ATOM     20  C   UNL     1       1.350  -4.649   1.962  0.00  0.00    +0.255 C 
ATOM     21  O   UNL     1       1.680  -4.194   3.037  0.00  0.00    -0.272 OA
ATOM     22  H   UNL     1       0.806  -4.178   0.078  0.00  0.00    +0.155 HD
BRANCH  19  27
ATOM     23  C   UNL     1       2.284   1.712   1.401  0.00  0.00    +0.044 C 
ATOM     24  C   UNL     1       1.982   0.241   1.272  0.00  0.00    -0.050 A 
ATOM     25  C   UNL     1       2.694  -0.678   2.020  0.00  0.00    +0.005 A 
ATOM     26  C   UNL     1       2.420  -2.026   1.904  0.00  0.00    +0.023 A 
ATOM     27  C   UNL     1       1.427  -2.459   1.035  0.00  0.00    +0.034 A 
ATOM     28  C   UNL     1       0.713  -1.534   0.285  0.00  0.00    +0.023 A 
ATOM     29  C   UNL     1       0.989  -0.186   0.409  0.00  0.00    +0.005 A 
ENDBRANCH  19  27
ENDBRANCH  18  20
ENDBRANCH  17  18
ENDBRANCH   1  17
TORSDOF 5
