REMARK  Name = ZINC35143720
REMARK  6 active torsions:
REMARK  status: ('A' for Active; 'I' for Inactive)
REMARK    1  A    between atoms: C_7  and  C_14
REMARK    2  A    between atoms: N_9  and  C_10
REMARK    3  A    between atoms: C_10  and  C_11
REMARK    4  A    between atoms: C_15  and  C_16
REMARK    5  A    between atoms: C_15  and  C_18
REMARK    6  A    between atoms: N_20  and  C_21
REMARK                            x       y       z     vdW  Elec       q    Type
REMARK                         _______ _______ _______ _____ _____    ______ ____
ROOT
ATOM      1  C   UNL     1       0.235   1.330  -0.754  0.00  0.00    +0.001 A 
ATOM      2  C   UNL     1       1.451   1.995  -0.801  0.00  0.00    +0.002 A 
ATOM      3  C   UNL     1       2.636   1.304  -0.671  0.00  0.00    +0.026 A 
ATOM      4  C   UNL     1       2.618  -0.076  -0.489  0.00  0.00    +0.050 A 
ATOM      5  C   UNL     1       1.387  -0.747  -0.441  0.00  0.00    +0.007 A 
ATOM      6  C   UNL     1       0.198  -0.036  -0.574  0.00  0.00    +0.010 A 
ATOM      7  C   UNL     1       1.712  -2.173  -0.241  0.00  0.00    +0.002 A 
ATOM      8  C   UNL     1       3.090  -2.249  -0.186  0.00  0.00    +0.095 A 
ATOM      9  N   UNL     1       3.616  -1.017  -0.331  0.00  0.00    -0.337 N 
ENDROOT
BRANCH   7  10
ATOM     10  C   UNL     1       0.797  -3.245  -0.130  0.00  0.00    +0.034 C 
ATOM     11  C   UNL     1       1.208  -4.452   0.408  0.00  0.00    +0.114 C 
BRANCH  11  12
ATOM     12  C   UNL     1       0.328  -5.625   0.336  0.00  0.00    +0.259 C 
ATOM     13  O   UNL     1      -0.763  -5.535  -0.195  0.00  0.00    -0.269 OA
ATOM     14  N   UNL     1       0.729  -6.801   0.859  0.00  0.00    -0.280 N 
ATOM     15  H   UNL     1       1.555  -6.851   1.364  0.00  0.00    +0.155 HD
BRANCH  14  16
ATOM     16  C   UNL     1      -0.048  -7.949   0.674  0.00  0.00    +0.052 A 
ATOM     17  C   UNL     1      -0.938  -8.024  -0.390  0.00  0.00    +0.025 A 
ATOM     18  C   UNL     1      -1.704  -9.159  -0.570  0.00  0.00    +0.002 A 
ATOM     19  C   UNL     1      -1.585 -10.222   0.308  0.00  0.00    +0.002 A 
ATOM     20  C   UNL     1      -0.701 -10.152   1.368  0.00  0.00    +0.022 A 
ATOM     21  C   UNL     1       0.073  -9.021   1.550  0.00  0.00    +0.062 A 
ATOM     22 CL   UNL     1       1.190  -8.937   2.877  0.00  0.00    -0.082 Cl
ENDBRANCH  14  16
ENDBRANCH  11  12
BRANCH  11  23
ATOM     23  C   UNL     1       2.492  -4.558   1.033  0.00  0.00    +0.104 C 
ATOM     24  N   UNL     1       3.511  -4.641   1.529  0.00  0.00    -0.191 NA
ENDBRANCH  11  23
ENDBRANCH   7  10
BRANCH   9  25
ATOM     25  C   UNL     1       5.050  -0.717  -0.324  0.00  0.00    +0.217 C 
BRANCH  25  26
ATOM     26  C   UNL     1       5.470  -0.309   1.065  0.00  0.00    +0.230 C 
ATOM     27  O   UNL     1       4.652  -0.272   1.960  0.00  0.00    -0.274 OA
ATOM     28  N   UNL     1       6.755   0.015   1.312  0.00  0.00    -0.328 N 
ATOM     29  H   UNL     1       7.409  -0.014   0.596  0.00  0.00    +0.145 HD
ATOM     30  H   UNL     1       7.025   0.278   2.206  0.00  0.00    +0.145 HD
ENDBRANCH  25  26
ENDBRANCH   9  25
TORSDOF 6
