REMARK  Name = ZINC51625686
REMARK  9 active torsions:
REMARK  status: ('A' for Active; 'I' for Inactive)
REMARK    1  A    between atoms: C_1  and  C_2
REMARK    2  A    between atoms: C_2  and  N_3
REMARK    3  A    between atoms: N_3  and  C_4
REMARK    4  A    between atoms: C_4  and  C_5
REMARK    5  A    between atoms: C_4  and  C_6
REMARK    6  A    between atoms: C_4  and  C_18
REMARK    7  A    between atoms: C_6  and  O_7
REMARK    8  A    between atoms: O_7  and  C_8
REMARK    9  A    between atoms: C_13  and  N_14
REMARK                            x       y       z     vdW  Elec       q    Type
REMARK                         _______ _______ _______ _____ _____    ______ ____
ROOT
ATOM      1  O   UNL     1       1.537  -3.855   2.494  0.00  0.00    -0.487 OA
ENDROOT
BRANCH   1   2
ATOM      2  C   UNL     1       2.169  -4.437   3.547  0.00  0.00    +0.152 A 
ATOM      3  C   UNL     1       2.734  -3.649   4.539  0.00  0.00    +0.068 A 
ATOM      4  C   UNL     1       3.376  -4.244   5.610  0.00  0.00    +0.045 A 
ATOM      5  C   UNL     1       3.454  -5.623   5.692  0.00  0.00    +0.022 A 
ATOM      6  C   UNL     1       2.892  -6.409   4.704  0.00  0.00    +0.038 A 
ATOM      7  C   UNL     1       2.244  -5.819   3.635  0.00  0.00    +0.168 A 
ATOM      8 CL   UNL     1       4.085  -3.259   6.852  0.00  0.00    -0.083 Cl
BRANCH   7   9
ATOM      9  N   UNL     1       1.636  -6.662   2.581  0.00  0.00    +0.060 N 
ATOM     10  O   UNL     1       1.701  -7.867   2.658  0.00  0.00    -0.126 OA
ATOM     11  O   UNL     1       1.074  -6.146   1.643  0.00  0.00    -0.126 OA
ENDBRANCH   7   9
ENDBRANCH   1   2
BRANCH   1  12
ATOM     12  C   UNL     1       1.498  -2.427   2.469  0.00  0.00    +0.266 C 
BRANCH  12  13
ATOM     13  C   UNL     1       0.752  -1.959   1.218  0.00  0.00    +0.138 C 
ATOM     14  C   UNL     1      -0.676  -2.507   1.240  0.00  0.00    +0.047 C 
BRANCH  13  15
ATOM     15  N   UNL     1       0.713  -0.491   1.192  0.00  0.00    -0.297 NA
ATOM     16  H   UNL     1       1.643  -0.103   1.242  0.00  0.00    +0.123 HD
BRANCH  15  18
ATOM     17  C   UNL     1      -0.019   1.526   0.010  0.00  0.00    +0.020 C 
ATOM     18  C   UNL     1       0.002  -0.004   0.002  0.00  0.00    +0.079 C 
ENDBRANCH  15  18
ENDBRANCH  13  15
BRANCH  13  19
ATOM     19  C   UNL     1       1.448  -2.452   0.018  0.00  0.00    +0.088 C 
ATOM     20  N   UNL     1       1.986  -2.832  -0.908  0.00  0.00    -0.195 NA
ENDBRANCH  13  19
ENDBRANCH  12  13
ENDBRANCH   1  12
TORSDOF 7
