REMARK  Name = ZINC01217244
REMARK  11 active torsions:
REMARK  status: ('A' for Active; 'I' for Inactive)
REMARK    1  A    between atoms: C_1  and  O_2
REMARK    2  A    between atoms: O_2  and  C_3
REMARK    3  A    between atoms: C_5  and  C_13
REMARK    4  A    between atoms: C_7  and  O_11
REMARK    5  A    between atoms: C_8  and  O_9
REMARK    6  A    between atoms: O_9  and  C_10
REMARK    7  A    between atoms: O_11  and  C_12
REMARK    8  A    between atoms: C_20  and  N_36
REMARK    9  A    between atoms: C_21  and  C_34
REMARK   10  A    between atoms: C_22  and  C_24
REMARK   11  A    between atoms: C_27  and  C_30
REMARK                            x       y       z     vdW  Elec       q    Type
REMARK                         _______ _______ _______ _____ _____    ______ ____
ROOT
ATOM      1  C   UNL     1       2.545  -0.157  -4.405  0.00  0.00    +0.101 A 
ATOM      2  C   UNL     1       3.687  -0.573  -5.095  0.00  0.00    +0.054 A 
ATOM      3  C   UNL     1       3.957   0.352  -6.062  0.00  0.00    +0.223 A 
ATOM      4  N   UNL     1       3.015   1.315  -5.984  0.00  0.00    -0.246 N 
ATOM      5  H   UNL     1       2.954   2.100  -6.549  0.00  0.00    +0.192 HD
ATOM      6  N   UNL     1       2.136   0.977  -4.943  0.00  0.00    -0.171 NA
ATOM      7  O   UNL     1       5.011   0.240  -6.909  0.00  0.00    -0.423 OA
ATOM      8  C   UNL     1       5.961  -0.667  -6.606  0.00  0.00    +0.200 C 
ATOM      9  C   UNL     1       5.806  -1.637  -5.678  0.00  0.00    +0.098 C 
ATOM     10  C   UNL     1       4.534  -1.801  -4.884  0.00  0.00    +0.102 C 
ENDROOT
BRANCH   1  13
ATOM     11  C   UNL     1       2.085  -2.093  -1.210  0.00  0.00    +0.166 A 
ATOM     12  C   UNL     1       2.686  -1.431  -2.267  0.00  0.00    +0.059 A 
ATOM     13  C   UNL     1       1.902  -0.867  -3.272  0.00  0.00    +0.010 A 
ATOM     14  C   UNL     1       0.514  -0.971  -3.211  0.00  0.00    +0.059 A 
ATOM     15  C   UNL     1      -0.085  -1.634  -2.153  0.00  0.00    +0.166 A 
ATOM     16  C   UNL     1       0.700  -2.201  -1.154  0.00  0.00    +0.204 A 
BRANCH  11  18
ATOM     17  C   UNL     1       4.266  -2.494  -0.351  0.00  0.00    +0.277 C 
ATOM     18  O   UNL     1       2.850  -2.643  -0.230  0.00  0.00    -0.491 OA
ENDBRANCH  11  18
BRANCH  16  19
ATOM     19  O   UNL     1       0.111  -2.857  -0.118  0.00  0.00    -0.488 OA
ATOM     20  C   UNL     1      -0.229  -2.081   1.033  0.00  0.00    +0.277 C 
ENDBRANCH  16  19
BRANCH  15  21
ATOM     21  O   UNL     1      -1.439  -1.736  -2.093  0.00  0.00    -0.491 OA
ATOM     22  C   UNL     1      -2.177  -1.243  -3.214  0.00  0.00    +0.277 C 
ENDBRANCH  15  21
ENDBRANCH   1  13
BRANCH  10  23
ATOM     23  C   UNL     1       3.789  -3.021  -5.362  0.00  0.00    -0.035 A 
ATOM     24  C   UNL     1       3.319  -3.078  -6.661  0.00  0.00    +0.005 A 
ATOM     25  C   UNL     1       2.635  -4.197  -7.100  0.00  0.00    +0.012 A 
ATOM     26  C   UNL     1       2.422  -5.258  -6.240  0.00  0.00    +0.055 A 
ATOM     27  C   UNL     1       2.893  -5.201  -4.941  0.00  0.00    +0.012 A 
ATOM     28  C   UNL     1       3.580  -4.084  -4.504  0.00  0.00    +0.005 A 
BRANCH  26  29
ATOM     29  C   UNL     1       1.676  -6.477  -6.718  0.00  0.00    +0.417 C 
ATOM     30  F   UNL     1       2.583  -7.398  -7.254  0.00  0.00    -0.166 F 
ATOM     31  F   UNL     1       1.000  -7.062  -5.641  0.00  0.00    -0.166 F 
ATOM     32  F   UNL     1       0.754  -6.104  -7.701  0.00  0.00    -0.166 F 
ENDBRANCH  26  29
ENDBRANCH  10  23
BRANCH   8  33
ATOM     33  N   UNL     1       7.155  -0.602  -7.281  0.00  0.00    -0.328 N 
ATOM     34  H   UNL     1       7.296   0.083  -7.952  0.00  0.00    +0.145 HD
ATOM     35  H   UNL     1       7.858  -1.242  -7.085  0.00  0.00    +0.145 HD
ENDBRANCH   8  33
BRANCH   9  36
ATOM     36  C   UNL     1       6.889  -2.543  -5.440  0.00  0.00    +0.101 C 
ATOM     37  N   UNL     1       7.749  -3.262  -5.250  0.00  0.00    -0.191 NA
ENDBRANCH   9  36
TORSDOF 8
