REMARK  Name = ZINC10252256
REMARK  6 active torsions:
REMARK  status: ('A' for Active; 'I' for Inactive)
REMARK    1  A    between atoms: C_1  and  C_2
REMARK    2  A    between atoms: C_2  and  O_3
REMARK    3  A    between atoms: O_3  and  C_4
REMARK    4  A    between atoms: C_7  and  C_9
REMARK    5  A    between atoms: C_13  and  N_14
REMARK    6  A    between atoms: C_15  and  C_17
REMARK                            x       y       z     vdW  Elec       q    Type
REMARK                         _______ _______ _______ _____ _____    ______ ____
ROOT
ATOM      1  C   UNL     1      -6.470   3.322   2.331  0.00  0.00    +0.069 A 
ATOM      2  C   UNL     1      -7.049   4.265   3.279  0.00  0.00    -0.023 A 
ATOM      3  C   UNL     1      -6.155   4.909   4.060  0.00  0.00    -0.004 A 
ATOM      4  S   UNL     1      -4.576   4.272   3.567  0.00  0.00    -0.077 S 
ATOM      5  C   UNL     1      -5.091   3.168   2.336  0.00  0.00    +0.084 A 
ATOM      6  C   UNL     1      -6.431   5.946   5.103  0.00  0.00    +0.043 C 
ATOM      7  C   UNL     1      -7.553   5.451   6.025  0.00  0.00    +0.005 C 
ATOM      8  C   UNL     1      -8.890   5.896   5.440  0.00  0.00    +0.001 C 
ATOM      9  C   UNL     1      -8.817   5.909   3.914  0.00  0.00    +0.005 C 
ATOM     10  C   UNL     1      -8.550   4.506   3.381  0.00  0.00    +0.037 C 
ENDROOT
BRANCH   1  14
ATOM     11  C   UNL     1      -8.382   2.360  -0.658  0.00  0.00    +0.407 C 
ATOM     12  O   UNL     1      -8.821   1.277  -0.326  0.00  0.00    -0.226 OA
ATOM     13  N   UNL     1      -7.605   3.061   0.191  0.00  0.00    -0.217 N 
ATOM     14  C   UNL     1      -7.315   2.560   1.409  0.00  0.00    +0.255 C 
ATOM     15  O   UNL     1      -7.754   1.476   1.741  0.00  0.00    -0.270 OA
ATOM     16  H   UNL     1      -7.255   3.926  -0.074  0.00  0.00    +0.161 HD
BRANCH  11  17
ATOM     17  O   UNL     1      -8.672   2.860  -1.873  0.00  0.00    -0.450 OA
BRANCH  17  19
ATOM     18  C   UNL     1      -9.733   2.777  -4.064  0.00  0.00    +0.048 C 
ATOM     19  C   UNL     1      -9.515   2.050  -2.735  0.00  0.00    +0.230 C 
ENDBRANCH  17  19
ENDBRANCH  11  17
ENDBRANCH   1  14
BRANCH   5  20
ATOM     20  N   UNL     1      -4.315   2.337   1.544  0.00  0.00    -0.277 N 
ATOM     21  C   UNL     1      -2.975   2.327   1.689  0.00  0.00    +0.246 C 
ATOM     22  O   UNL     1      -2.449   3.045   2.512  0.00  0.00    -0.273 OA
ATOM     23  H   UNL     1      -4.736   1.763   0.885  0.00  0.00    +0.155 HD
BRANCH  21  24
ATOM     24  C   UNL     1      -2.131   1.423   0.827  0.00  0.00    +0.204 C 
ATOM     25  C   UNL     1      -2.230   1.847  -0.655  0.00  0.00    +0.043 C 
ATOM     26  C   UNL     1      -0.804   1.620  -1.206  0.00  0.00    +0.031 C 
ATOM     27  C   UNL     1      -0.013   1.086   0.008  0.00  0.00    +0.161 C 
ATOM     28  O   UNL     1      -0.731   1.573   1.163  0.00  0.00    -0.367 OA
ENDBRANCH  21  24
ENDBRANCH   5  20
TORSDOF 5
