REMARK  Name = ZINC09096128
REMARK  4 active torsions:
REMARK  status: ('A' for Active; 'I' for Inactive)
REMARK    1  A    between atoms: C_1  and  C_2
REMARK    2  A    between atoms: C_2  and  C_4
REMARK    3  A    between atoms: N_24  and  C_27
REMARK    4  A    between atoms: C_31  and  C_33
REMARK                            x       y       z     vdW  Elec       q    Type
REMARK                         _______ _______ _______ _____ _____    ______ ____
ROOT
ATOM      1  C   UNL     1       0.023   5.400   0.002  0.00  0.00    +0.091 C 
ATOM      2  C   UNL     1      -0.148   3.890   0.009  0.00  0.00    -0.025 A 
ATOM      3  C   UNL     1      -1.349   3.240   0.000  0.00  0.00    +0.005 A 
ATOM      4  C   UNL     1      -1.359   1.851   0.002  0.00  0.00    +0.000 A 
ATOM      5  C   UNL     1      -0.173   1.142   0.023  0.00  0.00    +0.000 A 
ATOM      6  C   UNL     1       1.046   1.809   0.031  0.00  0.00    +0.004 A 
ATOM      7  C   UNL     1       1.048   3.175   0.024  0.00  0.00    -0.035 A 
ATOM      8  C   UNL     1       2.297   4.042   0.031  0.00  0.00    +0.062 C 
ATOM      9  C   UNL     1       2.119   4.993   1.204  0.00  0.00    -0.035 A 
ATOM     10  C   UNL     1       0.923   5.708   1.188  0.00  0.00    -0.025 A 
ATOM     11  C   UNL     1       0.630   6.600   2.180  0.00  0.00    +0.005 A 
ATOM     12  C   UNL     1       1.546   6.784   3.207  0.00  0.00    +0.000 A 
ATOM     13  C   UNL     1       2.733   6.075   3.222  0.00  0.00    +0.000 A 
ATOM     14  C   UNL     1       3.024   5.169   2.211  0.00  0.00    +0.004 A 
ATOM     15  C   UNL     1       2.193   4.923  -1.233  0.00  0.00    +0.101 C 
ATOM     16  C   UNL     1       0.872   5.713  -1.249  0.00  0.00    +0.111 C 
ATOM     17  C   UNL     1       0.152   5.178  -2.469  0.00  0.00    +0.232 C 
ATOM     18  O   UNL     1      -0.940   5.537  -2.853  0.00  0.00    -0.274 OA
ATOM     19  N   UNL     1       0.914   4.246  -3.055  0.00  0.00    -0.210 N 
ATOM     20  C   UNL     1       2.084   4.022  -2.444  0.00  0.00    +0.231 C 
ATOM     21  O   UNL     1       2.923   3.224  -2.803  0.00  0.00    -0.274 OA
ENDROOT
BRANCH  19  22
ATOM     22  C   UNL     1       0.519   3.562  -4.214  0.00  0.00    +0.045 A 
ATOM     23  C   UNL     1       1.200   3.767  -5.408  0.00  0.00    +0.025 A 
ATOM     24  C   UNL     1       0.817   3.095  -6.553  0.00  0.00    +0.022 A 
ATOM     25  C   UNL     1      -0.247   2.214  -6.519  0.00  0.00    +0.055 A 
ATOM     26  C   UNL     1      -0.938   2.001  -5.323  0.00  0.00    +0.083 A 
ATOM     27  C   UNL     1      -0.545   2.677  -4.166  0.00  0.00    +0.040 A 
ATOM     28 CL   UNL     1      -0.725   1.373  -7.960  0.00  0.00    -0.083 Cl
BRANCH  26  29
ATOM     29  C   UNL     1      -2.075   1.060  -5.282  0.00  0.00    +0.388 C 
ATOM     30  O   UNL     1      -2.412   0.470  -6.288  0.00  0.00    -0.241 OA
ATOM     31  O   UNL     1      -2.740   0.857  -4.127  0.00  0.00    -0.241 OA
ENDBRANCH  26  29
ENDBRANCH  19  22
BRANCH   1  33
ATOM     32  C   UNL     1      -2.225   5.946   1.212  0.00  0.00    +0.087 C 
ATOM     33  C   UNL     1      -1.288   6.143   0.048  0.00  0.00    +0.146 C 
ATOM     34  O   UNL     1      -1.588   6.895  -0.848  0.00  0.00    -0.296 OA
ENDBRANCH   1  33
TORSDOF 3
