REMARK  Name = ZINC65244445
REMARK  9 active torsions:
REMARK  status: ('A' for Active; 'I' for Inactive)
REMARK    1  A    between atoms: C_1  and  C_2
REMARK    2  A    between atoms: C_7  and  O_8
REMARK    3  A    between atoms: O_8  and  C_9
REMARK    4  A    between atoms: C_9  and  C_10
REMARK    5  A    between atoms: C_10  and  N_11
REMARK    6  A    between atoms: C_12  and  C_14
REMARK    7  A    between atoms: C_14  and  N_15
REMARK    8  A    between atoms: C_19  and  C_21
REMARK    9  A    between atoms: N_23  and  C_24
REMARK                            x       y       z     vdW  Elec       q    Type
REMARK                         _______ _______ _______ _____ _____    ______ ____
ROOT
ATOM      1  C   UNL     1       5.170   4.070   0.941  0.00  0.00    +0.019 C 
ENDROOT
BRANCH   1   2
ATOM      2  N   UNL     1       6.543   4.578   0.815  0.00  0.00    +0.386 N 
ATOM      3  C   UNL     1       7.294   3.726  -0.116  0.00  0.00    -0.078 C 
ATOM      4  C   UNL     1       8.747   4.202  -0.189  0.00  0.00    -0.018 C 
ATOM      5  C   UNL     1       8.779   5.652  -0.681  0.00  0.00    +0.009 C 
ATOM      6  C   UNL     1       7.932   6.518   0.255  0.00  0.00    +0.058 C 
ATOM      7  C   UNL     1       6.509   5.956   0.312  0.00  0.00    -0.065 C 
ATOM      8  H   UNL     1       6.991   4.561   1.719  0.00  0.00    -0.081 HD
BRANCH   6   9
ATOM      9  C   UNL     1       7.894   7.932  -0.263  0.00  0.00    +0.215 C 
ATOM     10  O   UNL     1       6.833   8.443  -0.555  0.00  0.00    -0.276 OA
ATOM     11  N   UNL     1       9.039   8.629  -0.403  0.00  0.00    -0.312 N 
ATOM     12  H   UNL     1       9.887   8.220  -0.170  0.00  0.00    +0.149 HD
BRANCH  11  13
ATOM     13  C   UNL     1       9.002  10.004  -0.908  0.00  0.00    +0.073 C 
ATOM     14  C   UNL     1      10.050  10.402  -1.949  0.00  0.00    +0.024 C 
ATOM     15  C   UNL     1      10.155  10.931  -0.517  0.00  0.00    +0.024 C 
ENDBRANCH  11  13
ENDBRANCH   6   9
ENDBRANCH   1   2
BRANCH   1  17
ATOM     16  N   UNL     1       4.045   2.037   1.788  0.00  0.00    -0.315 N 
ATOM     17  C   UNL     1       5.197   2.702   1.572  0.00  0.00    +0.197 C 
ATOM     18  O   UNL     1       6.255   2.199   1.885  0.00  0.00    -0.278 OA
ATOM     19  H   UNL     1       3.198   2.439   1.537  0.00  0.00    +0.149 HD
BRANCH  16  20
ATOM     20  C   UNL     1       4.070   0.707   2.401  0.00  0.00    +0.132 C 
BRANCH  20  21
ATOM     21  C   UNL     1       2.640   0.178   2.533  0.00  0.00    +0.179 C 
BRANCH  21  22
ATOM     22  O   UNL     1       2.083  -0.016   1.231  0.00  0.00    -0.375 OA
BRANCH  22  29
ATOM     23  C   UNL     1      -0.019   1.526   0.010  0.00  0.00    +0.010 C 
ATOM     24  C   UNL     1       0.002  -0.004   0.002  0.00  0.00    +0.015 C 
ATOM     25  C   UNL     1       0.718  -0.497  -1.257  0.00  0.00    +0.006 C 
ATOM     26  C   UNL     1       0.739  -2.027  -1.265  0.00  0.00    +0.000 C 
ATOM     27  C   UNL     1       1.479  -2.534  -0.026  0.00  0.00    +0.003 C 
ATOM     28  C   UNL     1       0.763  -2.041   1.233  0.00  0.00    +0.032 C 
ATOM     29  C   UNL     1       0.742  -0.511   1.242  0.00  0.00    +0.121 C 
ENDBRANCH  22  29
ENDBRANCH  21  22
ENDBRANCH  20  21
ENDBRANCH  16  20
ENDBRANCH   1  17
TORSDOF 8
