REMARK  Name = ZINC66724077
REMARK  7 active torsions:
REMARK  status: ('A' for Active; 'I' for Inactive)
REMARK    1  A    between atoms: C_1  and  C_2
REMARK    2  A    between atoms: C_4  and  C_7
REMARK    3  A    between atoms: C_7  and  C_8
REMARK    4  A    between atoms: C_8  and  C_9
REMARK    5  A    between atoms: C_9  and  N_10
REMARK    6  A    between atoms: C_11  and  C_13
REMARK    7  A    between atoms: C_13  and  C_16
REMARK                            x       y       z     vdW  Elec       q    Type
REMARK                         _______ _______ _______ _____ _____    ______ ____
ROOT
ATOM      1  N   UNL     1       2.894  -5.128  -3.288  0.00  0.00    -0.315 N 
ATOM      2  C   UNL     1       3.141  -6.153  -4.127  0.00  0.00    +0.224 C 
ATOM      3  O   UNL     1       2.224  -6.829  -4.545  0.00  0.00    -0.275 OA
ATOM      4  H   UNL     1       3.631  -4.635  -2.895  0.00  0.00    +0.149 HD
ENDROOT
BRANCH   2   5
ATOM      5  C   UNL     1       4.555  -6.461  -4.546  0.00  0.00    +0.072 C 
ATOM      6  C   UNL     1       5.005  -7.923  -4.497  0.00  0.00    +0.022 C 
ATOM      7  C   UNL     1       5.528  -6.926  -3.460  0.00  0.00    +0.022 C 
BRANCH   5   8
ATOM      8  C   UNL     1       5.107  -5.600  -5.653  0.00  0.00    -0.032 A 
ATOM      9  C   UNL     1       6.464  -5.340  -5.714  0.00  0.00    +0.006 A 
ATOM     10  C   UNL     1       6.971  -4.550  -6.729  0.00  0.00    +0.020 A 
ATOM     11  C   UNL     1       6.120  -4.020  -7.683  0.00  0.00    +0.041 A 
ATOM     12  C   UNL     1       4.763  -4.280  -7.621  0.00  0.00    +0.020 A 
ATOM     13  C   UNL     1       4.258  -5.075  -6.609  0.00  0.00    +0.006 A 
ATOM     14 CL   UNL     1       6.756  -3.027  -8.958  0.00  0.00    -0.084 Cl
ENDBRANCH   5   8
ENDBRANCH   2   5
BRANCH   1  15
ATOM     15  C   UNL     1       1.513  -4.758  -2.970  0.00  0.00    +0.104 C 
BRANCH  15  16
ATOM     16  C   UNL     1       1.513  -3.572  -2.003  0.00  0.00    +0.028 C 
BRANCH  16  17
ATOM     17  C   UNL     1       0.070  -3.185  -1.670  0.00  0.00    +0.100 C 
BRANCH  17  21
ATOM     18  C   UNL     1       0.054   1.517   0.056  0.00  0.00    +0.091 C 
ATOM     19  C   UNL     1       0.063   0.010   0.042  0.00  0.00    +0.169 A 
ATOM     20  N   UNL     1       0.060  -0.757  -1.054  0.00  0.00    -0.196 NA
ATOM     21  C   UNL     1       0.070  -2.017  -0.718  0.00  0.00    +0.227 A 
ATOM     22  O   UNL     1       0.080  -2.095   0.619  0.00  0.00    -0.338 OA
ATOM     23  N   UNL     1       0.081  -0.757   1.094  0.00  0.00    -0.062 NA
ENDBRANCH  17  21
ENDBRANCH  16  17
ENDBRANCH  15  16
ENDBRANCH   1  15
TORSDOF 6
