REMARK  Name = ZINC20989150
REMARK  11 active torsions:
REMARK  status: ('A' for Active; 'I' for Inactive)
REMARK    1  A    between atoms: C_1  and  C_2
REMARK    2  A    between atoms: C_2  and  C_3
REMARK    3  A    between atoms: C_2  and  C_4
REMARK    4  A    between atoms: C_4  and  N_5
REMARK    5  A    between atoms: C_6  and  N_27
REMARK    6  A    between atoms: C_7  and  N_14
REMARK    7  A    between atoms: N_14  and  C_15
REMARK    8  A    between atoms: C_15  and  C_16
REMARK    9  A    between atoms: C_16  and  C_17
REMARK   10  A    between atoms: C_16  and  C_18
REMARK   11  A    between atoms: C_19  and  C_21
REMARK                            x       y       z     vdW  Elec       q    Type
REMARK                         _______ _______ _______ _____ _____    ______ ____
ROOT
ATOM      1  N   UNL     1       3.908  -0.941   0.453  0.00  0.00    -0.280 N 
ATOM      2  C   UNL     1       2.667  -0.361   0.326  0.00  0.00    +0.127 A 
ATOM      3  C   UNL     1       2.577   1.000   0.120  0.00  0.00    +0.140 A 
ATOM      4  C   UNL     1       3.763   1.754   0.040  0.00  0.00    +0.277 A 
ATOM      5  O   UNL     1       3.713   2.958  -0.147  0.00  0.00    -0.266 OA
ATOM      6  N   UNL     1       4.953   1.138   0.177  0.00  0.00    -0.273 N 
ATOM      7  H   UNL     1       5.884   1.722   0.126  0.00  0.00    +0.173 HD
ATOM      8  C   UNL     1       5.021  -0.190   0.378  0.00  0.00    +0.331 A 
ATOM      9  O   UNL     1       6.109  -0.721   0.494  0.00  0.00    -0.246 OA
ENDROOT
BRANCH   3  10
ATOM     10  N   UNL     1       1.319   1.624  -0.015  0.00  0.00    -0.260 N 
ATOM     11  C   UNL     1       0.596   1.926   1.081  0.00  0.00    +0.258 C 
ATOM     12  O   UNL     1      -0.440   2.557   0.973  0.00  0.00    -0.269 OA
BRANCH  11  13
ATOM     13  C   UNL     1       1.059   1.501   2.405  0.00  0.00    +0.075 A 
ATOM     14  C   UNL     1       0.435   1.639   3.635  0.00  0.00    +0.022 A 
ATOM     15  C   UNL     1       1.097   1.145   4.731  0.00  0.00    +0.024 A 
ATOM     16  C   UNL     1       2.311   0.555   4.562  0.00  0.00    +0.056 A 
ATOM     17  S   UNL     1       2.569   0.662   2.851  0.00  0.00    -0.077 S 
ATOM     18 BR   UNL     1       3.439  -0.207   5.875  0.00  0.00    -0.043 Br
ENDBRANCH  11  13
BRANCH  10  19
ATOM     19  C   UNL     1       0.799   1.944  -1.347  0.00  0.00    +0.117 C 
BRANCH  19  20
ATOM     20  C   UNL     1       1.391   3.273  -1.820  0.00  0.00    +0.001 C 
ATOM     21  C   UNL     1       0.967   3.535  -3.266  0.00  0.00    +0.009 C 
ATOM     22  C   UNL     1       0.880   4.406  -0.926  0.00  0.00    +0.009 C 
ENDBRANCH  19  20
ENDBRANCH  10  19
ENDBRANCH   3  10
BRANCH   2  23
ATOM     23  N   UNL     1       1.529  -1.129   0.403  0.00  0.00    -0.343 N 
ATOM     24  H   UNL     1       0.540  -0.659   0.300  0.00  0.00    +0.144 HD
ATOM     25  H   UNL     1       1.608  -2.214   0.568  0.00  0.00    +0.144 HD
ENDBRANCH   2  23
BRANCH   1  26
ATOM     26  C   UNL     1       4.018  -2.386   0.672  0.00  0.00    +0.131 C 
BRANCH  26  28
ATOM     27  C   UNL     1       4.343  -4.595  -0.449  0.00  0.00    +0.009 C 
ATOM     28  C   UNL     1       4.103  -3.101  -0.678  0.00  0.00    +0.003 C 
ATOM     29  C   UNL     1       2.792  -2.906  -1.442  0.00  0.00    +0.009 C 
ENDBRANCH  26  28
ENDBRANCH   1  26
TORSDOF 7
