REMARK  Name = ZINC39521565
REMARK  5 active torsions:
REMARK  status: ('A' for Active; 'I' for Inactive)
REMARK    1  A    between atoms: C_4  and  S_7
REMARK    2  A    between atoms: S_7  and  C_10
REMARK    3  A    between atoms: N_16  and  C_17
REMARK    4  A    between atoms: C_22  and  O_23
REMARK    5  A    between atoms: C_27  and  O_30
REMARK                            x       y       z     vdW  Elec       q    Type
REMARK                         _______ _______ _______ _____ _____    ______ ____
ROOT
ATOM      1  C   UNL     1       4.380  -1.028   1.705  0.00  0.00    +0.222 C 
ATOM      2  C   UNL     1       5.749  -1.610   2.071  0.00  0.00    +0.046 C 
ATOM      3  C   UNL     1       5.868  -1.708   3.593  0.00  0.00    +0.006 C 
ATOM      4  C   UNL     1       5.759  -0.310   4.207  0.00  0.00    +0.026 C 
ATOM      5  C   UNL     1       4.392   0.287   3.864  0.00  0.00    +0.039 C 
ATOM      6  N   UNL     1       4.204   0.251   2.408  0.00  0.00    -0.299 N 
ATOM      7  C   UNL     1       4.327   1.735   4.351  0.00  0.00    +0.026 C 
ATOM      8  C   UNL     1       2.962   2.330   4.001  0.00  0.00    +0.005 C 
ATOM      9  C   UNL     1       1.860   1.512   4.677  0.00  0.00    +0.031 C 
ATOM     10  C   UNL     1       1.925   0.064   4.187  0.00  0.00    +0.117 C 
ATOM     11  C   UNL     1       3.290  -0.532   4.537  0.00  0.00    +0.057 C 
ENDROOT
BRANCH   6  12
ATOM     12  C   UNL     1       3.868   1.412   1.702  0.00  0.00    +0.074 A 
ATOM     13  C   UNL     1       2.586   1.573   1.197  0.00  0.00    +0.027 A 
ATOM     14  C   UNL     1       2.257   2.720   0.501  0.00  0.00    +0.002 A 
ATOM     15  C   UNL     1       3.202   3.710   0.305  0.00  0.00    +0.004 A 
ATOM     16  C   UNL     1       4.482   3.557   0.806  0.00  0.00    +0.047 A 
ATOM     17  C   UNL     1       4.819   2.412   1.509  0.00  0.00    +0.138 A 
BRANCH  17  18
ATOM     18  O   UNL     1       6.076   2.262   2.006  0.00  0.00    -0.505 OA
ATOM     19  H   UNL     1       6.692   1.834   1.396  0.00  0.00    +0.292 HD
ENDBRANCH  17  18
ENDBRANCH   6  12
BRANCH   1  20
ATOM     20  S   UNL     1       4.293  -0.755  -0.086  0.00  0.00    +0.016 S 
ATOM     21  O   UNL     1       5.441  -0.045  -0.529  0.00  0.00    -0.168 OA
ATOM     22  O   UNL     1       2.989  -0.326  -0.453  0.00  0.00    -0.168 OA
BRANCH  20  26
ATOM     23  C   UNL     1       4.710  -4.876  -1.914  0.00  0.00    +0.000 A 
ATOM     24  C   UNL     1       3.470  -4.425  -1.500  0.00  0.00    +0.002 A 
ATOM     25  C   UNL     1       3.343  -3.167  -0.941  0.00  0.00    +0.027 A 
ATOM     26  C   UNL     1       4.455  -2.360  -0.797  0.00  0.00    +0.090 A 
ATOM     27  C   UNL     1       5.695  -2.810  -1.210  0.00  0.00    +0.027 A 
ATOM     28  C   UNL     1       5.822  -4.068  -1.770  0.00  0.00    +0.002 A 
ENDBRANCH  20  26
ENDBRANCH   1  20
BRANCH  10  29
ATOM     29  O   UNL     1       0.895  -0.699   4.818  0.00  0.00    -0.392 OA
ATOM     30  H   UNL     1       0.001  -0.377   4.639  0.00  0.00    +0.210 HD
ENDBRANCH  10  29
TORSDOF 5
