REMARK  Name = ZINC20465219
REMARK  7 active torsions:
REMARK  status: ('A' for Active; 'I' for Inactive)
REMARK    1  A    between atoms: N_9  and  C_11
REMARK    2  A    between atoms: C_13  and  C_23
REMARK    3  A    between atoms: C_16  and  C_21
REMARK    4  A    between atoms: C_18  and  O_20
REMARK    5  A    between atoms: C_21  and  O_22
REMARK    6  A    between atoms: C_23  and  N_24
REMARK    7  A    between atoms: C_25  and  C_27
REMARK                            x       y       z     vdW  Elec       q    Type
REMARK                         _______ _______ _______ _____ _____    ______ ____
ROOT
ATOM      1  C   UNL     1      -7.443   1.129   0.027  0.00  0.00    -0.006 C 
ATOM      2  C   UNL     1      -6.151   1.874   0.413  0.00  0.00    +0.125 C 
ATOM      3  O   UNL     1      -5.810   2.737  -0.685  0.00  0.00    -0.369 OA
ATOM      4  C   UNL     1      -7.040   3.046  -1.375  0.00  0.00    +0.171 C 
ATOM      5  C   UNL     1      -7.809   1.701  -1.365  0.00  0.00    +0.135 C 
ENDROOT
BRANCH   1  14
ATOM      6  C   UNL     1      -6.673  -5.166   1.073  0.00  0.00    +0.000 A 
ATOM      7  C   UNL     1      -6.378  -4.482   2.238  0.00  0.00    +0.000 A 
ATOM      8  C   UNL     1      -6.527  -3.110   2.285  0.00  0.00    +0.002 A 
ATOM      9  C   UNL     1      -6.972  -2.414   1.171  0.00  0.00    -0.061 A 
ATOM     10  C   UNL     1      -7.262  -3.096   0.009  0.00  0.00    -0.048 A 
ATOM     11  C   UNL     1      -7.113  -4.474  -0.037  0.00  0.00    +0.004 A 
ATOM     12  C   UNL     1      -7.742  -2.383  -1.228  0.00  0.00    +0.017 C 
ATOM     13  C   UNL     1      -8.234  -0.981  -0.865  0.00  0.00    -0.073 C 
ATOM     14  N   UNL     1      -7.196  -0.317  -0.060  0.00  0.00    +0.388 N 
ATOM     15  C   UNL     1      -7.126  -0.919   1.275  0.00  0.00    -0.042 C 
ATOM     16  H   UNL     1      -6.224  -0.459  -0.555  0.00  0.00    -0.081 HD
ENDBRANCH   1  14
BRANCH   5  17
ATOM     17  O   UNL     1      -7.347   0.841  -2.408  0.00  0.00    -0.391 OA
ATOM     18  H   UNL     1      -7.528   1.106  -3.460  0.00  0.00    +0.210 HD
ENDBRANCH   5  17
BRANCH   4  19
ATOM     19  C   UNL     1      -6.755   3.493  -2.810  0.00  0.00    +0.190 C 
BRANCH  19  20
ATOM     20  O   UNL     1      -6.057   4.739  -2.792  0.00  0.00    -0.392 OA
ATOM     21  H   UNL     1      -5.764   5.220  -3.737  0.00  0.00    +0.210 HD
ENDBRANCH  19  20
ENDBRANCH   4  19
BRANCH   2  22
ATOM     22  C   UNL     1      -5.023   0.870   0.655  0.00  0.00    +0.134 C 
BRANCH  22  23
ATOM     23  N   UNL     1      -3.742   1.577   0.710  0.00  0.00    -0.309 N 
ATOM     24  C   UNL     1      -2.601   0.890   0.915  0.00  0.00    +0.244 C 
ATOM     25  O   UNL     1      -2.635  -0.316   1.055  0.00  0.00    -0.270 OA
ATOM     26  H   UNL     1      -3.711   2.670   0.583  0.00  0.00    +0.149 HD
BRANCH  24  27
ATOM     27  C   UNL     1      -1.307   1.605   0.970  0.00  0.00    +0.039 A 
ATOM     28  C   UNL     1      -0.124   0.896   1.182  0.00  0.00    +0.013 A 
ATOM     29  C   UNL     1       1.081   1.567   1.227  0.00  0.00    +0.004 A 
ATOM     30  C   UNL     1       1.118   2.941   1.067  0.00  0.00    +0.038 A 
ATOM     31  C   UNL     1      -0.053   3.652   0.861  0.00  0.00    +0.124 A 
ATOM     32  C   UNL     1      -1.266   2.991   0.814  0.00  0.00    +0.051 A 
ATOM     33  F   UNL     1      -0.009   4.993   0.706  0.00  0.00    -0.205 F 
ENDBRANCH  24  27
ENDBRANCH  22  23
ENDBRANCH   2  22
TORSDOF 7
