REMARK  Name = ZINC40780595
REMARK  4 active torsions:
REMARK  status: ('A' for Active; 'I' for Inactive)
REMARK    1  A    between atoms: C_12  and  N_29
REMARK    2  A    between atoms: C_13  and  N_17
REMARK    3  A    between atoms: N_17  and  N_18
REMARK    4  A    between atoms: C_19  and  C_21
REMARK                            x       y       z     vdW  Elec       q    Type
REMARK                         _______ _______ _______ _____ _____    ______ ____
ROOT
ATOM      1  C   UNL     1      -0.909  -2.296  -2.002  0.00  0.00    +0.000 A 
ATOM      2  C   UNL     1      -1.124  -1.714  -0.766  0.00  0.00    +0.000 A 
ATOM      3  C   UNL     1      -0.053  -1.460   0.065  0.00  0.00    +0.005 A 
ATOM      4  C   UNL     1       1.238  -1.787  -0.328  0.00  0.00    -0.027 A 
ATOM      5  C   UNL     1       1.452  -2.375  -1.554  0.00  0.00    -0.041 A 
ATOM      6  C   UNL     1       0.372  -2.623  -2.393  0.00  0.00    +0.004 A 
ATOM      7  C   UNL     1       2.819  -2.785  -2.035  0.00  0.00    +0.054 C 
ATOM      8  C   UNL     1       3.911  -2.040  -1.270  0.00  0.00    +0.111 C 
ATOM      9  N   UNL     1       3.595  -2.122   0.166  0.00  0.00    -0.309 N 
ATOM     10  C   UNL     1       2.364  -1.468   0.623  0.00  0.00    +0.142 C 
ATOM     11  C   UNL     1       4.430  -2.792   1.052  0.00  0.00    +0.148 A 
ATOM     12  C   UNL     1       5.515  -2.136   1.637  0.00  0.00    +0.107 A 
ATOM     13  C   UNL     1       6.321  -2.856   2.521  0.00  0.00    +0.161 A 
ATOM     14  N   UNL     1       6.027  -4.129   2.771  0.00  0.00    -0.217 NA
ATOM     15  C   UNL     1       4.993  -4.711   2.198  0.00  0.00    +0.225 A 
ATOM     16  N   UNL     1       4.204  -4.066   1.362  0.00  0.00    -0.219 NA
ENDROOT
BRANCH  12  17
ATOM     17  N   UNL     1       5.788  -0.790   1.344  0.00  0.00    -0.353 N 
ATOM     18  H   UNL     1       5.171  -0.278   0.798  0.00  0.00    +0.143 HD
ATOM     19  H   UNL     1       6.595  -0.373   1.686  0.00  0.00    +0.143 HD
ENDBRANCH  12  17
BRANCH  13  20
ATOM     20  N   UNL     1       7.414  -2.251   3.130  0.00  0.00    -0.247 N 
ATOM     21  H   UNL     1       7.622  -1.323   2.942  0.00  0.00    +0.172 HD
BRANCH  20  22
ATOM     22  N   UNL     1       8.216  -2.983   4.016  0.00  0.00    -0.231 N 
ATOM     23  C   UNL     1       9.276  -2.397   4.607  0.00  0.00    +0.262 C 
ATOM     24  O   UNL     1       9.537  -1.233   4.371  0.00  0.00    -0.269 OA
ATOM     25  H   UNL     1       8.008  -3.912   4.204  0.00  0.00    +0.173 HD
BRANCH  23  26
ATOM     26  C   UNL     1      10.122  -3.169   5.540  0.00  0.00    +0.057 A 
ATOM     27  C   UNL     1       9.829  -4.508   5.808  0.00  0.00    +0.016 A 
ATOM     28  C   UNL     1      10.621  -5.223   6.680  0.00  0.00    +0.021 A 
ATOM     29  C   UNL     1      11.708  -4.617   7.290  0.00  0.00    +0.042 A 
ATOM     30  C   UNL     1      12.005  -3.290   7.030  0.00  0.00    +0.040 A 
ATOM     31  C   UNL     1      11.221  -2.564   6.154  0.00  0.00    +0.054 A 
ATOM     32 CL   UNL     1      11.598  -0.902   5.823  0.00  0.00    -0.083 Cl
ATOM     33 CL   UNL     1      12.700  -5.525   8.387  0.00  0.00    -0.083 Cl
ENDBRANCH  23  26
ENDBRANCH  20  22
ENDBRANCH  13  20
TORSDOF 4
