REMARK  Name = ZINC37320894
REMARK  5 active torsions:
REMARK  status: ('A' for Active; 'I' for Inactive)
REMARK    1  A    between atoms: C_3  and  N_11
REMARK    2  A    between atoms: C_4  and  N_8
REMARK    3  A    between atoms: C_6  and  O_7
REMARK    4  A    between atoms: N_11  and  C_12
REMARK    5  A    between atoms: C_12  and  C_13
REMARK                            x       y       z     vdW  Elec       q    Type
REMARK                         _______ _______ _______ _____ _____    ______ ____
ROOT
ATOM      1  C   UNL     1      -0.004   1.404   0.042  0.00  0.00    +0.047 A 
ATOM      2  C   UNL     1       1.188   2.060   0.283  0.00  0.00    +0.029 A 
ATOM      3  C   UNL     1       2.386   1.361   0.236  0.00  0.00    +0.058 A 
ATOM      4  C   UNL     1       2.386   0.002  -0.053  0.00  0.00    +0.150 A 
ATOM      5  C   UNL     1       1.194  -0.652  -0.293  0.00  0.00    +0.080 A 
ATOM      6  C   UNL     1      -0.003   0.047  -0.246  0.00  0.00    +0.119 A 
ENDROOT
BRANCH   4   7
ATOM      7  N   UNL     1       3.664  -0.744  -0.103  0.00  0.00    +0.058 N 
ATOM      8  O   UNL     1       4.652  -0.220  -0.561  0.00  0.00    -0.126 OA
ATOM      9  O   UNL     1       3.718  -1.877   0.313  0.00  0.00    -0.126 OA
ENDBRANCH   4   7
BRANCH   6  10
ATOM     10  O   UNL     1      -1.177  -0.598  -0.482  0.00  0.00    -0.507 OA
ATOM     11  H   UNL     1      -1.443  -0.602  -1.412  0.00  0.00    +0.292 HD
ENDBRANCH   6  10
BRANCH   3  12
ATOM     12  N   UNL     1       3.594   2.025   0.479  0.00  0.00    -0.342 N 
ATOM     13  H   UNL     1       4.422   1.522   0.531  0.00  0.00    +0.146 HD
BRANCH  12  14
ATOM     14  C   UNL     1       3.608   3.479   0.656  0.00  0.00    +0.105 C 
BRANCH  14  15
ATOM     15  C   UNL     1       5.042   3.949   0.906  0.00  0.00    +0.013 C 
ATOM     16  C   UNL     1       5.544   3.455   2.285  0.00  0.00    +0.013 C 
ATOM     17  C   UNL     1       5.838   4.775   3.067  0.00  0.00    +0.012 C 
ATOM     18  C   UNL     1       6.393   5.676   1.903  0.00  0.00    +0.015 C 
ATOM     19  C   UNL     1       5.097   5.505   1.025  0.00  0.00    +0.017 C 
ATOM     20  C   UNL     1       4.029   5.837   2.074  0.00  0.00    -0.027 C 
ATOM     21  C   UNL     1       4.453   5.402   3.273  0.00  0.00    -0.027 C 
ENDBRANCH  14  15
ENDBRANCH  12  14
ENDBRANCH   3  12
TORSDOF 5
