REMARK  Name = ZINC10406434
REMARK  6 active torsions:
REMARK  status: ('A' for Active; 'I' for Inactive)
REMARK    1  A    between atoms: C_1  and  C_2
REMARK    2  A    between atoms: C_5  and  N_9
REMARK    3  A    between atoms: N_12  and  C_13
REMARK    4  A    between atoms: C_13  and  C_14
REMARK    5  A    between atoms: C_14  and  C_15
REMARK    6  A    between atoms: C_15  and  N_16
REMARK                            x       y       z     vdW  Elec       q    Type
REMARK                         _______ _______ _______ _____ _____    ______ ____
ROOT
ATOM      1  C   UNL     1       0.419  -6.931   2.379  0.00  0.00    +0.107 C 
ENDROOT
BRANCH   1   5
ATOM      2  N   UNL     1       0.057  -4.171  -0.022  0.00  0.00    -0.269 N 
ATOM      3  C   UNL     1       0.174  -4.850   1.136  0.00  0.00    +0.304 C 
ATOM      4  O   UNL     1       0.172  -4.252   2.195  0.00  0.00    -0.253 OA
ATOM      5  N   UNL     1       0.292  -6.193   1.121  0.00  0.00    -0.299 N 
ATOM      6  H   UNL     1      -0.019  -4.652  -0.861  0.00  0.00    +0.156 HD
ATOM      7  H   UNL     1       0.294  -6.670   0.276  0.00  0.00    +0.150 HD
BRANCH   2  12
ATOM      8  C   UNL     1       0.015   1.503   0.011  0.00  0.00    +0.045 C 
ATOM      9  C   UNL     1       0.025  -0.004   0.002  0.00  0.00    -0.032 A 
ATOM     10  C   UNL     1       0.780  -0.694   0.933  0.00  0.00    +0.006 A 
ATOM     11  C   UNL     1       0.792  -2.075   0.928  0.00  0.00    +0.024 A 
ATOM     12  C   UNL     1       0.046  -2.771  -0.014  0.00  0.00    +0.036 A 
ATOM     13  C   UNL     1      -0.711  -2.077  -0.948  0.00  0.00    +0.043 A 
ATOM     14  C   UNL     1      -0.724  -0.694  -0.934  0.00  0.00    +0.046 A 
ATOM     15 CL   UNL     1      -1.675   0.176  -2.096  0.00  0.00    -0.083 Cl
ENDBRANCH   2  12
ENDBRANCH   1   5
BRANCH   1  16
ATOM     16  C   UNL     1       0.538  -8.428   2.083  0.00  0.00    +0.038 C 
BRANCH  16  17
ATOM     17  C   UNL     1       0.670  -9.199   3.397  0.00  0.00    +0.119 C 
BRANCH  17  18
ATOM     18  N   UNL     1       0.784 -10.632   3.113  0.00  0.00    -0.224 N 
ATOM     19  C   UNL     1      -0.269 -11.473   3.015  0.00  0.00    +0.246 C 
ATOM     20  O   UNL     1      -1.443 -11.198   3.139  0.00  0.00    -0.273 OA
ATOM     21  C   UNL     1       0.329 -12.824   2.716  0.00  0.00    +0.113 C 
ATOM     22  C   UNL     1      -0.182 -13.369   1.376  0.00  0.00    +0.035 C 
ATOM     23  C   UNL     1      -0.285 -14.899   1.608  0.00  0.00    +0.003 C 
ATOM     24  C   UNL     1      -0.777 -14.993   3.075  0.00  0.00    +0.003 C 
ATOM     25  C   UNL     1      -0.038 -13.844   3.797  0.00  0.00    +0.035 C 
ATOM     26  N   UNL     1       1.773 -12.586   2.675  0.00  0.00    -0.285 N 
ATOM     27  C   UNL     1       1.944 -11.270   2.914  0.00  0.00    +0.309 C 
ATOM     28  O   UNL     1       3.030 -10.725   2.948  0.00  0.00    -0.252 OA
ATOM     29  H   UNL     1       2.467 -13.242   2.506  0.00  0.00    +0.151 HD
ENDBRANCH  17  18
ENDBRANCH  16  17
ENDBRANCH   1  16
TORSDOF 5
