REMARK  Name = ZINC25876361
REMARK  9 active torsions:
REMARK  status: ('A' for Active; 'I' for Inactive)
REMARK    1  A    between atoms: C_1  and  C_2
REMARK    2  A    between atoms: C_2  and  C_25
REMARK    3  A    between atoms: C_4  and  N_10
REMARK    4  A    between atoms: C_6  and  C_8
REMARK    5  A    between atoms: C_6  and  C_9
REMARK    6  A    between atoms: C_11  and  C_13
REMARK    7  A    between atoms: C_14  and  C_22
REMARK    8  A    between atoms: C_22  and  O_23
REMARK    9  A    between atoms: O_23  and  C_24
REMARK                            x       y       z     vdW  Elec       q    Type
REMARK                         _______ _______ _______ _____ _____    ______ ____
ROOT
ATOM      1  N   UNL     1       0.376   5.050  -1.216  0.00  0.00    -0.306 N 
ATOM      2  C   UNL     1       0.077   5.700  -2.358  0.00  0.00    +0.280 C 
ATOM      3  O   UNL     1      -0.186   5.071  -3.365  0.00  0.00    -0.267 OA
ATOM      4  H   UNL     1       0.615   5.618  -0.305  0.00  0.00    +0.149 HD
ENDROOT
BRANCH   1   8
ATOM      5  C   UNL     1      -0.958   0.983  -2.263  0.00  0.00    -0.010 C 
ATOM      6  C   UNL     1      -1.049   1.551  -0.842  0.00  0.00    -0.072 C 
ATOM      7  C   UNL     1      -1.030   3.077  -0.900  0.00  0.00    +0.009 C 
ATOM      8  C   UNL     1       0.383   3.582  -1.188  0.00  0.00    +0.071 C 
ATOM      9  C   UNL     1       1.307   3.104  -0.068  0.00  0.00    +0.009 C 
ATOM     10  C   UNL     1       1.318   1.579  -0.002  0.00  0.00    -0.072 C 
ATOM     11  N   UNL     1      -0.012   1.005   0.008  0.00  0.00    +0.386 N 
ATOM     12  C   UNL     1       2.027   1.175   1.309  0.00  0.00    -0.010 C 
ATOM     13  C   UNL     1       2.153   1.022  -1.161  0.00  0.00    -0.010 C 
ATOM     14  C   UNL     1      -2.418   1.125  -0.266  0.00  0.00    -0.010 C 
ATOM     15  H   UNL     1      -0.322   1.079   1.060  0.00  0.00    -0.084 HD
ATOM     16  H   UNL     1       0.156  -0.051  -0.252  0.00  0.00    -0.084 HD
ENDBRANCH   1   8
BRANCH   2  17
ATOM     17  C   UNL     1       0.070   7.170  -2.386  0.00  0.00    +0.196 A 
ATOM     18  C   UNL     1      -0.215   7.929  -3.476  0.00  0.00    +0.036 A 
ATOM     19  C   UNL     1      -0.101   9.321  -3.040  0.00  0.00    +0.026 A 
ATOM     20  C   UNL     1      -0.267  10.555  -3.672  0.00  0.00    +0.012 A 
ATOM     21  C   UNL     1      -0.082  11.709  -2.964  0.00  0.00    +0.001 A 
ATOM     22  C   UNL     1       0.269  11.662  -1.622  0.00  0.00    +0.004 A 
ATOM     23  C   UNL     1       0.438  10.454  -0.980  0.00  0.00    +0.047 A 
ATOM     24  C   UNL     1       0.255   9.267  -1.680  0.00  0.00    +0.136 A 
ATOM     25  O   UNL     1       0.341   7.968  -1.332  0.00  0.00    -0.450 OA
BRANCH  18  26
ATOM     26  C   UNL     1      -0.575   7.437  -4.854  0.00  0.00    +0.199 C 
BRANCH  26  27
ATOM     27  O   UNL     1      -1.992   7.282  -4.949  0.00  0.00    -0.378 OA
ATOM     28  C   UNL     1      -2.442   6.817  -6.223  0.00  0.00    +0.194 C 
ENDBRANCH  26  27
ENDBRANCH  18  26
ENDBRANCH   2  17
TORSDOF 4
