REMARK  Name = ZINC21704988
REMARK  7 active torsions:
REMARK  status: ('A' for Active; 'I' for Inactive)
REMARK    1  A    between atoms: C_1  and  C_2
REMARK    2  A    between atoms: C_6  and  O_8
REMARK    3  A    between atoms: O_8  and  C_9
REMARK    4  A    between atoms: C_9  and  C_11
REMARK    5  A    between atoms: C_9  and  C_12
REMARK    6  A    between atoms: N_14  and  C_15
REMARK    7  A    between atoms: C_22  and  C_24
REMARK                            x       y       z     vdW  Elec       q    Type
REMARK                         _______ _______ _______ _____ _____    ______ ____
ROOT
ATOM      1  C   UNL     1      -3.418   2.009  -0.896  0.00  0.00    +0.258 C 
ATOM      2  O   UNL     1      -3.156   3.107  -1.340  0.00  0.00    -0.271 OA
ATOM      3  N   UNL     1      -4.629   1.462  -1.119  0.00  0.00    -0.282 N 
ATOM      4  H   UNL     1      -4.894   0.501  -0.653  0.00  0.00    +0.155 HD
ENDROOT
BRANCH   3   5
ATOM      5  C   UNL     1      -5.551   2.117  -1.946  0.00  0.00    +0.036 A 
ATOM      6  C   UNL     1      -5.622   3.508  -1.940  0.00  0.00    +0.027 A 
ATOM      7  C   UNL     1      -6.522   4.164  -2.752  0.00  0.00    +0.050 A 
ATOM      8  C   UNL     1      -7.370   3.438  -3.575  0.00  0.00    +0.155 A 
ATOM      9  C   UNL     1      -7.308   2.036  -3.582  0.00  0.00    +0.111 A 
ATOM     10  C   UNL     1      -6.391   1.379  -2.760  0.00  0.00    +0.055 A 
ATOM     11  N   UNL     1      -8.245   1.612  -4.473  0.00  0.00    -0.213 NA
ATOM     12  C   UNL     1      -8.841   2.649  -4.979  0.00  0.00    +0.194 A 
ATOM     13  O   UNL     1      -8.336   3.777  -4.457  0.00  0.00    -0.440 OA
ATOM     14  C   UNL     1      -9.943   2.593  -6.006  0.00  0.00    +0.109 C 
ENDBRANCH   3   5
BRANCH   1  15
ATOM     15  C   UNL     1      -2.388   1.256  -0.093  0.00  0.00    +0.256 C 
ATOM     16  C   UNL     1      -2.935   0.982   1.309  0.00  0.00    +0.062 C 
BRANCH  15  17
ATOM     17  O   UNL     1      -1.196   2.038   0.004  0.00  0.00    -0.480 OA
BRANCH  17  23
ATOM     18  C   UNL     1       3.670   2.103   0.387  0.00  0.00    +0.044 C 
ATOM     19  C   UNL     1       2.357   1.362   0.398  0.00  0.00    -0.047 A 
ATOM     20  C   UNL     1       2.337  -0.005   0.609  0.00  0.00    +0.003 A 
ATOM     21  C   UNL     1       1.135  -0.688   0.619  0.00  0.00    +0.004 A 
ATOM     22  C   UNL     1      -0.049  -0.005   0.418  0.00  0.00    +0.046 A 
ATOM     23  C   UNL     1      -0.032   1.365   0.207  0.00  0.00    +0.122 A 
ATOM     24  C   UNL     1       1.176   2.048   0.198  0.00  0.00    +0.049 A 
ENDBRANCH  17  23
ENDBRANCH  15  17
ENDBRANCH   1  15
TORSDOF 4
