REMARK  Name = ZINC08890334
REMARK  4 active torsions:
REMARK  status: ('A' for Active; 'I' for Inactive)
REMARK    1  A    between atoms: C_1  and  C_2
REMARK    2  A    between atoms: C_6  and  C_14
REMARK    3  A    between atoms: C_12  and  C_13
REMARK    4  A    between atoms: C_14  and  N_15
REMARK                            x       y       z     vdW  Elec       q    Type
REMARK                         _______ _______ _______ _____ _____    ______ ____
ROOT
ATOM      1  N   UNL     1      -0.026   1.321   0.008  0.00  0.00    -0.220 N 
ATOM      2  C   UNL     1       1.230   1.819   0.015  0.00  0.00    +0.251 C 
ATOM      3  O   UNL     1       1.558   2.986   0.035  0.00  0.00    -0.272 OA
ATOM      4  C   UNL     1       2.134   0.614  -0.009  0.00  0.00    +0.138 C 
ATOM      5  C   UNL     1       3.048   0.582   1.222  0.00  0.00    +0.045 C 
ATOM      6  C   UNL     1       4.344   1.230   0.683  0.00  0.00    +0.038 C 
ATOM      7  C   UNL     1       4.322   0.979  -0.811  0.00  0.00    -0.042 A 
ATOM      8  C   UNL     1       3.043   0.626  -1.208  0.00  0.00    -0.012 A 
ATOM      9  C   UNL     1       2.790   0.355  -2.543  0.00  0.00    +0.006 A 
ATOM     10  C   UNL     1       3.807   0.431  -3.475  0.00  0.00    +0.000 A 
ATOM     11  C   UNL     1       5.083   0.781  -3.076  0.00  0.00    +0.000 A 
ATOM     12  C   UNL     1       5.339   1.054  -1.747  0.00  0.00    +0.004 A 
ATOM     13  N   UNL     1       1.224  -0.531  -0.029  0.00  0.00    -0.281 N 
ATOM     14  C   UNL     1      -0.024  -0.019  -0.017  0.00  0.00    +0.310 C 
ATOM     15  O   UNL     1      -1.033  -0.696  -0.028  0.00  0.00    -0.252 OA
ATOM     16  H   UNL     1       1.468  -1.469  -0.046  0.00  0.00    +0.152 HD
ENDROOT
BRANCH   1  17
ATOM     17  C   UNL     1      -1.239   2.143   0.020  0.00  0.00    +0.154 C 
BRANCH  17  23
ATOM     18  C   UNL     1      -6.674   4.940   2.637  0.00  0.00    +0.044 C 
ATOM     19  C   UNL     1      -5.372   4.249   2.324  0.00  0.00    -0.044 A 
ATOM     20  C   UNL     1      -4.964   4.116   1.004  0.00  0.00    +0.004 A 
ATOM     21  C   UNL     1      -3.787   3.492   0.702  0.00  0.00    +0.012 A 
ATOM     22  C   UNL     1      -2.984   2.990   1.730  0.00  0.00    +0.023 A 
ATOM     23  C   UNL     1      -1.719   2.309   1.438  0.00  0.00    -0.012 A 
ATOM     24  C   UNL     1      -0.989   1.837   2.481  0.00  0.00    +0.098 A 
ATOM     25  C   UNL     1      -1.462   2.006   3.801  0.00  0.00    +0.338 A 
ATOM     26  O   UNL     1      -0.797   1.578   4.728  0.00  0.00    -0.245 OA
ATOM     27  O   UNL     1      -2.624   2.625   4.060  0.00  0.00    -0.422 OA
ATOM     28  C   UNL     1      -3.397   3.117   3.068  0.00  0.00    +0.142 A 
ATOM     29  C   UNL     1      -4.598   3.755   3.353  0.00  0.00    -0.005 A 
ATOM     30  C   UNL     1      -5.053   3.905   4.781  0.00  0.00    +0.048 C 
ENDBRANCH  17  23
ENDBRANCH   1  17
TORSDOF 2
