REMARK  Name = ZINC03672162
REMARK  12 active torsions:
REMARK  status: ('A' for Active; 'I' for Inactive)
REMARK    1  A    between atoms: C_1  and  C_2
REMARK    2  A    between atoms: C_2  and  O_3
REMARK    3  A    between atoms: O_3  and  C_4
REMARK    4  A    between atoms: C_4  and  C_6
REMARK    5  A    between atoms: N_8  and  C_9
REMARK    6  A    between atoms: C_9  and  C_10
REMARK    7  A    between atoms: C_13  and  C_15
REMARK    8  A    between atoms: C_19  and  C_30
REMARK    9  A    between atoms: C_20  and  C_29
REMARK   10  A    between atoms: N_21  and  C_22
REMARK   11  A    between atoms: C_30  and  O_32
REMARK   12  A    between atoms: O_32  and  C_33
REMARK                            x       y       z     vdW  Elec       q    Type
REMARK                         _______ _______ _______ _____ _____    ______ ____
ROOT
ATOM      1  C   UNL     1      -0.110  -9.120   3.537  0.00  0.00    +0.074 C 
ATOM      2  C   UNL     1      -0.700  -8.887   4.759  0.00  0.00    +0.090 C 
ATOM      3  C   UNL     1      -1.070  -7.619   5.287  0.00  0.00    +0.216 C 
ATOM      4  O   UNL     1      -0.932  -6.528   4.757  0.00  0.00    -0.285 OA
ATOM      5  C   UNL     1      -1.656  -7.901   6.607  0.00  0.00    +0.125 C 
ATOM      6  C   UNL     1      -1.602  -9.270   6.782  0.00  0.00    +0.031 C 
ATOM      7  N   UNL     1      -1.049  -9.848   5.701  0.00  0.00    -0.269 N 
ATOM      8  C   UNL     1      -2.095 -10.007   8.000  0.00  0.00    +0.062 C 
ENDROOT
BRANCH   7   9
ATOM      9  C   UNL     1      -0.850 -11.227   5.548  0.00  0.00    +0.039 A 
ATOM     10  C   UNL     1       0.369 -11.795   5.894  0.00  0.00    +0.026 A 
ATOM     11  C   UNL     1       0.564 -13.154   5.742  0.00  0.00    +0.040 A 
ATOM     12  C   UNL     1      -0.455 -13.949   5.245  0.00  0.00    +0.124 A 
ATOM     13  C   UNL     1      -1.671 -13.384   4.900  0.00  0.00    +0.040 A 
ATOM     14  C   UNL     1      -1.872 -12.027   5.056  0.00  0.00    +0.026 A 
ATOM     15  F   UNL     1      -0.262 -15.278   5.097  0.00  0.00    -0.205 F 
ENDBRANCH   7   9
BRANCH   1  19
ATOM     16  C   UNL     1       0.863  -5.999   2.127  0.00  0.00    +0.123 A 
ATOM     17  C   UNL     1       1.140  -6.803   1.075  0.00  0.00    +0.047 A 
ATOM     18  C   UNL     1       0.811  -8.111   1.455  0.00  0.00    +0.049 A 
ATOM     19  C   UNL     1       0.338  -8.037   2.752  0.00  0.00    +0.130 A 
ATOM     20  O   UNL     1       0.387  -6.744   3.135  0.00  0.00    -0.459 OA
BRANCH  16  21
ATOM     21  C   UNL     1       1.063  -4.506   2.163  0.00  0.00    +0.179 C 
BRANCH  21  24
ATOM     22  C   UNL     1      -0.209  -2.492   1.650  0.00  0.00    +0.322 C 
ATOM     23  O   UNL     1       0.753  -1.834   1.984  0.00  0.00    -0.263 OA
ATOM     24  N   UNL     1      -0.157  -3.838   1.703  0.00  0.00    -0.299 N 
ATOM     25  H   UNL     1      -0.926  -4.364   1.436  0.00  0.00    +0.150 HD
BRANCH  22  26
ATOM     26  C   UNL     1      -1.454  -1.811   1.181  0.00  0.00    +0.395 C 
ATOM     27  O   UNL     1      -2.416  -2.469   0.847  0.00  0.00    -0.240 OA
BRANCH  26  28
ATOM     28  O   UNL     1      -1.507  -0.468   1.128  0.00  0.00    -0.458 OA
BRANCH  28  30
ATOM     29  C   UNL     1      -2.599   1.641   0.679  0.00  0.00    +0.048 C 
ATOM     30  C   UNL     1      -2.728   0.116   0.670  0.00  0.00    +0.229 C 
ENDBRANCH  28  30
ENDBRANCH  26  28
ENDBRANCH  22  26
ENDBRANCH  21  24
ENDBRANCH  16  21
ENDBRANCH   1  19
BRANCH   5  31
ATOM     31  C   UNL     1      -2.193  -6.918   7.555  0.00  0.00    +0.344 C 
ATOM     32  O   UNL     1      -2.651  -7.287   8.620  0.00  0.00    -0.245 OA
BRANCH  31  33
ATOM     33  O   UNL     1      -2.179  -5.606   7.246  0.00  0.00    -0.464 OA
ATOM     34  C   UNL     1      -2.719  -4.705   8.215  0.00  0.00    +0.280 C 
ENDBRANCH  31  33
ENDBRANCH   5  31
TORSDOF 9
