REMARK  Name = ZINC67383194
REMARK  11 active torsions:
REMARK  status: ('A' for Active; 'I' for Inactive)
REMARK    1  A    between atoms: C_1  and  C_2
REMARK    2  A    between atoms: C_5  and  C_8
REMARK    3  A    between atoms: C_8  and  C_10
REMARK    4  A    between atoms: C_8  and  N_25
REMARK    5  A    between atoms: C_10  and  N_11
REMARK    6  A    between atoms: N_11  and  C_12
REMARK    7  A    between atoms: C_15  and  N_22
REMARK    8  A    between atoms: C_17  and  S_18
REMARK    9  A    between atoms: S_18  and  N_21
REMARK   10  A    between atoms: N_25  and  C_26
REMARK   11  A    between atoms: N_25  and  C_27
REMARK                            x       y       z     vdW  Elec       q    Type
REMARK                         _______ _______ _______ _____ _____    ______ ____
ROOT
ATOM      1  N   UNL     1      -2.112  -4.384  -1.086  0.00  0.00    -0.344 N 
ATOM      2  H   UNL     1      -1.711  -3.823  -1.768  0.00  0.00    +0.146 HD
ENDROOT
BRANCH   1   3
ATOM      3  C   UNL     1      -3.467  -4.716  -1.163  0.00  0.00    +0.054 A 
ATOM      4  C   UNL     1      -4.044  -5.516  -0.184  0.00  0.00    +0.027 A 
ATOM      5  C   UNL     1      -5.383  -5.842  -0.263  0.00  0.00    +0.034 A 
ATOM      6  C   UNL     1      -6.150  -5.374  -1.314  0.00  0.00    +0.128 A 
ATOM      7  C   UNL     1      -5.579  -4.578  -2.290  0.00  0.00    +0.063 A 
ATOM      8  C   UNL     1      -4.241  -4.244  -2.215  0.00  0.00    +0.128 A 
BRANCH   8   9
ATOM      9  S   UNL     1      -3.515  -3.224  -3.455  0.00  0.00    +0.058 S 
ATOM     10  O   UNL     1      -2.322  -3.876  -3.870  0.00  0.00    -0.153 OA
ATOM     11  O   UNL     1      -4.555  -2.887  -4.363  0.00  0.00    -0.153 OA
BRANCH   9  12
ATOM     12  N   UNL     1      -3.053  -1.813  -2.720  0.00  0.00    -0.203 NA
ATOM     13  H   UNL     1      -3.207  -1.688  -1.771  0.00  0.00    +0.144 HD
ATOM     14  H   UNL     1      -2.628  -1.113  -3.240  0.00  0.00    +0.144 HD
ENDBRANCH   9  12
ENDBRANCH   8   9
BRANCH   6  15
ATOM     15  N   UNL     1      -7.586  -5.725  -1.395  0.00  0.00    +0.056 N 
ATOM     16  O   UNL     1      -8.087  -6.421  -0.543  0.00  0.00    -0.126 OA
ATOM     17  O   UNL     1      -8.257  -5.317  -2.314  0.00  0.00    -0.126 OA
ENDBRANCH   6  15
ENDBRANCH   1   3
BRANCH   1  18
ATOM     18  C   UNL     1      -1.297  -4.884   0.024  0.00  0.00    +0.091 C 
BRANCH  18  19
ATOM     19  C   UNL     1       0.106  -4.281  -0.061  0.00  0.00    -0.021 C 
BRANCH  19  24
ATOM     20  C   UNL     1      -0.205   1.434   0.736  0.00  0.00    +0.044 C 
ATOM     21  C   UNL     1      -0.124  -0.056   0.528  0.00  0.00    -0.050 A 
ATOM     22  C   UNL     1      -0.017  -0.571  -0.751  0.00  0.00    +0.003 A 
ATOM     23  C   UNL     1       0.058  -1.938  -0.941  0.00  0.00    +0.002 A 
ATOM     24  C   UNL     1       0.026  -2.790   0.146  0.00  0.00    -0.059 A 
ATOM     25  C   UNL     1      -0.080  -2.276   1.425  0.00  0.00    +0.002 A 
ATOM     26  C   UNL     1      -0.151  -0.908   1.616  0.00  0.00    +0.003 A 
ENDBRANCH  19  24
BRANCH  19  27
ATOM     27  N   UNL     1       0.959  -4.875   0.977  0.00  0.00    +0.382 N 
ATOM     28  C   UNL     1       1.052  -6.325   0.763  0.00  0.00    -0.096 C 
ATOM     29  C   UNL     1       2.301  -4.282   0.907  0.00  0.00    -0.096 C 
ATOM     30  H   UNL     1       0.558  -4.694   1.885  0.00  0.00    -0.082 HD
ENDBRANCH  19  27
ENDBRANCH  18  19
ENDBRANCH   1  18
TORSDOF 8
