REMARK  Name = ZINC40477806
REMARK  7 active torsions:
REMARK  status: ('A' for Active; 'I' for Inactive)
REMARK    1  A    between atoms: C_5  and  C_7
REMARK    2  A    between atoms: C_7  and  C_8
REMARK    3  A    between atoms: C_8  and  N_9
REMARK    4  A    between atoms: N_12  and  C_13
REMARK    5  A    between atoms: C_13  and  C_14
REMARK    6  A    between atoms: C_14  and  C_16
REMARK    7  A    between atoms: C_14  and  N_21
REMARK                            x       y       z     vdW  Elec       q    Type
REMARK                         _______ _______ _______ _____ _____    ______ ____
ROOT
ATOM      1  N   UNL     1       2.269  -5.171  -6.392  0.00  0.00    -0.299 N 
ATOM      2  C   UNL     1       2.874  -5.388  -5.207  0.00  0.00    +0.300 C 
ATOM      3  O   UNL     1       3.402  -4.466  -4.616  0.00  0.00    -0.253 OA
ATOM      4  N   UNL     1       2.894  -6.628  -4.678  0.00  0.00    -0.301 N 
ATOM      5  H   UNL     1       1.848  -5.907  -6.864  0.00  0.00    +0.150 HD
ATOM      6  H   UNL     1       2.473  -7.363  -5.150  0.00  0.00    +0.150 HD
ENDROOT
BRANCH   1   7
ATOM      7  C   UNL     1       2.248  -3.824  -6.967  0.00  0.00    +0.112 C 
BRANCH   7   8
ATOM      8  C   UNL     1       1.505  -3.852  -8.305  0.00  0.00    +0.074 C 
BRANCH   8  13
ATOM      9  C   UNL     1       1.944  -0.982 -10.708  0.00  0.00    +0.003 A 
ATOM     10  C   UNL     1       1.430   0.047  -9.934  0.00  0.00    +0.020 A 
ATOM     11  C   UNL     1       0.961  -0.234  -8.665  0.00  0.00    +0.111 A 
ATOM     12  N   UNL     1       1.000  -1.463  -8.189  0.00  0.00    -0.260 NA
ATOM     13  C   UNL     1       1.483  -2.466  -8.896  0.00  0.00    +0.043 A 
ATOM     14  C   UNL     1       1.968  -2.261 -10.174  0.00  0.00    +0.023 A 
ENDBRANCH   8  13
ENDBRANCH   7   8
ENDBRANCH   1   7
BRANCH   4  15
ATOM     15  C   UNL     1       3.551  -6.864  -3.391  0.00  0.00    +0.098 C 
BRANCH  15  16
ATOM     16  C   UNL     1       3.319  -8.313  -2.958  0.00  0.00    +0.016 C 
BRANCH  16  17
ATOM     17  N   UNL     1       1.878  -8.598  -2.955  0.00  0.00    +0.387 N 
ATOM     18  C   UNL     1       1.204  -7.698  -2.011  0.00  0.00    -0.078 C 
ATOM     19  C   UNL     1      -0.306  -7.935  -2.063  0.00  0.00    -0.019 C 
ATOM     20  C   UNL     1      -0.603  -9.389  -1.685  0.00  0.00    -0.004 C 
ATOM     21  C   UNL     1       0.164 -10.319  -2.630  0.00  0.00    -0.019 C 
ATOM     22  C   UNL     1       1.657  -9.993  -2.556  0.00  0.00    -0.078 C 
ATOM     23  H   UNL     1       1.505  -8.451  -3.881  0.00  0.00    -0.081 HD
ENDBRANCH  16  17
BRANCH  16  24
ATOM     24  C   UNL     1       4.013  -9.242  -3.920  0.00  0.00    +0.093 A 
ATOM     25  C   UNL     1       5.199  -9.843  -3.716  0.00  0.00    +0.043 A 
ATOM     26  C   UNL     1       5.468 -10.619  -4.867  0.00  0.00    +0.041 A 
ATOM     27  C   UNL     1       4.430 -10.446  -5.705  0.00  0.00    +0.195 A 
ATOM     28  O   UNL     1       3.549  -9.616  -5.123  0.00  0.00    -0.469 OA
ENDBRANCH  16  24
ENDBRANCH  15  16
ENDBRANCH   4  15
TORSDOF 7
