REMARK  Name = ZINC15938178
REMARK  3 active torsions:
REMARK  status: ('A' for Active; 'I' for Inactive)
REMARK    1  A    between atoms: C_2  and  C_9
REMARK    2  A    between atoms: N_11  and  N_12
REMARK    3  A    between atoms: C_13  and  C_15
REMARK                            x       y       z     vdW  Elec       q    Type
REMARK                         _______ _______ _______ _____ _____    ______ ____
ROOT
ATOM      1  C   UNL     1      -0.070   5.326   0.029  0.00  0.00    +0.260 C 
ATOM      2  O   UNL     1       0.974   5.948   0.021  0.00  0.00    -0.269 OA
ATOM      3  N   UNL     1      -1.246   5.984   0.043  0.00  0.00    -0.230 N 
ATOM      4  H   UNL     1      -2.080   5.488   0.049  0.00  0.00    +0.173 HD
ENDROOT
BRANCH   1   6
ATOM      5  C   UNL     1      -1.248   3.131   0.030  0.00  0.00    +0.051 A 
ATOM      6  C   UNL     1      -0.050   3.848   0.022  0.00  0.00    +0.044 A 
ATOM      7  C   UNL     1       1.166   3.164   0.007  0.00  0.00    +0.051 A 
ATOM      8  C   UNL     1       1.179   1.782   0.000  0.00  0.00    +0.127 A 
ATOM      9  C   UNL     1      -0.013   1.076   0.008  0.00  0.00    +0.076 A 
ATOM     10  C   UNL     1      -1.223   1.750   0.017  0.00  0.00    +0.127 A 
ATOM     11  F   UNL     1      -2.381   1.054   0.019  0.00  0.00    -0.205 F 
ATOM     12  F   UNL     1       2.356   1.119  -0.014  0.00  0.00    -0.205 F 
ENDBRANCH   1   6
BRANCH   3  13
ATOM     13  N   UNL     1      -1.265   7.385   0.049  0.00  0.00    -0.230 N 
ATOM     14  C   UNL     1      -2.442   8.043   0.063  0.00  0.00    +0.267 C 
ATOM     15  O   UNL     1      -3.487   7.420   0.071  0.00  0.00    -0.268 OA
ATOM     16  H   UNL     1      -0.432   7.881   0.043  0.00  0.00    +0.173 HD
BRANCH  14  17
ATOM     17  C   UNL     1      -2.462   9.509   0.070  0.00  0.00    +0.076 A 
ATOM     18  C   UNL     1      -3.544  10.364   0.084  0.00  0.00    +0.024 A 
ATOM     19  C   UNL     1      -3.298  11.738   0.088  0.00  0.00    -0.036 A 
ATOM     20  C   UNL     1      -1.995  12.126   0.075  0.00  0.00    -0.006 A 
ATOM     21  S   UNL     1      -1.093  10.652   0.070  0.00  0.00    -0.088 S 
ATOM     22  C   UNL     1      -1.856  13.623   0.076  0.00  0.00    +0.043 C 
ATOM     23  C   UNL     1      -3.247  14.145  -0.347  0.00  0.00    +0.010 C 
ATOM     24  C   UNL     1      -4.169  12.997   0.107  0.00  0.00    +0.036 C 
ENDBRANCH  14  17
ENDBRANCH   3  13
TORSDOF 3
