REMARK  Name = ZINC39246340
REMARK  4 active torsions:
REMARK  status: ('A' for Active; 'I' for Inactive)
REMARK    1  A    between atoms: C_6  and  C_10
REMARK    2  A    between atoms: C_10  and  C_19
REMARK    3  A    between atoms: C_11  and  C_12
REMARK    4  A    between atoms: C_19  and  C_20
REMARK                            x       y       z     vdW  Elec       q    Type
REMARK                         _______ _______ _______ _____ _____    ______ ____
ROOT
ATOM      1  C   UNL     1       3.476  -2.755  -1.312  0.00  0.00    -0.016 C 
ATOM      2  C   UNL     1       4.196  -2.112  -2.221  0.00  0.00    +0.011 C 
ENDROOT
BRANCH   1   8
ATOM      3  C   UNL     1       1.719  -3.923   3.865  0.00  0.00    +0.002 A 
ATOM      4  C   UNL     1       0.458  -3.940   3.242  0.00  0.00    +0.002 A 
ATOM      5  C   UNL     1       0.257  -3.467   1.996  0.00  0.00    +0.027 A 
ATOM      6  C   UNL     1       1.386  -2.907   1.241  0.00  0.00    +0.060 A 
ATOM      7  N   UNL     1       1.486  -2.392   0.050  0.00  0.00    -0.360 N 
ATOM      8  C   UNL     1       2.889  -2.003  -0.145  0.00  0.00    +0.202 C 
ATOM      9  N   UNL     1       3.594  -2.362   1.091  0.00  0.00    -0.360 N 
ATOM     10  C   UNL     1       2.721  -2.888   1.900  0.00  0.00    +0.060 A 
ATOM     11  C   UNL     1       2.821  -3.432   3.262  0.00  0.00    +0.027 A 
ATOM     12  H   UNL     1       0.766  -2.284  -0.591  0.00  0.00    +0.162 HD
ATOM     13  H   UNL     1       4.538  -2.230   1.272  0.00  0.00    +0.162 HD
ENDBRANCH   1   8
BRANCH   2  14
ATOM     14  C   UNL     1       4.576  -0.701  -1.999  0.00  0.00    -0.025 A 
ATOM     15  C   UNL     1       4.939  -0.266  -0.724  0.00  0.00    +0.009 A 
ATOM     16  C   UNL     1       5.294   1.052  -0.523  0.00  0.00    +0.016 A 
ATOM     17  C   UNL     1       5.290   1.942  -1.583  0.00  0.00    +0.018 A 
ATOM     18  C   UNL     1       4.931   1.516  -2.850  0.00  0.00    +0.016 A 
ATOM     19  C   UNL     1       4.580   0.199  -3.065  0.00  0.00    +0.009 A 
ATOM     20 BR   UNL     1       5.776   3.748  -1.299  0.00  0.00    -0.050 Br
ENDBRANCH   2  14
BRANCH   1  21
ATOM     21  C   UNL     1       3.245  -4.238  -1.446  0.00  0.00    +0.159 C 
BRANCH  21  22
ATOM     22  C   UNL     1       4.273  -4.983  -0.634  0.00  0.00    +0.360 C 
ATOM     23  O   UNL     1       5.117  -4.366  -0.005  0.00  0.00    -0.246 OA
ATOM     24  O   UNL     1       4.263  -6.201  -0.606  0.00  0.00    -0.246 OA
ENDBRANCH  21  22
ENDBRANCH   1  21
TORSDOF 4
