REMARK  Name = ZINC05692941
REMARK  10 active torsions:
REMARK  status: ('A' for Active; 'I' for Inactive)
REMARK    1  A    between atoms: C_1  and  C_2
REMARK    2  A    between atoms: C_6  and  C_27
REMARK    3  A    between atoms: C_7  and  N_8
REMARK    4  A    between atoms: C_9  and  C_11
REMARK    5  A    between atoms: C_11  and  C_25
REMARK    6  A    between atoms: C_12  and  C_13
REMARK    7  A    between atoms: C_16  and  N_22
REMARK    8  A    between atoms: C_17  and  N_19
REMARK    9  A    between atoms: N_22  and  C_23
REMARK   10  A    between atoms: N_22  and  C_24
REMARK                            x       y       z     vdW  Elec       q    Type
REMARK                         _______ _______ _______ _____ _____    ______ ____
ROOT
ATOM      1  C   UNL     1       2.211  -0.585   0.554  0.00  0.00    +0.114 C 
ATOM      2  C   UNL     1       1.932   0.628   1.147  0.00  0.00    +0.032 C 
ENDROOT
BRANCH   2   3
ATOM      3  C   UNL     1       0.674   1.315   0.851  0.00  0.00    -0.021 A 
ATOM      4  C   UNL     1       0.064   1.159  -0.403  0.00  0.00    +0.010 A 
ATOM      5  C   UNL     1      -1.107   1.805  -0.675  0.00  0.00    +0.026 A 
ATOM      6  C   UNL     1      -1.703   2.610   0.294  0.00  0.00    +0.060 A 
ATOM      7  C   UNL     1      -1.102   2.768   1.541  0.00  0.00    +0.148 A 
ATOM      8  C   UNL     1       0.072   2.131   1.821  0.00  0.00    +0.042 A 
BRANCH   7   9
ATOM      9  N   UNL     1      -1.738   3.629   2.563  0.00  0.00    +0.058 N 
ATOM     10  O   UNL     1      -1.213   3.768   3.654  0.00  0.00    -0.126 OA
ATOM     11  O   UNL     1      -2.785   4.199   2.314  0.00  0.00    -0.126 OA
ENDBRANCH   7   9
BRANCH   6  12
ATOM     12  N   UNL     1      -2.897   3.261   0.013  0.00  0.00    -0.334 N 
ATOM     13  C   UNL     1      -2.746   4.168  -1.132  0.00  0.00    +0.129 C 
ATOM     14  C   UNL     1      -3.981   2.297  -0.218  0.00  0.00    +0.129 C 
ENDBRANCH   6  12
ENDBRANCH   2   3
BRANCH   1  16
ATOM     15  N   UNL     1       3.809  -2.385   0.147  0.00  0.00    -0.280 N 
ATOM     16  C   UNL     1       3.536  -1.200   0.727  0.00  0.00    +0.259 C 
ATOM     17  O   UNL     1       4.385  -0.639   1.394  0.00  0.00    -0.269 OA
ATOM     18  H   UNL     1       3.163  -2.794  -0.450  0.00  0.00    +0.155 HD
BRANCH  15  25
ATOM     19  C   UNL     1       3.735  -5.024   1.211  0.00  0.00    +0.045 C 
ATOM     20  C   UNL     1       5.034  -4.315   0.926  0.00  0.00    -0.029 A 
ATOM     21  C   UNL     1       6.236  -4.949   1.175  0.00  0.00    +0.005 A 
ATOM     22  C   UNL     1       7.428  -4.297   0.920  0.00  0.00    +0.001 A 
ATOM     23  C   UNL     1       7.422  -3.012   0.408  0.00  0.00    +0.005 A 
ATOM     24  C   UNL     1       6.224  -2.376   0.151  0.00  0.00    -0.029 A 
ATOM     25  C   UNL     1       5.024  -3.027   0.407  0.00  0.00    +0.040 A 
ATOM     26  C   UNL     1       6.218  -0.976  -0.407  0.00  0.00    +0.045 C 
ENDBRANCH  15  25
ENDBRANCH   1  16
BRANCH   1  27
ATOM     27  C   UNL     1       1.212  -1.245  -0.231  0.00  0.00    +0.104 C 
ATOM     28  N   UNL     1       0.419  -1.769  -0.853  0.00  0.00    -0.191 NA
ENDBRANCH   1  27
TORSDOF 6
