REMARK  Name = ZINC66254764
REMARK  6 active torsions:
REMARK  status: ('A' for Active; 'I' for Inactive)
REMARK    1  A    between atoms: C_1  and  C_2
REMARK    2  A    between atoms: N_5  and  C_23
REMARK    3  A    between atoms: C_6  and  N_7
REMARK    4  A    between atoms: N_7  and  S_8
REMARK    5  A    between atoms: S_8  and  C_11
REMARK    6  A    between atoms: C_23  and  C_24
REMARK                            x       y       z     vdW  Elec       q    Type
REMARK                         _______ _______ _______ _____ _____    ______ ____
ROOT
ATOM      1  S   UNL     1       0.410   0.970   3.161  0.00  0.00    +0.076 S 
ATOM      2  O   UNL     1       0.677   1.079   4.552  0.00  0.00    -0.150 OA
ATOM      3  O   UNL     1       1.193   1.637   2.180  0.00  0.00    -0.150 OA
ENDROOT
BRANCH   1   4
ATOM      4  C   UNL     1      -1.253   1.501   2.923  0.00  0.00    +0.144 A 
ATOM      5  C   UNL     1      -2.009   1.906   4.008  0.00  0.00    +0.037 A 
ATOM      6  C   UNL     1      -3.313   2.323   3.825  0.00  0.00    -0.024 A 
ATOM      7  C   UNL     1      -3.865   2.337   2.550  0.00  0.00    +0.039 A 
ATOM      8  C   UNL     1      -3.106   1.929   1.463  0.00  0.00    +0.064 A 
ATOM      9  C   UNL     1      -1.798   1.518   1.651  0.00  0.00    +0.152 A 
ATOM     10  F   UNL     1      -1.055   1.126   0.593  0.00  0.00    -0.203 F 
ATOM     11  N   UNL     1      -5.185   2.760   2.367  0.00  0.00    -0.285 N 
ATOM     12  C   UNL     1      -5.804   3.493   3.311  0.00  0.00    +0.218 C 
ATOM     13  O   UNL     1      -6.954   3.840   3.142  0.00  0.00    -0.275 OA
ATOM     14  C   UNL     1      -5.086   3.886   4.574  0.00  0.00    +0.101 C 
ATOM     15  C   UNL     1      -4.139   2.766   5.005  0.00  0.00    +0.046 C 
ATOM     16  H   UNL     1      -5.658   2.525   1.553  0.00  0.00    +0.155 HD
ENDBRANCH   1   4
BRANCH   1  17
ATOM     17  N   UNL     1       0.466  -0.644   2.793  0.00  0.00    -0.199 N 
ATOM     18  H   UNL     1       0.659  -1.293   3.488  0.00  0.00    +0.175 HD
BRANCH  17  24
ATOM     19  C   UNL     1      -1.921  -2.373   1.923  0.00  0.00    +0.049 C 
ATOM     20  C   UNL     1      -0.807  -1.834   1.063  0.00  0.00    +0.010 A 
ATOM     21  C   UNL     1      -0.663  -2.026  -0.314  0.00  0.00    +0.139 A 
ATOM     22  N   UNL     1       0.421  -1.408  -0.705  0.00  0.00    -0.178 NA
ATOM     23  N   UNL     1       1.009  -0.799   0.411  0.00  0.00    -0.249 N 
ATOM     24  C   UNL     1       0.236  -1.069   1.488  0.00  0.00    +0.139 A 
BRANCH  23  25
ATOM     25  C   UNL     1       2.241  -0.006   0.412  0.00  0.00    +0.149 C 
BRANCH  25  26
ATOM     26  C   UNL     1       1.938   1.406  -0.093  0.00  0.00    +0.011 C 
ATOM     27  C   UNL     1       2.608   1.849  -1.395  0.00  0.00    +0.005 C 
ATOM     28  C   UNL     1       3.077   2.428  -0.058  0.00  0.00    +0.005 C 
ENDBRANCH  25  26
ENDBRANCH  23  25
ENDBRANCH  17  24
ENDBRANCH   1  17
TORSDOF 5
