REMARK  Name = ZINC39774271
REMARK  4 active torsions:
REMARK  status: ('A' for Active; 'I' for Inactive)
REMARK    1  A    between atoms: C_4  and  C_7
REMARK    2  A    between atoms: C_8  and  C_9
REMARK    3  A    between atoms: N_10  and  N_11
REMARK    4  A    between atoms: C_12  and  C_14
REMARK                            x       y       z     vdW  Elec       q    Type
REMARK                         _______ _______ _______ _____ _____    ______ ____
ROOT
ATOM      1  N   UNL     1       6.200  -4.699  -0.084  0.00  0.00    -0.205 N 
ATOM      2  C   UNL     1       6.222  -6.047  -0.091  0.00  0.00    +0.263 C 
ATOM      3  O   UNL     1       5.182  -6.671  -0.084  0.00  0.00    -0.271 OA
ATOM      4  H   UNL     1       7.032  -4.200  -0.089  0.00  0.00    +0.177 HD
ENDROOT
BRANCH   2   5
ATOM      5  C   UNL     1       7.539  -6.778  -0.108  0.00  0.00    +0.243 C 
ATOM      6  C   UNL     1       8.109  -6.887   1.283  0.00  0.00    -0.012 C 
ATOM      7  C   UNL     1       8.178  -8.200   1.526  0.00  0.00    +0.065 C 
ATOM      8  C   UNL     1       8.701  -8.771   2.825  0.00  0.00    +0.057 C 
ATOM      9  C   UNL     1       9.493  -7.680   3.553  0.00  0.00    +0.006 C 
ATOM     10  C   UNL     1       8.655  -6.400   3.633  0.00  0.00    +0.005 C 
ATOM     11  C   UNL     1       8.521  -5.796   2.228  0.00  0.00    +0.035 C 
ATOM     12  N   UNL     1       7.722  -8.892   0.458  0.00  0.00    -0.158 NA
ATOM     13  N   UNL     1       7.349  -8.190  -0.494  0.00  0.00    -0.170 NA
ENDBRANCH   2   5
BRANCH   1  15
ATOM     14  C   UNL     1       4.954  -2.717  -0.060  0.00  0.00    +0.130 C 
ATOM     15  N   UNL     1       4.975  -4.019  -0.068  0.00  0.00    -0.188 NA
BRANCH  14  17
ATOM     16  C   UNL     1       3.692  -0.680  -0.037  0.00  0.00    +0.009 C 
ATOM     17  C   UNL     1       3.714  -2.028  -0.045  0.00  0.00    +0.022 C 
BRANCH  16  21
ATOM     18  C   UNL     1      -0.017   1.380   0.010  0.00  0.00    +0.000 A 
ATOM     19  C   UNL     1       1.168   2.095   0.002  0.00  0.00    +0.001 A 
ATOM     20  C   UNL     1       2.377   1.433  -0.013  0.00  0.00    +0.008 A 
ATOM     21  C   UNL     1       2.405   0.035  -0.021  0.00  0.00    -0.025 A 
ATOM     22  C   UNL     1       1.203  -0.681  -0.013  0.00  0.00    +0.008 A 
ATOM     23  C   UNL     1       0.002  -0.004   0.002  0.00  0.00    +0.001 A 
ENDBRANCH  16  21
ENDBRANCH  14  17
ENDBRANCH   1  15
TORSDOF 4
