REMARK  Name = ZINC54334697
REMARK  6 active torsions:
REMARK  status: ('A' for Active; 'I' for Inactive)
REMARK    1  A    between atoms: C_1  and  C_2
REMARK    2  A    between atoms: C_2  and  C_4
REMARK    3  A    between atoms: C_2  and  C_6
REMARK    4  A    between atoms: C_4  and  N_5
REMARK    5  A    between atoms: C_8  and  C_11
REMARK    6  A    between atoms: C_14  and  N_17
REMARK                            x       y       z     vdW  Elec       q    Type
REMARK                         _______ _______ _______ _____ _____    ______ ____
ROOT
ATOM      1  C   UNL     1      -1.412  -0.526   0.013  0.00  0.00    +0.229 A 
ATOM      2  N   UNL     1      -1.950  -1.284  -0.899  0.00  0.00    -0.191 NA
ATOM      3  C   UNL     1      -3.225  -1.562  -0.573  0.00  0.00    +0.202 A 
ATOM      4  N   UNL     1      -3.505  -0.972   0.563  0.00  0.00    -0.056 NA
ATOM      5  O   UNL     1      -2.325  -0.292   0.964  0.00  0.00    -0.337 OA
ENDROOT
BRANCH   3   6
ATOM      6  C   UNL     1      -4.160  -2.397  -1.368  0.00  0.00    +0.023 A 
ATOM      7  C   UNL     1      -3.737  -2.976  -2.563  0.00  0.00    +0.014 A 
ATOM      8  C   UNL     1      -4.610  -3.752  -3.298  0.00  0.00    +0.033 A 
ATOM      9  C   UNL     1      -5.903  -3.955  -2.851  0.00  0.00    +0.126 A 
ATOM     10  C   UNL     1      -6.328  -3.383  -1.666  0.00  0.00    +0.033 A 
ATOM     11  C   UNL     1      -5.462  -2.610  -0.920  0.00  0.00    +0.014 A 
BRANCH   9  12
ATOM     12  N   UNL     1      -6.835  -4.788  -3.643  0.00  0.00    +0.056 N 
ATOM     13  O   UNL     1      -6.465  -5.289  -4.680  0.00  0.00    -0.126 OA
ATOM     14  O   UNL     1      -7.965  -4.968  -3.255  0.00  0.00    -0.126 OA
ENDBRANCH   9  12
ENDBRANCH   3   6
BRANCH   1  16
ATOM     15  C   UNL     1      -0.019   1.526   0.010  0.00  0.00    +0.015 C 
ATOM     16  C   UNL     1       0.002  -0.004   0.002  0.00  0.00    +0.057 C 
BRANCH  16  17
ATOM     17  C   UNL     1       0.742  -0.511   1.242  0.00  0.00    -0.074 C 
BRANCH  17  18
ATOM     18  N   UNL     1       2.151  -0.103   1.171  0.00  0.00    +0.379 N 
ATOM     19  H   UNL     1       2.209   0.904   1.134  0.00  0.00    -0.090 HD
ATOM     20  H   UNL     1       2.639  -0.437   1.989  0.00  0.00    -0.090 HD
ATOM     21  H   UNL     1       2.574  -0.495   0.344  0.00  0.00    -0.090 HD
ENDBRANCH  17  18
ENDBRANCH  16  17
ENDBRANCH   1  16
TORSDOF 5
