REMARK  Name = ZINC26511728
REMARK  3 active torsions:
REMARK  status: ('A' for Active; 'I' for Inactive)
REMARK    1  A    between atoms: C_8  and  S_10
REMARK    2  A    between atoms: S_10  and  C_11
REMARK    3  A    between atoms: C_11  and  C_12
REMARK                            x       y       z     vdW  Elec       q    Type
REMARK                         _______ _______ _______ _____ _____    ______ ____
ROOT
ATOM      1  S   UNL     1      -1.303   7.538   0.803  0.00  0.00    -0.083 S 
ENDROOT
BRANCH   1   8
ATOM      2  C   UNL     1       1.243   1.822   0.000  0.00  0.00    -0.002 C 
ATOM      3  C   UNL     1       1.256   3.141  -0.169  0.00  0.00    +0.001 C 
ATOM      4  C   UNL     1       0.005   3.931  -0.369  0.00  0.00    +0.146 C 
ATOM      5  C   UNL     1      -1.218   3.142   0.016  0.00  0.00    +0.088 C 
ATOM      6  N   UNL     1      -2.295   3.788   0.399  0.00  0.00    -0.150 NA
ATOM      7  N   UNL     1      -2.311   5.062   0.548  0.00  0.00    -0.127 NA
ATOM      8  C   UNL     1      -1.212   5.793   0.579  0.00  0.00    +0.177 C 
ATOM      9  N   UNL     1       0.012   5.164   0.433  0.00  0.00    -0.311 N 
ATOM     10  C   UNL     1      -1.195   1.736   0.017  0.00  0.00    +0.027 C 
ATOM     11  C   UNL     1      -0.013   1.076   0.008  0.00  0.00    +0.002 C 
ATOM     12  H   UNL     1       0.952   5.529   0.872  0.00  0.00    +0.149 HD
ENDBRANCH   1   8
BRANCH   1  13
ATOM     13  C   UNL     1      -3.096   7.747   0.928  0.00  0.00    +0.132 C 
BRANCH  13  14
ATOM     14  C   UNL     1      -3.420   9.205   1.129  0.00  0.00    +0.049 C 
ATOM     15  C   UNL     1      -3.919   9.994   0.170  0.00  0.00    +0.011 C 
ATOM     16  C   UNL     1      -4.023  11.356   0.801  0.00  0.00    +0.086 C 
ATOM     17  C   UNL     1      -5.406  11.938   0.782  0.00  0.00    +0.007 C 
ATOM     18  C   UNL     1      -5.834  12.630   1.845  0.00  0.00    +0.038 C 
ATOM     19  C   UNL     1      -5.033  12.803   3.054  0.00  0.00    +0.021 C 
ATOM     20  C   UNL     1      -3.950  12.001   3.279  0.00  0.00    +0.025 C 
ATOM     21  C   UNL     1      -3.664  11.079   2.252  0.00  0.00    +0.052 C 
ATOM     22  N   UNL     1      -3.243   9.855   2.293  0.00  0.00    -0.255 NA
ATOM     23 CL   UNL     1      -7.412  13.351   1.784  0.00  0.00    -0.084 Cl
ENDBRANCH  13  14
ENDBRANCH   1  13
TORSDOF 3
