REMARK  Name = ZINC58853715
REMARK  7 active torsions:
REMARK  status: ('A' for Active; 'I' for Inactive)
REMARK    1  A    between atoms: C_1  and  C_2
REMARK    2  A    between atoms: C_4  and  C_8
REMARK    3  A    between atoms: C_5  and  C_7
REMARK    4  A    between atoms: N_10  and  C_11
REMARK    5  A    between atoms: C_11  and  C_12
REMARK    6  A    between atoms: N_14  and  C_15
REMARK    7  A    between atoms: C_19  and  C_21
REMARK                            x       y       z     vdW  Elec       q    Type
REMARK                         _______ _______ _______ _____ _____    ______ ____
ROOT
ATOM      1  C   UNL     1      -4.967  -4.253   0.002  0.00  0.00    +0.234 C 
ATOM      2  O   UNL     1      -5.319  -3.092   0.019  0.00  0.00    -0.274 OA
ATOM      3  N   UNL     1      -5.887  -5.237  -0.001  0.00  0.00    -0.284 N 
ATOM      4  H   UNL     1      -5.608  -6.162  -0.082  0.00  0.00    +0.155 HD
ENDROOT
BRANCH   3   5
ATOM      5  C   UNL     1      -7.247  -4.924   0.113  0.00  0.00    +0.034 A 
ATOM      6  C   UNL     1      -7.745  -3.767  -0.476  0.00  0.00    +0.025 A 
ATOM      7  C   UNL     1      -9.086  -3.453  -0.367  0.00  0.00    +0.022 A 
ATOM      8  C   UNL     1      -9.941  -4.287   0.328  0.00  0.00    +0.053 A 
ATOM      9  C   UNL     1      -9.450  -5.451   0.923  0.00  0.00    +0.057 A 
ATOM     10  C   UNL     1      -8.097  -5.770   0.807  0.00  0.00    +0.037 A 
ATOM     11 CL   UNL     1     -11.625  -3.886   0.463  0.00  0.00    -0.083 Cl
BRANCH   9  12
ATOM     12  C   UNL     1     -10.361  -6.345   1.668  0.00  0.00    +0.243 C 
ATOM     13  O   UNL     1     -11.541  -6.068   1.763  0.00  0.00    -0.270 OA
ATOM     14  N   UNL     1      -9.885  -7.468   2.240  0.00  0.00    -0.325 N 
ATOM     15  H   UNL     1      -8.943  -7.689   2.164  0.00  0.00    +0.145 HD
ATOM     16  H   UNL     1     -10.483  -8.055   2.729  0.00  0.00    +0.145 HD
ENDBRANCH   9  12
ENDBRANCH   3   5
BRANCH   1  17
ATOM     17  C   UNL     1      -3.499  -4.594  -0.015  0.00  0.00    +0.200 C 
BRANCH  17  20
ATOM     18  C   UNL     1      -1.364  -3.419  -0.021  0.00  0.00    +0.248 C 
ATOM     19  O   UNL     1      -0.804  -4.498  -0.038  0.00  0.00    -0.270 OA
ATOM     20  N   UNL     1      -2.711  -3.359  -0.008  0.00  0.00    -0.303 N 
ATOM     21  H   UNL     1      -3.158  -2.498   0.006  0.00  0.00    +0.150 HD
BRANCH  18  25
ATOM     22  C   UNL     1      -0.018   1.502   0.023  0.00  0.00    +0.086 C 
ATOM     23  C   UNL     1       0.003  -0.005   0.006  0.00  0.00    +0.103 A 
ATOM     24  C   UNL     1      -1.080  -0.797   0.007  0.00  0.00    +0.057 A 
ATOM     25  C   UNL     1      -0.571  -2.176  -0.014  0.00  0.00    +0.077 A 
ATOM     26  C   UNL     1       0.788  -2.066  -0.025  0.00  0.00    +0.114 A 
ATOM     27  O   UNL     1       1.106  -0.768  -0.018  0.00  0.00    -0.464 OA
ATOM     28  C   UNL     1       1.766  -3.213  -0.048  0.00  0.00    +0.087 C 
ENDBRANCH  18  25
ENDBRANCH  17  20
ENDBRANCH   1  17
TORSDOF 5
