REMARK  Name = ZINC64959812
REMARK  4 active torsions:
REMARK  status: ('A' for Active; 'I' for Inactive)
REMARK    1  A    between atoms: C_1  and  C_2
REMARK    2  A    between atoms: C_5  and  N_9
REMARK    3  A    between atoms: C_6  and  C_8
REMARK    4  A    between atoms: C_15  and  C_17
REMARK                            x       y       z     vdW  Elec       q    Type
REMARK                         _______ _______ _______ _____ _____    ______ ____
ROOT
ATOM      1  N   UNL     1       0.113  -4.066  -0.399  0.00  0.00    -0.327 N 
ATOM      2  C   UNL     1      -1.138  -4.825  -0.259  0.00  0.00    +0.124 C 
ATOM      3  C   UNL     1      -1.188  -5.894  -1.358  0.00  0.00    +0.127 C 
ATOM      4  N   UNL     1       0.086  -6.625  -1.361  0.00  0.00    -0.296 N 
ATOM      5  C   UNL     1       1.338  -5.866  -1.501  0.00  0.00    +0.127 C 
ATOM      6  C   UNL     1       1.388  -4.798  -0.408  0.00  0.00    +0.124 C 
ATOM      7  C   UNL     1       0.108  -7.967  -1.236  0.00  0.00    +0.252 C 
ATOM      8  O   UNL     1      -0.931  -8.582  -1.121  0.00  0.00    -0.272 OA
ENDROOT
BRANCH   7   9
ATOM      9  C   UNL     1       1.423  -8.703  -1.241  0.00  0.00    +0.247 C 
ATOM     10  N   UNL     1       1.217 -10.078  -0.792  0.00  0.00    -0.319 N 
ATOM     11  C   UNL     1       0.538 -11.034  -1.543  0.00  0.00    +0.055 A 
ATOM     12  C   UNL     1      -0.008 -12.138  -0.890  0.00  0.00    +0.025 A 
ATOM     13  C   UNL     1      -0.671 -13.111  -1.608  0.00  0.00    +0.002 A 
ATOM     14  C   UNL     1      -0.799 -13.000  -2.980  0.00  0.00    +0.002 A 
ATOM     15  C   UNL     1      -0.266 -11.904  -3.635  0.00  0.00    +0.030 A 
ATOM     16  C   UNL     1       0.391 -10.925  -2.919  0.00  0.00    +0.126 A 
ATOM     17  S   UNL     1       1.036  -9.507  -3.755  0.00  0.00    +0.062 S 
ATOM     18  O   UNL     1      -0.066  -8.656  -4.039  0.00  0.00    -0.153 OA
ATOM     19  O   UNL     1       1.919  -9.984  -4.761  0.00  0.00    -0.153 OA
ATOM     20  N   UNL     1       1.973  -8.726  -2.612  0.00  0.00    -0.161 NA
ATOM     21  H   UNL     1       1.571 -10.338   0.072  0.00  0.00    +0.148 HD
ATOM     22  H   UNL     1       2.824  -8.317  -2.832  0.00  0.00    +0.151 HD
ENDBRANCH   7   9
BRANCH   1  27
ATOM     23  C   UNL     1       0.021   1.580  -0.921  0.00  0.00    +0.044 C 
ATOM     24  C   UNL     1       0.046   0.079  -0.782  0.00  0.00    -0.050 A 
ATOM     25  C   UNL     1      -0.015  -0.719  -1.910  0.00  0.00    +0.005 A 
ATOM     26  C   UNL     1       0.008  -2.094  -1.787  0.00  0.00    +0.023 A 
ATOM     27  C   UNL     1       0.091  -2.676  -0.528  0.00  0.00    +0.033 A 
ATOM     28  C   UNL     1       0.152  -1.871   0.603  0.00  0.00    -0.029 A 
ATOM     29  C   UNL     1       0.135  -0.496   0.472  0.00  0.00    +0.008 A 
ATOM     30  C   UNL     1       0.241  -2.497   1.970  0.00  0.00    +0.045 C 
ENDBRANCH   1  27
TORSDOF 2
