REMARK  Name = ZINC51163609
REMARK  9 active torsions:
REMARK  status: ('A' for Active; 'I' for Inactive)
REMARK    1  A    between atoms: C_1  and  C_2
REMARK    2  A    between atoms: C_2  and  C_3
REMARK    3  A    between atoms: C_3  and  C_4
REMARK    4  A    between atoms: C_4  and  C_5
REMARK    5  A    between atoms: C_4  and  C_6
REMARK    6  A    between atoms: C_4  and  N_7
REMARK    7  A    between atoms: N_7  and  S_8
REMARK    8  A    between atoms: S_8  and  C_11
REMARK    9  A    between atoms: C_14  and  N_17
REMARK                            x       y       z     vdW  Elec       q    Type
REMARK                         _______ _______ _______ _____ _____    ______ ____
ROOT
ATOM      1  S   UNL     1       1.619  -3.619  -2.791  0.00  0.00    +0.059 S 
ATOM      2  O   UNL     1       0.673  -4.315  -1.991  0.00  0.00    -0.153 OA
ATOM      3  O   UNL     1       1.618  -3.694  -4.210  0.00  0.00    -0.153 OA
ENDROOT
BRANCH   1   4
ATOM      4  C   UNL     1       3.214  -4.145  -2.259  0.00  0.00    +0.105 A 
ATOM      5  C   UNL     1       4.327  -3.863  -3.029  0.00  0.00    +0.031 A 
ATOM      6  C   UNL     1       5.578  -4.276  -2.612  0.00  0.00    +0.034 A 
ATOM      7  C   UNL     1       5.717  -4.971  -1.425  0.00  0.00    +0.126 A 
ATOM      8  C   UNL     1       4.604  -5.252  -0.654  0.00  0.00    +0.034 A 
ATOM      9  C   UNL     1       3.353  -4.835  -1.069  0.00  0.00    +0.031 A 
BRANCH   7  10
ATOM     10  N   UNL     1       7.057  -5.414  -0.978  0.00  0.00    +0.056 N 
ATOM     11  O   UNL     1       8.030  -5.168  -1.652  0.00  0.00    -0.126 OA
ATOM     12  O   UNL     1       7.178  -6.021   0.060  0.00  0.00    -0.126 OA
ENDBRANCH   7  10
ENDBRANCH   1   4
BRANCH   1  13
ATOM     13  N   UNL     1       1.477  -2.015  -2.403  0.00  0.00    -0.184 NA
ATOM     14  H   UNL     1       1.444  -1.347  -3.105  0.00  0.00    +0.149 HD
BRANCH  13  15
ATOM     15  C   UNL     1       1.404  -1.605  -0.998  0.00  0.00    +0.034 C 
ATOM     16  C   UNL     1       2.561  -2.235  -0.222  0.00  0.00    +0.029 C 
ATOM     17  C   UNL     1       0.075  -2.071  -0.400  0.00  0.00    +0.029 C 
BRANCH  15  18
ATOM     18  C   UNL     1       1.497  -0.081  -0.906  0.00  0.00    +0.023 C 
BRANCH  18  20
ATOM     19  C   UNL     1       1.514   1.871   0.653  0.00  0.00    +0.004 C 
ATOM     20  C   UNL     1       1.420   0.347   0.561  0.00  0.00    -0.002 C 
ENDBRANCH  18  20
ENDBRANCH  15  18
ENDBRANCH  13  15
ENDBRANCH   1  13
TORSDOF 6
