REMARK  Name = ZINC13054106
REMARK  8 active torsions:
REMARK  status: ('A' for Active; 'I' for Inactive)
REMARK    1  A    between atoms: C_3  and  N_18
REMARK    2  A    between atoms: C_5  and  S_7
REMARK    3  A    between atoms: S_7  and  N_10
REMARK    4  A    between atoms: C_19  and  C_21
REMARK    5  A    between atoms: C_21  and  O_22
REMARK    6  A    between atoms: O_22  and  C_23
REMARK    7  A    between atoms: C_26  and  C_32
REMARK    8  A    between atoms: C_28  and  N_29
REMARK                            x       y       z     vdW  Elec       q    Type
REMARK                         _______ _______ _______ _____ _____    ______ ____
ROOT
ATOM      1  C   UNL     1       4.242   5.947   3.945  0.00  0.00    +0.004 A 
ATOM      2  C   UNL     1       3.964   7.266   4.244  0.00  0.00    +0.023 A 
ATOM      3  C   UNL     1       2.710   7.791   3.960  0.00  0.00    +0.035 A 
ATOM      4  C   UNL     1       1.739   6.986   3.377  0.00  0.00    +0.052 A 
ATOM      5  C   UNL     1       2.024   5.668   3.081  0.00  0.00    +0.114 A 
ATOM      6  C   UNL     1       3.273   5.147   3.369  0.00  0.00    +0.029 A 
ENDROOT
BRANCH   3   7
ATOM      7  N   UNL     1       2.424   9.127   4.262  0.00  0.00    -0.283 N 
ATOM      8  C   UNL     1       1.179   9.482   4.638  0.00  0.00    +0.255 C 
ATOM      9  O   UNL     1       0.331   8.631   4.806  0.00  0.00    -0.272 OA
ATOM     10  H   UNL     1       3.122   9.798   4.201  0.00  0.00    +0.155 HD
BRANCH   8  11
ATOM     11  C   UNL     1       0.841  10.935   4.848  0.00  0.00    +0.325 C 
BRANCH  11  12
ATOM     12  O   UNL     1      -0.528  11.054   5.239  0.00  0.00    -0.480 OA
BRANCH  12  13
ATOM     13  C   UNL     1      -0.997  12.306   5.469  0.00  0.00    +0.151 A 
ATOM     14  C   UNL     1      -0.152  13.401   5.320  0.00  0.00    +0.049 A 
ATOM     15  C   UNL     1      -0.624  14.673   5.553  0.00  0.00    +0.019 A 
ATOM     16  C   UNL     1      -1.954  14.864   5.939  0.00  0.00    +0.066 A 
ATOM     17  C   UNL     1      -2.800  13.761   6.087  0.00  0.00    +0.051 A 
ATOM     18  C   UNL     1      -2.322  12.492   5.847  0.00  0.00    +0.168 A 
BRANCH  18  19
ATOM     19  N   UNL     1      -3.218  11.324   5.997  0.00  0.00    +0.060 N 
ATOM     20  O   UNL     1      -4.379  11.486   6.329  0.00  0.00    -0.126 OA
ATOM     21  O   UNL     1      -2.795  10.201   5.790  0.00  0.00    -0.126 OA
ENDBRANCH  18  19
BRANCH  16  22
ATOM     22  C   UNL     1      -2.463  16.225   6.190  0.00  0.00    +0.387 C 
ATOM     23  O   UNL     1      -3.619  16.389   6.525  0.00  0.00    -0.241 OA
ATOM     24  O   UNL     1      -1.646  17.287   6.047  0.00  0.00    -0.241 OA
ENDBRANCH  16  22
ENDBRANCH  12  13
ENDBRANCH  11  12
ENDBRANCH   8  11
ENDBRANCH   3   7
BRANCH   5  25
ATOM     25  S   UNL     1       0.794   4.646   2.342  0.00  0.00    +0.100 S 
ATOM     26  O   UNL     1      -0.464   5.216   2.679  0.00  0.00    -0.146 OA
ATOM     27  O   UNL     1       1.133   3.304   2.664  0.00  0.00    -0.146 OA
BRANCH  25  28
ATOM     28  N   UNL     1       0.956   4.794   0.700  0.00  0.00    -0.118 NA
ATOM     29  C   UNL     1       0.167   4.141  -0.089  0.00  0.00    +0.117 C 
ATOM     30  C   UNL     1      -0.890   3.255   0.445  0.00  0.00    +0.073 C 
ATOM     31  C   UNL     1      -0.490   1.782   0.628  0.00  0.00    +0.008 C 
ATOM     32  C   UNL     1       0.366   1.313  -0.576  0.00  0.00    +0.002 C 
ATOM     33  C   UNL     1      -0.139   1.861  -1.883  0.00  0.00    +0.019 C 
ATOM     34  C   UNL     1       0.705   3.105  -2.184  0.00  0.00    +0.102 C 
ATOM     35  N   UNL     1       0.281   4.247  -1.484  0.00  0.00    -0.331 N 
ATOM     36  H   UNL     1       0.077   5.075  -1.946  0.00  0.00    +0.147 HD
ENDBRANCH  25  28
ENDBRANCH   5  25
TORSDOF 8
