REMARK  Name = ZINC25629285
REMARK  12 active torsions:
REMARK  status: ('A' for Active; 'I' for Inactive)
REMARK    1  A    between atoms: C_1  and  C_2
REMARK    2  A    between atoms: C_2  and  O_3
REMARK    3  A    between atoms: O_3  and  C_4
REMARK    4  A    between atoms: C_4  and  C_6
REMARK    5  A    between atoms: C_7  and  C_19
REMARK    6  A    between atoms: C_12  and  C_14
REMARK    7  A    between atoms: C_19  and  S_20
REMARK    8  A    between atoms: S_20  and  C_21
REMARK    9  A    between atoms: C_24  and  C_27
REMARK   10  A    between atoms: N_25  and  N_26
REMARK   11  A    between atoms: C_27  and  O_28
REMARK   12  A    between atoms: O_28  and  C_29
REMARK                            x       y       z     vdW  Elec       q    Type
REMARK                         _______ _______ _______ _____ _____    ______ ____
ROOT
ATOM      1  C   UNL     1      -3.674   2.486   7.562  0.00  0.00    +0.082 C 
ATOM      2  C   UNL     1      -4.060   3.025   6.385  0.00  0.00    +0.034 C 
ATOM      3  N   UNL     1      -5.362   3.371   6.162  0.00  0.00    -0.272 N 
ATOM      4  C   UNL     1      -6.340   3.200   7.060  0.00  0.00    +0.304 C 
ATOM      5  O   UNL     1      -7.472   3.534   6.767  0.00  0.00    -0.252 OA
ATOM      6  N   UNL     1      -6.111   2.674   8.279  0.00  0.00    -0.285 N 
ATOM      7  C   UNL     1      -4.736   2.273   8.622  0.00  0.00    +0.179 C 
ATOM      8  H   UNL     1      -5.655   3.817   5.200  0.00  0.00    +0.156 HD
ATOM      9  H   UNL     1      -6.921   2.542   9.011  0.00  0.00    +0.151 HD
ENDROOT
BRANCH   7  10
ATOM     10  C   UNL     1      -4.754   0.807   8.974  0.00  0.00    +0.130 A 
ATOM     11  C   UNL     1      -4.171   0.250  10.050  0.00  0.00    +0.047 A 
ATOM     12  C   UNL     1      -4.436  -1.138   9.986  0.00  0.00    +0.041 A 
ATOM     13  C   UNL     1      -5.165  -1.345   8.875  0.00  0.00    +0.195 A 
ATOM     14  O   UNL     1      -5.360  -0.162   8.269  0.00  0.00    -0.466 OA
ENDBRANCH   7  10
BRANCH   1  15
ATOM     15  C   UNL     1      -2.325   2.131   7.797  0.00  0.00    +0.339 C 
ATOM     16  O   UNL     1      -1.613   2.858   8.464  0.00  0.00    -0.245 OA
BRANCH  15  17
ATOM     17  O   UNL     1      -1.828   0.988   7.281  0.00  0.00    -0.462 OA
BRANCH  17  19
ATOM     18  C   UNL     1      -0.078  -0.633   6.895  0.00  0.00    +0.048 C 
ATOM     19  C   UNL     1      -0.458   0.692   7.558  0.00  0.00    +0.229 C 
ENDBRANCH  17  19
ENDBRANCH  15  17
ENDBRANCH   1  15
BRANCH   2  20
ATOM     20  C   UNL     1      -3.036   3.254   5.304  0.00  0.00    +0.128 C 
BRANCH  20  21
ATOM     21  S   UNL     1      -3.224   1.995   4.018  0.00  0.00    -0.079 S 
BRANCH  21  22
ATOM     22  C   UNL     1      -1.942   2.489   2.915  0.00  0.00    +0.209 A 
ATOM     23  N   UNL     1      -1.126   3.506   3.072  0.00  0.00    -0.121 NA
ATOM     24  N   UNL     1      -0.312   3.569   2.080  0.00  0.00    -0.128 NA
ATOM     25  C   UNL     1      -0.563   2.611   1.233  0.00  0.00    +0.189 A 
ATOM     26  N   UNL     1      -1.608   1.887   1.736  0.00  0.00    -0.225 N 
BRANCH  26  27
ATOM     27  N   UNL     1      -2.195   0.788   1.176  0.00  0.00    -0.295 N 
ATOM     28  H   UNL     1      -1.829   0.399   0.215  0.00  0.00    +0.163 HD
ATOM     29  H   UNL     1      -3.033   0.292   1.687  0.00  0.00    +0.163 HD
ENDBRANCH  26  27
BRANCH  25  30
ATOM     30  C   UNL     1       0.167   2.348  -0.059  0.00  0.00    +0.306 C 
BRANCH  30  31
ATOM     31  O   UNL     1      -0.471   3.061  -1.120  0.00  0.00    -0.484 OA
BRANCH  31  32
ATOM     32  C   UNL     1       0.067   2.931  -2.362  0.00  0.00    +0.121 A 
ATOM     33  C   UNL     1       1.188   2.137  -2.553  0.00  0.00    +0.048 A 
ATOM     34  C   UNL     1       1.730   2.000  -3.816  0.00  0.00    +0.042 A 
ATOM     35  C   UNL     1       1.162   2.665  -4.890  0.00  0.00    +0.124 A 
ATOM     36  C   UNL     1       0.046   3.462  -4.699  0.00  0.00    +0.042 A 
ATOM     37  C   UNL     1      -0.501   3.596  -3.438  0.00  0.00    +0.048 A 
ATOM     38  F   UNL     1       1.696   2.534  -6.124  0.00  0.00    -0.205 F 
ENDBRANCH  31  32
ENDBRANCH  30  31
ENDBRANCH  25  30
ENDBRANCH  21  22
ENDBRANCH  20  21
ENDBRANCH   2  20
TORSDOF 11
