REMARK  Name = ZINC04665312
REMARK  6 active torsions:
REMARK  status: ('A' for Active; 'I' for Inactive)
REMARK    1  A    between atoms: C_1  and  C_2
REMARK    2  A    between atoms: C_14  and  C_24
REMARK    3  A    between atoms: C_15  and  N_16
REMARK    4  A    between atoms: N_17  and  C_18
REMARK    5  A    between atoms: C_18  and  C_19
REMARK    6  A    between atoms: N_26  and  C_27
REMARK                            x       y       z     vdW  Elec       q    Type
REMARK                         _______ _______ _______ _____ _____    ______ ____
ROOT
ATOM      1  C   UNL     1      -0.300   1.914   0.086  0.00  0.00    +0.047 C 
ATOM      2  C   UNL     1      -0.143   0.416   0.078  0.00  0.00    -0.007 A 
ATOM      3  C   UNL     1       1.100  -0.144   0.082  0.00  0.00    +0.008 A 
ATOM      4  C   UNL     1       1.231  -1.539   0.075  0.00  0.00    +0.019 A 
ATOM      5  C   UNL     1       0.130  -2.323   0.065  0.00  0.00    +0.096 A 
ATOM      6  N   UNL     1      -1.118  -1.773   0.060  0.00  0.00    -0.267 N 
ATOM      7  C   UNL     1      -1.278  -0.415   0.072  0.00  0.00    +0.145 A 
ATOM      8  N   UNL     1      -2.489   0.143   0.073  0.00  0.00    -0.211 NA
ATOM      9  C   UNL     1      -3.594  -0.590   0.068  0.00  0.00    +0.150 A 
ATOM     10  C   UNL     1      -3.489  -1.999   0.060  0.00  0.00    +0.083 A 
ATOM     11  C   UNL     1      -2.197  -2.586   0.050  0.00  0.00    +0.268 A 
ATOM     12  O   UNL     1      -2.064  -3.797   0.044  0.00  0.00    -0.267 OA
ATOM     13  C   UNL     1      -4.638  -2.804   0.054  0.00  0.00    +0.033 A 
ATOM     14  C   UNL     1      -5.890  -2.204   0.055  0.00  0.00    +0.075 A 
ATOM     15  C   UNL     1      -5.979  -0.736   0.063  0.00  0.00    +0.110 A 
ATOM     16  N   UNL     1      -4.826   0.018   0.068  0.00  0.00    -0.306 N 
ENDROOT
BRANCH  14  17
ATOM     17  C   UNL     1      -7.107  -3.024   0.048  0.00  0.00    +0.248 C 
ATOM     18  O   UNL     1      -8.198  -2.494   0.154  0.00  0.00    -0.270 OA
ATOM     19  N   UNL     1      -7.018  -4.363  -0.077  0.00  0.00    -0.308 N 
ATOM     20  H   UNL     1      -6.032  -4.841  -0.173  0.00  0.00    +0.149 HD
BRANCH  19  21
ATOM     21  C   UNL     1      -8.233  -5.181  -0.084  0.00  0.00    +0.073 C 
ATOM     22  C   UNL     1      -8.648  -5.490   1.356  0.00  0.00    +0.022 C 
ATOM     23  C   UNL     1      -9.918  -6.344   1.349  0.00  0.00    +0.002 C 
ATOM     24  C   UNL     1      -9.647  -7.653   0.604  0.00  0.00    +0.000 C 
ATOM     25  C   UNL     1      -9.231  -7.344  -0.836  0.00  0.00    +0.002 C 
ATOM     26  C   UNL     1      -7.962  -6.490  -0.828  0.00  0.00    +0.022 C 
ENDBRANCH  19  21
ENDBRANCH  14  17
BRANCH  15  27
ATOM     27  N   UNL     1      -7.149  -0.148   0.064  0.00  0.00    -0.344 N 
ATOM     28  H   UNL     1      -7.213   0.950   0.070  0.00  0.00    +0.144 HD
ATOM     29  H   UNL     1      -8.068  -0.752   0.059  0.00  0.00    +0.144 HD
ENDBRANCH  15  27
BRANCH  16  30
ATOM     30  C   UNL     1      -4.914   1.480   0.075  0.00  0.00    +0.199 C 
BRANCH  30  31
ATOM     31  C   UNL     1      -4.941   1.989  -1.343  0.00  0.00    +0.125 A 
ATOM     32  C   UNL     1      -6.045   2.183  -2.088  0.00  0.00    +0.046 A 
ATOM     33  C   UNL     1      -5.611   2.667  -3.344  0.00  0.00    +0.041 A 
ATOM     34  C   UNL     1      -4.269   2.731  -3.294  0.00  0.00    +0.195 A 
ATOM     35  O   UNL     1      -3.868   2.319  -2.080  0.00  0.00    -0.466 OA
ENDBRANCH  30  31
ENDBRANCH  16  30
TORSDOF 5
