REMARK  Name = ZINC67143002
REMARK  10 active torsions:
REMARK  status: ('A' for Active; 'I' for Inactive)
REMARK    1  A    between atoms: C_1  and  C_2
REMARK    2  A    between atoms: C_2  and  C_3
REMARK    3  A    between atoms: C_2  and  C_4
REMARK    4  A    between atoms: C_2  and  O_5
REMARK    5  A    between atoms: O_5  and  C_6
REMARK    6  A    between atoms: N_8  and  C_9
REMARK    7  A    between atoms: C_9  and  C_10
REMARK    8  A    between atoms: N_12  and  C_13
REMARK    9  A    between atoms: C_16  and  N_19
REMARK   10  A    between atoms: N_22  and  C_23
REMARK                            x       y       z     vdW  Elec       q    Type
REMARK                         _______ _______ _______ _____ _____    ______ ____
ROOT
ATOM      1  C   UNL     1       6.355  -1.036  -5.397  0.00  0.00    +0.034 A 
ATOM      2  C   UNL     1       7.694  -1.403  -5.422  0.00  0.00    +0.025 A 
ATOM      3  C   UNL     1       8.222  -2.008  -6.545  0.00  0.00    +0.025 A 
ATOM      4  C   UNL     1       7.415  -2.249  -7.649  0.00  0.00    +0.035 A 
ATOM      5  C   UNL     1       6.076  -1.881  -7.623  0.00  0.00    +0.025 A 
ATOM      6  C   UNL     1       5.546  -1.282  -6.498  0.00  0.00    +0.025 A 
ENDROOT
BRANCH   4   7
ATOM      7  N   UNL     1       7.952  -2.863  -8.788  0.00  0.00    -0.269 N 
ATOM      8  C   UNL     1       7.518  -2.506 -10.013  0.00  0.00    +0.304 C 
ATOM      9  O   UNL     1       6.604  -1.713 -10.127  0.00  0.00    -0.253 OA
ATOM     10  N   UNL     1       8.099  -3.027 -11.112  0.00  0.00    -0.296 N 
ATOM     11  H   UNL     1       8.635  -3.545  -8.695  0.00  0.00    +0.156 HD
ATOM     12  H   UNL     1       8.828  -3.660 -11.021  0.00  0.00    +0.151 HD
BRANCH  10  13
ATOM     13  C   UNL     1       7.627  -2.639 -12.444  0.00  0.00    +0.075 C 
ATOM     14  C   UNL     1       7.457  -3.748 -13.484  0.00  0.00    +0.024 C 
ATOM     15  C   UNL     1       8.616  -2.757 -13.605  0.00  0.00    +0.024 C 
ENDBRANCH  10  13
ENDBRANCH   4   7
BRANCH   1  18
ATOM     16  C   UNL     1       4.550  -0.682  -3.886  0.00  0.00    +0.234 C 
ATOM     17  O   UNL     1       3.845  -1.382  -4.582  0.00  0.00    -0.274 OA
ATOM     18  N   UNL     1       5.818  -0.421  -4.258  0.00  0.00    -0.284 N 
ATOM     19  H   UNL     1       6.360   0.192  -3.737  0.00  0.00    +0.155 HD
BRANCH  16  20
ATOM     20  C   UNL     1       4.006  -0.104  -2.604  0.00  0.00    +0.203 C 
BRANCH  20  23
ATOM     21  C   UNL     1       1.921  -0.133  -1.343  0.00  0.00    +0.401 C 
ATOM     22  O   UNL     1       2.448   0.581  -0.513  0.00  0.00    -0.226 OA
ATOM     23  N   UNL     1       2.616  -0.532  -2.427  0.00  0.00    -0.273 N 
ATOM     24  H   UNL     1       2.195  -1.102  -3.090  0.00  0.00    +0.153 HD
BRANCH  21  25
ATOM     25  O   UNL     1       0.644  -0.526  -1.180  0.00  0.00    -0.445 OA
BRANCH  25  27
ATOM     26  C   UNL     1      -0.069   1.464  -0.007  0.00  0.00    +0.055 C 
ATOM     27  C   UNL     1      -0.032  -0.066  -0.008  0.00  0.00    +0.107 C 
ATOM     28  C   UNL     1       0.712  -0.558   1.236  0.00  0.00    +0.055 C 
ATOM     29  C   UNL     1      -1.461  -0.611   0.004  0.00  0.00    +0.055 C 
ENDBRANCH  25  27
ENDBRANCH  21  25
ENDBRANCH  20  23
ENDBRANCH  16  20
ENDBRANCH   1  18
TORSDOF 7
