REMARK  Name = ZINC63686323
REMARK  5 active torsions:
REMARK  status: ('A' for Active; 'I' for Inactive)
REMARK    1  A    between atoms: C_4  and  N_7
REMARK    2  A    between atoms: N_7  and  C_8
REMARK    3  A    between atoms: C_11  and  C_30
REMARK    4  A    between atoms: C_13  and  N_16
REMARK    5  A    between atoms: C_17  and  C_19
REMARK                            x       y       z     vdW  Elec       q    Type
REMARK                         _______ _______ _______ _____ _____    ______ ____
ROOT
ATOM      1  C   UNL     1       3.641  -2.114  -0.044  0.00  0.00    +0.202 C 
ATOM      2  N   UNL     1       5.013  -2.633  -0.332  0.00  0.00    -0.277 NA
ATOM      3  C   UNL     1       5.133  -4.028   0.131  0.00  0.00    +0.173 C 
ATOM      4  C   UNL     1       4.612  -4.160   1.586  0.00  0.00    +0.160 C 
ATOM      5  S   UNL     1       3.375  -2.795   1.649  0.00  0.00    -0.099 S 
ATOM      6  H   UNL     1       5.229  -2.558  -1.315  0.00  0.00    +0.125 HD
ENDROOT
BRANCH   3   7
ATOM      7  C   UNL     1       6.580  -4.447   0.081  0.00  0.00    +0.230 C 
ATOM      8  O   UNL     1       7.453  -3.606   0.032  0.00  0.00    -0.274 OA
ATOM      9  N   UNL     1       6.904  -5.755   0.091  0.00  0.00    -0.328 N 
ATOM     10  H   UNL     1       6.205  -6.427   0.131  0.00  0.00    +0.145 HD
ATOM     11  H   UNL     1       7.835  -6.024   0.059  0.00  0.00    +0.145 HD
ENDBRANCH   3   7
BRANCH   4  12
ATOM     12  N   UNL     1       3.974  -5.461   1.801  0.00  0.00    -0.300 N 
ATOM     13  C   UNL     1       4.247  -6.170   2.914  0.00  0.00    +0.240 C 
ATOM     14  O   UNL     1       5.022  -5.731   3.738  0.00  0.00    -0.273 OA
ATOM     15  H   UNL     1       3.354  -5.811   1.143  0.00  0.00    +0.150 HD
BRANCH  13  16
ATOM     16  C   UNL     1       3.590  -7.508   3.136  0.00  0.00    +0.190 C 
ATOM     17  C   UNL     1       2.090  -7.342   3.237  0.00  0.00    +0.016 C 
ATOM     18  C   UNL     1       1.746  -7.783   4.468  0.00  0.00    -0.002 A 
ATOM     19  C   UNL     1       0.458  -7.882   5.165  0.00  0.00    +0.029 A 
ATOM     20  C   UNL     1       0.429  -8.378   6.423  0.00  0.00    +0.042 A 
ATOM     21  C   UNL     1       1.597  -8.798   7.077  0.00  0.00    +0.022 A 
ATOM     22  C   UNL     1       2.817  -8.737   6.502  0.00  0.00    +0.027 A 
ATOM     23  C   UNL     1       2.964  -8.233   5.180  0.00  0.00    +0.043 A 
ATOM     24  N   UNL     1       4.021  -8.077   4.418  0.00  0.00    -0.370 N 
ATOM     25 CL   UNL     1      -1.092  -8.496   7.251  0.00  0.00    -0.084 Cl
ATOM     26  H   UNL     1       4.933  -8.299   4.661  0.00  0.00    +0.161 HD
ENDBRANCH  13  16
ENDBRANCH   4  12
BRANCH   1  27
ATOM     27  N   UNL     1       3.620  -0.649  -0.036  0.00  0.00    -0.320 N 
ATOM     28  H   UNL     1       4.452  -0.152  -0.042  0.00  0.00    +0.148 HD
BRANCH  27  32
ATOM     29  C   UNL     1      -0.017   1.379   0.010  0.00  0.00    +0.000 A 
ATOM     30  C   UNL     1       1.169   2.089   0.002  0.00  0.00    +0.002 A 
ATOM     31  C   UNL     1       2.377   1.420  -0.013  0.00  0.00    +0.023 A 
ATOM     32  C   UNL     1       2.400   0.031  -0.021  0.00  0.00    +0.029 A 
ATOM     33  C   UNL     1       1.206  -0.680  -0.013  0.00  0.00    +0.023 A 
ATOM     34  C   UNL     1       0.002  -0.004   0.002  0.00  0.00    +0.002 A 
ENDBRANCH  27  32
ENDBRANCH   1  27
TORSDOF 5
