REMARK  Name = ZINC66906262
REMARK  7 active torsions:
REMARK  status: ('A' for Active; 'I' for Inactive)
REMARK    1  A    between atoms: C_10  and  C_11
REMARK    2  A    between atoms: C_10  and  O_24
REMARK    3  A    between atoms: C_11  and  N_12
REMARK    4  A    between atoms: N_12  and  C_13
REMARK    5  A    between atoms: C_13  and  C_14
REMARK    6  A    between atoms: C_16  and  N_21
REMARK    7  A    between atoms: C_19  and  O_20
REMARK                            x       y       z     vdW  Elec       q    Type
REMARK                         _______ _______ _______ _____ _____    ______ ____
ROOT
ATOM      1  N   UNL     1       4.733   1.481  -0.621  0.00  0.00    +0.384 N 
ATOM      2  H   UNL     1       3.800   1.863  -0.595  0.00  0.00    -0.085 HD
ATOM      3  H   UNL     1       5.160   1.575   0.289  0.00  0.00    -0.085 HD
ENDROOT
BRANCH   1   4
ATOM      4  C   UNL     1       4.671   0.060  -0.987  0.00  0.00    -0.042 C 
BRANCH   4  14
ATOM      5  C   UNL     1       3.661  -4.804  -1.137  0.00  0.00    +0.000 A 
ATOM      6  C   UNL     1       3.646  -3.812  -2.101  0.00  0.00    +0.000 A 
ATOM      7  C   UNL     1       3.670  -2.486  -1.719  0.00  0.00    +0.006 A 
ATOM      8  C   UNL     1       3.712  -2.139  -0.375  0.00  0.00    -0.015 A 
ATOM      9  C   UNL     1       3.732  -3.127   0.584  0.00  0.00    -0.042 A 
ATOM     10  C   UNL     1       3.703  -4.461   0.198  0.00  0.00    +0.004 A 
ATOM     11  C   UNL     1       3.793  -2.824   2.058  0.00  0.00    +0.035 C 
ATOM     12  C   UNL     1       3.388  -1.376   2.327  0.00  0.00    +0.008 C 
ATOM     13  C   UNL     1       4.209  -0.466   1.406  0.00  0.00    +0.038 C 
ATOM     14  C   UNL     1       3.729  -0.673  -0.029  0.00  0.00    +0.076 C 
BRANCH  14  15
ATOM     15  O   UNL     1       2.410  -0.141  -0.167  0.00  0.00    -0.386 OA
ATOM     16  H   UNL     1       2.045  -0.221  -1.058  0.00  0.00    +0.211 HD
ENDBRANCH  14  15
ENDBRANCH   4  14
ENDBRANCH   1   4
BRANCH   1  17
ATOM     17  C   UNL     1       5.533   2.208  -1.615  0.00  0.00    -0.043 C 
BRANCH  17  18
ATOM     18  C   UNL     1       5.597   3.666  -1.239  0.00  0.00    -0.021 A 
ATOM     19  C   UNL     1       6.756   4.191  -0.701  0.00  0.00    +0.038 A 
ATOM     20  C   UNL     1       6.816   5.529  -0.356  0.00  0.00    +0.127 A 
ATOM     21  C   UNL     1       5.716   6.344  -0.548  0.00  0.00    +0.036 A 
ATOM     22  C   UNL     1       4.554   5.824  -1.085  0.00  0.00    +0.048 A 
ATOM     23  C   UNL     1       4.494   4.484  -1.437  0.00  0.00    +0.118 A 
BRANCH  20  24
ATOM     24  N   UNL     1       8.059   6.088   0.220  0.00  0.00    +0.056 N 
ATOM     25  O   UNL     1       9.021   5.376   0.388  0.00  0.00    -0.126 OA
ATOM     26  O   UNL     1       8.112   7.258   0.522  0.00  0.00    -0.126 OA
ENDBRANCH  20  24
BRANCH  23  27
ATOM     27  O   UNL     1       3.354   3.970  -1.970  0.00  0.00    -0.507 OA
ATOM     28  H   UNL     1       2.733   3.626  -1.314  0.00  0.00    +0.292 HD
ENDBRANCH  23  27
ENDBRANCH  17  18
ENDBRANCH   1  17
TORSDOF 7
