REMARK  Name = ZINC38052722
REMARK  3 active torsions:
REMARK  status: ('A' for Active; 'I' for Inactive)
REMARK    1  A    between atoms: C_1  and  C_2
REMARK    2  A    between atoms: C_9  and  C_11
REMARK    3  A    between atoms: C_16  and  N_17
REMARK                            x       y       z     vdW  Elec       q    Type
REMARK                         _______ _______ _______ _____ _____    ______ ____
ROOT
ATOM      1  C   UNL     1       0.205   1.408  -0.034  0.00  0.00    +0.046 C 
ATOM      2  C   UNL     1       0.061  -0.092  -0.018  0.00  0.00    -0.021 A 
ATOM      3  C   UNL     1      -0.029  -0.790  -1.202  0.00  0.00    +0.005 A 
ATOM      4  C   UNL     1      -0.162  -2.170  -1.195  0.00  0.00    +0.004 A 
ATOM      5  C   UNL     1      -0.206  -2.863  -0.002  0.00  0.00    +0.048 A 
ATOM      6  C   UNL     1      -0.117  -2.178   1.199  0.00  0.00    +0.156 A 
ATOM      7  C   UNL     1       0.024  -0.780   1.196  0.00  0.00    +0.113 A 
ATOM      8  N   UNL     1       0.093  -0.393   2.496  0.00  0.00    -0.209 NA
ATOM      9  C   UNL     1       0.009  -1.456   3.257  0.00  0.00    +0.230 A 
ATOM     10  O   UNL     1      -0.129  -2.558   2.496  0.00  0.00    -0.435 OA
ENDROOT
BRANCH   9  11
ATOM     11  C   UNL     1       0.045  -1.445   4.732  0.00  0.00    +0.058 A 
ATOM     12  C   UNL     1      -0.741  -0.539   5.448  0.00  0.00    +0.016 A 
ATOM     13  C   UNL     1      -0.703  -0.534   6.825  0.00  0.00    +0.016 A 
ATOM     14  C   UNL     1       0.112  -1.425   7.506  0.00  0.00    +0.020 A 
ATOM     15  C   UNL     1       0.895  -2.326   6.812  0.00  0.00    +0.038 A 
ATOM     16  C   UNL     1       0.865  -2.349   5.424  0.00  0.00    +0.038 A 
ATOM     17 BR   UNL     1       0.153  -1.405   9.397  0.00  0.00    -0.050 Br
BRANCH  16  18
ATOM     18  N   UNL     1       1.649  -3.260   4.722  0.00  0.00    -0.357 N 
ATOM     19  H   UNL     1       1.700  -3.212   3.755  0.00  0.00    +0.142 HD
ATOM     20  H   UNL     1       2.144  -3.944   5.201  0.00  0.00    +0.142 HD
ENDBRANCH  16  18
ENDBRANCH   9  11
TORSDOF 2
