REMARK  Name = ZINC61683809
REMARK  5 active torsions:
REMARK  status: ('A' for Active; 'I' for Inactive)
REMARK    1  A    between atoms: C_1  and  C_2
REMARK    2  A    between atoms: C_2  and  C_3
REMARK    3  A    between atoms: C_2  and  N_4
REMARK    4  A    between atoms: C_6  and  N_9
REMARK    5  A    between atoms: C_10  and  C_15
REMARK                            x       y       z     vdW  Elec       q    Type
REMARK                         _______ _______ _______ _____ _____    ______ ____
ROOT
ATOM      1  N   UNL     1      -4.435  -1.508   1.516  0.00  0.00    -0.266 N 
ATOM      2  C   UNL     1      -4.980  -2.758   1.716  0.00  0.00    +0.176 A 
ATOM      3  N   UNL     1      -5.980  -2.611   2.558  0.00  0.00    -0.127 NA
ATOM      4  N   UNL     1      -6.095  -1.376   2.892  0.00  0.00    -0.121 NA
ATOM      5  C   UNL     1      -5.175  -0.656   2.290  0.00  0.00    +0.207 A 
ATOM      6  S   UNL     1      -4.941   1.083   2.446  0.00  0.00    -0.009 SA
ENDROOT
BRANCH   1   9
ATOM      7  N   UNL     1      -1.372  -0.511   0.012  0.00  0.00    -0.267 N 
ATOM      8  C   UNL     1      -2.142  -0.698   1.108  0.00  0.00    +0.134 A 
ATOM      9  C   UNL     1      -3.342  -1.178   0.691  0.00  0.00    +0.088 A 
ATOM     10  C   UNL     1      -3.298  -1.286  -0.707  0.00  0.00    +0.160 A 
ATOM     11  N   UNL     1      -2.122  -0.882  -1.111  0.00  0.00    -0.177 NA
BRANCH   7  13
ATOM     12  C   UNL     1      -0.019   1.526   0.010  0.00  0.00    +0.032 C 
ATOM     13  C   UNL     1       0.002  -0.004   0.002  0.00  0.00    +0.101 C 
ATOM     14  C   UNL     1       0.742  -0.511   1.242  0.00  0.00    +0.032 C 
ENDBRANCH   7  13
ENDBRANCH   1   9
BRANCH   2  15
ATOM     15  C   UNL     1      -4.528  -4.018   1.105  0.00  0.00    +0.057 A 
ATOM     16  C   UNL     1      -4.835  -5.309   1.456  0.00  0.00    +0.019 A 
ATOM     17  C   UNL     1      -4.286  -6.340   0.728  0.00  0.00    +0.008 A 
ATOM     18  C   UNL     1      -3.461  -6.051  -0.312  0.00  0.00    +0.046 A 
ATOM     19  S   UNL     1      -3.445  -4.266  -0.293  0.00  0.00    -0.094 S 
ENDBRANCH   2  15
TORSDOF 3
