REMARK  Name = ZINC67129442
REMARK  7 active torsions:
REMARK  status: ('A' for Active; 'I' for Inactive)
REMARK    1  A    between atoms: C_1  and  C_2
REMARK    2  A    between atoms: C_2  and  C_3
REMARK    3  A    between atoms: C_6  and  C_9
REMARK    4  A    between atoms: C_11  and  C_14
REMARK    5  A    between atoms: C_14  and  N_15
REMARK    6  A    between atoms: C_17  and  O_25
REMARK    7  A    between atoms: C_20  and  C_22
REMARK                            x       y       z     vdW  Elec       q    Type
REMARK                         _______ _______ _______ _____ _____    ______ ____
ROOT
ATOM      1  C   UNL     1       5.893  -2.849  -6.260  0.00  0.00    -0.021 C 
ENDROOT
BRANCH   1   2
ATOM      2  N   UNL     1       6.609  -1.610  -6.590  0.00  0.00    +0.393 N 
ATOM      3  C   UNL     1       6.623  -0.703  -5.422  0.00  0.00    -0.046 C 
ATOM      4  C   UNL     1       7.979   0.027  -5.433  0.00  0.00    +0.097 C 
ATOM      5  C   UNL     1       8.736  -0.545  -6.653  0.00  0.00    +0.023 C 
ATOM      6  C   UNL     1       8.034  -1.906  -6.889  0.00  0.00    +0.022 C 
ATOM      7  H   UNL     1       6.175  -1.156  -7.379  0.00  0.00    -0.080 HD
BRANCH   6   8
ATOM      8  C   UNL     1       8.196  -2.347  -8.321  0.00  0.00    +0.197 C 
ATOM      9  O   UNL     1       7.227  -2.417  -9.047  0.00  0.00    -0.278 OA
ATOM     10  N   UNL     1       9.417  -2.664  -8.794  0.00  0.00    -0.331 N 
ATOM     11  H   UNL     1      10.192  -2.608  -8.213  0.00  0.00    +0.145 HD
ATOM     12  H   UNL     1       9.521  -2.948  -9.716  0.00  0.00    +0.145 HD
ENDBRANCH   6   8
BRANCH   4  13
ATOM     13  O   UNL     1       7.784   1.435  -5.583  0.00  0.00    -0.394 OA
ATOM     14  H   UNL     1       8.604   1.946  -5.597  0.00  0.00    +0.210 HD
ENDBRANCH   4  13
ENDBRANCH   1   2
BRANCH   1  17
ATOM     15  C   UNL     1       2.696  -1.859  -4.733  0.00  0.00    +0.108 A 
ATOM     16  N   UNL     1       3.980  -2.131  -4.919  0.00  0.00    -0.246 NA
ATOM     17  C   UNL     1       4.427  -2.549  -6.079  0.00  0.00    +0.033 A 
ATOM     18  C   UNL     1       3.566  -2.712  -7.118  0.00  0.00    +0.068 A 
ATOM     19  S   UNL     1       2.025  -2.232  -6.348  0.00  0.00    -0.075 S 
BRANCH  15  23
ATOM     20  C   UNL     1       0.707  -0.490  -1.238  0.00  0.00    -0.048 A 
ATOM     21  C   UNL     1      -0.014  -0.718  -2.396  0.00  0.00    +0.004 A 
ATOM     22  C   UNL     1       0.626  -1.162  -3.535  0.00  0.00    +0.011 A 
ATOM     23  C   UNL     1       2.004  -1.382  -3.516  0.00  0.00    +0.007 A 
ATOM     24  C   UNL     1       2.726  -1.151  -2.345  0.00  0.00    +0.011 A 
ATOM     25  C   UNL     1       2.075  -0.701  -1.214  0.00  0.00    +0.004 A 
BRANCH  20  27
ATOM     26  C   UNL     1      -0.019   1.526   0.010  0.00  0.00    +0.009 C 
ATOM     27  C   UNL     1       0.002  -0.004   0.002  0.00  0.00    +0.032 C 
ENDBRANCH  20  27
ENDBRANCH  15  23
ENDBRANCH   1  17
TORSDOF 6
