REMARK  Name = ZINC06080921
REMARK  13 active torsions:
REMARK  status: ('A' for Active; 'I' for Inactive)
REMARK    1  A    between atoms: C_1  and  C_2
REMARK    2  A    between atoms: C_2  and  C_3
REMARK    3  A    between atoms: C_2  and  C_4
REMARK    4  A    between atoms: C_4  and  N_5
REMARK    5  A    between atoms: C_6  and  N_28
REMARK    6  A    between atoms: C_7  and  C_14
REMARK    7  A    between atoms: N_10  and  C_13
REMARK    8  A    between atoms: C_14  and  C_16
REMARK    9  A    between atoms: C_16  and  O_17
REMARK   10  A    between atoms: O_17  and  C_18
REMARK   11  A    between atoms: C_18  and  C_20
REMARK   12  A    between atoms: C_23  and  O_27
REMARK   13  A    between atoms: C_25  and  O_26
REMARK                            x       y       z     vdW  Elec       q    Type
REMARK                         _______ _______ _______ _____ _____    ______ ____
ROOT
ATOM      1  N   UNL     1      -1.424  -2.008  -0.003  0.00  0.00    -0.281 N 
ATOM      2  C   UNL     1      -1.470  -2.466  -1.289  0.00  0.00    +0.116 A 
ATOM      3  C   UNL     1      -1.445  -3.852  -1.519  0.00  0.00    +0.123 A 
ATOM      4  C   UNL     1      -1.369  -4.740  -0.352  0.00  0.00    +0.269 A 
ATOM      5  O   UNL     1      -1.344  -5.949  -0.491  0.00  0.00    -0.267 OA
ATOM      6  N   UNL     1      -1.329  -4.188   0.879  0.00  0.00    -0.263 N 
ATOM      7  C   UNL     1      -1.351  -2.854   1.036  0.00  0.00    +0.333 A 
ATOM      8  O   UNL     1      -1.308  -2.397   2.162  0.00  0.00    -0.246 OA
ATOM      9  C   UNL     1      -1.253  -5.054   2.058  0.00  0.00    +0.157 C 
ENDROOT
BRANCH   2  10
ATOM     10  N   UNL     1      -1.540  -1.593  -2.331  0.00  0.00    -0.344 N 
ATOM     11  H   UNL     1      -1.637  -0.643  -2.162  0.00  0.00    +0.144 HD
ATOM     12  H   UNL     1      -1.493  -1.922  -3.243  0.00  0.00    +0.144 HD
ENDBRANCH   2  10
BRANCH   3  13
ATOM     13  C   UNL     1      -1.490  -4.374  -2.829  0.00  0.00    +0.209 C 
ATOM     14  O   UNL     1      -1.446  -3.624  -3.784  0.00  0.00    -0.288 OA
BRANCH  13  15
ATOM     15  C   UNL     1      -1.595  -5.862  -3.044  0.00  0.00    +0.312 C 
BRANCH  15  16
ATOM     16  O   UNL     1      -1.624  -6.140  -4.446  0.00  0.00    -0.453 OA
BRANCH  16  17
ATOM     17  C   UNL     1      -1.716  -7.434  -4.811  0.00  0.00    +0.343 C 
ATOM     18  O   UNL     1      -1.770  -8.303  -3.963  0.00  0.00    -0.245 OA
BRANCH  17  19
ATOM     19  C   UNL     1      -1.752  -7.795  -6.237  0.00  0.00    +0.100 A 
ATOM     20  C   UNL     1      -1.684  -6.798  -7.216  0.00  0.00    +0.022 A 
ATOM     21  C   UNL     1      -1.717  -7.134  -8.539  0.00  0.00    +0.046 A 
ATOM     22  C   UNL     1      -1.819  -8.468  -8.924  0.00  0.00    +0.120 A 
ATOM     23  C   UNL     1      -1.886  -9.469  -7.966  0.00  0.00    +0.091 A 
ATOM     24  C   UNL     1      -1.847  -9.142  -6.622  0.00  0.00    +0.134 A 
BRANCH  24  25
ATOM     25  O   UNL     1      -1.908 -10.117  -5.680  0.00  0.00    -0.506 OA
ATOM     26  H   UNL     1      -2.806 -10.339  -5.401  0.00  0.00    +0.292 HD
ENDBRANCH  24  25
BRANCH  22  27
ATOM     27  O   UNL     1      -1.851  -8.790 -10.242  0.00  0.00    -0.507 OA
ATOM     28  H   UNL     1      -0.980  -8.948 -10.630  0.00  0.00    +0.292 HD
ENDBRANCH  22  27
ENDBRANCH  17  19
ENDBRANCH  16  17
ENDBRANCH  15  16
ENDBRANCH  13  15
ENDBRANCH   3  13
BRANCH   1  29
ATOM     29  C   UNL     1      -1.450  -0.565   0.247  0.00  0.00    +0.131 C 
BRANCH  29  31
ATOM     30  C   UNL     1      -0.050   1.499   0.399  0.00  0.00    +0.009 C 
ATOM     31  C   UNL     1      -0.018  -0.025   0.263  0.00  0.00    +0.003 C 
ATOM     32  C   UNL     1       0.741  -0.627   1.446  0.00  0.00    +0.009 C 
ENDBRANCH  29  31
ENDBRANCH   1  29
TORSDOF 10
