REMARK  Name = ZINC39976716
REMARK  9 active torsions:
REMARK  status: ('A' for Active; 'I' for Inactive)
REMARK    1  A    between atoms: C_1  and  C_2
REMARK    2  A    between atoms: C_7  and  C_9
REMARK    3  A    between atoms: C_9  and  C_11
REMARK    4  A    between atoms: C_9  and  N_12
REMARK    5  A    between atoms: C_13  and  C_15
REMARK    6  A    between atoms: C_19  and  O_27
REMARK    7  A    between atoms: C_22  and  O_25
REMARK    8  A    between atoms: O_25  and  C_26
REMARK    9  A    between atoms: O_27  and  C_28
REMARK                            x       y       z     vdW  Elec       q    Type
REMARK                         _______ _______ _______ _____ _____    ______ ____
ROOT
ATOM      1  N   UNL     1      -6.213   3.721  -5.139  0.00  0.00    -0.303 N 
ATOM      2  C   UNL     1      -7.436   3.574  -5.685  0.00  0.00    +0.234 C 
ATOM      3  O   UNL     1      -8.328   3.058  -5.046  0.00  0.00    -0.274 OA
ATOM      4  H   UNL     1      -5.499   4.133  -5.650  0.00  0.00    +0.149 HD
ENDROOT
BRANCH   2   5
ATOM      5  C   UNL     1      -7.695   4.050  -7.091  0.00  0.00    +0.161 C 
ATOM      6  C   UNL     1      -7.203   3.006  -8.107  0.00  0.00    +0.072 C 
ATOM      7  C   UNL     1      -8.445   2.601  -8.869  0.00  0.00    +0.021 A 
ATOM      8  C   UNL     1      -8.621   1.695  -9.905  0.00  0.00    +0.125 A 
ATOM      9  C   UNL     1      -9.881   1.495 -10.447  0.00  0.00    +0.049 A 
ATOM     10  C   UNL     1     -10.963   2.200  -9.952  0.00  0.00    +0.051 A 
ATOM     11  C   UNL     1     -10.791   3.103  -8.920  0.00  0.00    +0.141 A 
ATOM     12  C   UNL     1      -9.521   3.312  -8.367  0.00  0.00    +0.077 A 
ATOM     13  N   UNL     1      -9.136   4.171  -7.330  0.00  0.00    -0.330 N 
ATOM     14  H   UNL     1      -9.733   4.758  -6.841  0.00  0.00    +0.147 HD
BRANCH  11  15
ATOM     15  O   UNL     1     -11.861   3.792  -8.438  0.00  0.00    -0.493 OA
ATOM     16  C   UNL     1     -13.128   3.533  -9.047  0.00  0.00    +0.277 C 
ENDBRANCH  11  15
BRANCH   8  17
ATOM     17  O   UNL     1      -7.556   1.003 -10.390  0.00  0.00    -0.495 OA
ATOM     18  C   UNL     1      -7.809   0.087 -11.457  0.00  0.00    +0.277 C 
ENDBRANCH   8  17
ENDBRANCH   2   5
BRANCH   1  19
ATOM     19  C   UNL     1      -5.961   3.257  -3.772  0.00  0.00    +0.156 C 
ATOM     20  C   UNL     1      -6.374   4.347  -2.780  0.00  0.00    +0.038 C 
BRANCH  19  27
ATOM     21  C   UNL     1      -0.013   1.086   0.008  0.00  0.00    +0.066 C 
ATOM     22  C   UNL     1      -0.742   1.585  -1.213  0.00  0.00    +0.047 A 
ATOM     23  C   UNL     1      -0.089   1.831  -2.376  0.00  0.00    +0.071 A 
ATOM     24  S   UNL     1      -1.441   2.377  -3.406  0.00  0.00    -0.060 S 
ATOM     25  C   UNL     1      -2.673   2.237  -2.268  0.00  0.00    +0.165 A 
ATOM     26  N   UNL     1      -4.026   2.514  -2.421  0.00  0.00    -0.263 N 
ATOM     27  C   UNL     1      -4.494   2.957  -3.605  0.00  0.00    +0.239 C 
ATOM     28  O   UNL     1      -3.733   3.115  -4.537  0.00  0.00    -0.273 OA
ATOM     29  N   UNL     1      -2.045   1.797  -1.200  0.00  0.00    -0.230 NA
ATOM     30  H   UNL     1      -4.635   2.388  -1.677  0.00  0.00    +0.157 HD
ENDBRANCH  19  27
ENDBRANCH   1  19
TORSDOF 5
