REMARK  Name = ZINC60355943
REMARK  4 active torsions:
REMARK  status: ('A' for Active; 'I' for Inactive)
REMARK    1  A    between atoms: C_8  and  C_11
REMARK    2  A    between atoms: N_16  and  C_19
REMARK    3  A    between atoms: C_22  and  N_27
REMARK    4  A    between atoms: C_24  and  C_25
REMARK                            x       y       z     vdW  Elec       q    Type
REMARK                         _______ _______ _______ _____ _____    ______ ____
ROOT
ATOM      1  C   UNL     1       3.713  -3.383  -0.051  0.00  0.00    +0.263 C 
ATOM      2  O   UNL     1       3.148  -4.456   0.050  0.00  0.00    -0.268 OA
ATOM      3  N   UNL     1       5.055  -3.337  -0.166  0.00  0.00    -0.293 N 
ATOM      4  C   UNL     1       5.763  -2.049  -0.163  0.00  0.00    +0.127 C 
ATOM      5  C   UNL     1       6.825  -2.077   0.943  0.00  0.00    +0.124 C 
ATOM      6  N   UNL     1       7.607  -3.314   0.813  0.00  0.00    -0.326 N 
ATOM      7  C   UNL     1       6.900  -4.602   0.809  0.00  0.00    +0.124 C 
ATOM      8  C   UNL     1       5.838  -4.575  -0.291  0.00  0.00    +0.127 C 
ENDROOT
BRANCH   1  16
ATOM      9  C   UNL     1       0.149   1.463   0.424  0.00  0.00    +0.001 A 
ATOM     10  C   UNL     1       0.973   1.963  -0.577  0.00  0.00    +0.002 A 
ATOM     11  C   UNL     1       2.010   1.206  -1.076  0.00  0.00    +0.026 A 
ATOM     12  C   UNL     1       2.238  -0.072  -0.573  0.00  0.00    +0.047 A 
ATOM     13  C   UNL     1       1.402  -0.576   0.442  0.00  0.00    +0.000 A 
ATOM     14  C   UNL     1       0.353   0.213   0.932  0.00  0.00    +0.010 A 
ATOM     15  C   UNL     1       1.865  -1.878   0.750  0.00  0.00    +0.040 A 
ATOM     16  C   UNL     1       2.932  -2.137  -0.049  0.00  0.00    +0.103 A 
ATOM     17  N   UNL     1       3.168  -1.043  -0.859  0.00  0.00    -0.351 N 
ATOM     18  H   UNL     1       3.873  -0.972  -1.522  0.00  0.00    +0.166 HD
ENDBRANCH   1  16
BRANCH   6  19
ATOM     19  C   UNL     1       8.992  -3.267   0.694  0.00  0.00    +0.047 A 
ATOM     20  C   UNL     1       9.791  -3.309   1.829  0.00  0.00    +0.026 A 
ATOM     21  C   UNL     1      11.165  -3.261   1.709  0.00  0.00    +0.034 A 
ATOM     22  C   UNL     1      11.758  -3.172   0.460  0.00  0.00    +0.128 A 
ATOM     23  C   UNL     1      10.981  -3.129  -0.678  0.00  0.00    +0.053 A 
ATOM     24  C   UNL     1       9.589  -3.182  -0.573  0.00  0.00    +0.075 A 
BRANCH  22  25
ATOM     25  N   UNL     1      13.233  -3.122   0.346  0.00  0.00    +0.056 N 
ATOM     26  O   UNL     1      13.917  -3.159   1.342  0.00  0.00    -0.126 OA
ATOM     27  O   UNL     1      13.753  -3.043  -0.742  0.00  0.00    -0.126 OA
ENDBRANCH  22  25
BRANCH  24  28
ATOM     28  C   UNL     1       8.776  -3.143  -1.752  0.00  0.00    +0.101 C 
ATOM     29  N   UNL     1       8.131  -3.113  -2.686  0.00  0.00    -0.191 NA
ENDBRANCH  24  28
ENDBRANCH   6  19
TORSDOF 4
