REMARK  Name = ZINC15947306
REMARK  12 active torsions:
REMARK  status: ('A' for Active; 'I' for Inactive)
REMARK    1  A    between atoms: C_1  and  C_2
REMARK    2  A    between atoms: C_2  and  C_3
REMARK    3  A    between atoms: C_3  and  N_4
REMARK    4  A    between atoms: C_13  and  C_15
REMARK    5  A    between atoms: N_17  and  N_18
REMARK    6  A    between atoms: C_19  and  C_21
REMARK    7  A    between atoms: C_22  and  C_23
REMARK    8  A    between atoms: C_25  and  O_32
REMARK    9  A    between atoms: C_26  and  O_30
REMARK   10  A    between atoms: O_30  and  C_31
REMARK   11  A    between atoms: O_32  and  C_33
REMARK   12  A    between atoms: C_33  and  C_34
REMARK                            x       y       z     vdW  Elec       q    Type
REMARK                         _______ _______ _______ _____ _____    ______ ____
ROOT
ATOM      1  C   UNL     1       1.483   6.026   2.575  0.00  0.00    +0.281 C 
ATOM      2  O   UNL     1       1.570   7.237   2.640  0.00  0.00    -0.267 OA
ATOM      3  N   UNL     1       2.447   5.251   3.110  0.00  0.00    -0.229 N 
ATOM      4  H   UNL     1       2.377   4.285   3.058  0.00  0.00    +0.173 HD
ENDROOT
BRANCH   1  14
ATOM      5  N   UNL     1      -0.755   3.484   1.277  0.00  0.00    -0.228 N 
ATOM      6  C   UNL     1      -1.795   4.112   0.692  0.00  0.00    +0.275 A 
ATOM      7  O   UNL     1      -2.693   3.475   0.171  0.00  0.00    -0.266 OA
ATOM      8  C   UNL     1      -1.823   5.581   0.702  0.00  0.00    +0.050 A 
ATOM      9  C   UNL     1      -2.852   6.322   0.130  0.00  0.00    +0.014 A 
ATOM     10  C   UNL     1      -2.800   7.699   0.177  0.00  0.00    +0.001 A 
ATOM     11  C   UNL     1      -1.736   8.348   0.788  0.00  0.00    +0.001 A 
ATOM     12  C   UNL     1      -0.705   7.632   1.359  0.00  0.00    +0.011 A 
ATOM     13  C   UNL     1      -0.738   6.242   1.323  0.00  0.00    +0.020 A 
ATOM     14  C   UNL     1       0.320   5.404   1.910  0.00  0.00    +0.155 A 
ATOM     15  N   UNL     1       0.218   4.100   1.835  0.00  0.00    -0.163 NA
BRANCH   5  16
ATOM     16  C   UNL     1      -0.735   2.019   1.269  0.00  0.00    +0.147 C 
BRANCH  16  18
ATOM     17  C   UNL     1       0.002  -0.004   0.002  0.00  0.00    +0.005 C 
ATOM     18  C   UNL     1      -0.019   1.526   0.010  0.00  0.00    +0.020 C 
ENDBRANCH  16  18
ENDBRANCH   5  16
ENDBRANCH   1  14
BRANCH   3  19
ATOM     19  N   UNL     1       3.550   5.841   3.741  0.00  0.00    -0.231 N 
ATOM     20  C   UNL     1       4.514   5.066   4.276  0.00  0.00    +0.253 C 
ATOM     21  O   UNL     1       4.427   3.854   4.210  0.00  0.00    -0.269 OA
ATOM     22  H   UNL     1       3.620   6.807   3.793  0.00  0.00    +0.173 HD
BRANCH  20  23
ATOM     23  C   UNL     1       5.666   5.682   4.934  0.00  0.00    +0.069 C 
ATOM     24  C   UNL     1       6.631   4.905   5.470  0.00  0.00    +0.013 C 
BRANCH  24  25
ATOM     25  C   UNL     1       7.789   5.524   6.132  0.00  0.00    -0.020 A 
ATOM     26  C   UNL     1       8.792   4.721   6.688  0.00  0.00    +0.057 A 
ATOM     27  C   UNL     1       9.877   5.308   7.309  0.00  0.00    +0.164 A 
ATOM     28  C   UNL     1       9.972   6.697   7.382  0.00  0.00    +0.180 A 
ATOM     29  C   UNL     1       8.978   7.495   6.831  0.00  0.00    +0.087 A 
ATOM     30  C   UNL     1       7.894   6.918   6.203  0.00  0.00    +0.031 A 
ATOM     31 CL   UNL     1       9.103   9.224   6.926  0.00  0.00    -0.080 Cl
BRANCH  28  32
ATOM     32  O   UNL     1      11.041   7.271   7.993  0.00  0.00    -0.490 OA
ATOM     33  C   UNL     1      12.177   7.560   7.177  0.00  0.00    +0.277 C 
ENDBRANCH  28  32
BRANCH  27  34
ATOM     34  O   UNL     1      10.852   4.530   7.850  0.00  0.00    -0.489 OA
BRANCH  34  35
ATOM     35  C   UNL     1      10.690   3.115   7.739  0.00  0.00    +0.226 C 
ATOM     36  C   UNL     1      11.877   2.412   8.400  0.00  0.00    +0.048 C 
ENDBRANCH  34  35
ENDBRANCH  27  34
ENDBRANCH  24  25
ENDBRANCH  20  23
ENDBRANCH   3  19
TORSDOF 9
