REMARK  Name = ZINC26509939
REMARK  10 active torsions:
REMARK  status: ('A' for Active; 'I' for Inactive)
REMARK    1  A    between atoms: C_4  and  O_7
REMARK    2  A    between atoms: O_7  and  C_8
REMARK    3  A    between atoms: C_12  and  C_14
REMARK    4  A    between atoms: C_14  and  C_16
REMARK    5  A    between atoms: C_14  and  N_32
REMARK    6  A    between atoms: C_16  and  C_17
REMARK    7  A    between atoms: N_19  and  N_20
REMARK    8  A    between atoms: C_21  and  C_23
REMARK    9  A    between atoms: C_23  and  O_24
REMARK   10  A    between atoms: O_24  and  C_25
REMARK                            x       y       z     vdW  Elec       q    Type
REMARK                         _______ _______ _______ _____ _____    ______ ____
ROOT
ATOM      1  C   UNL     1       6.296  -4.681   0.144  0.00  0.00    +0.114 C 
ENDROOT
BRANCH   1   2
ATOM      2  N   UNL     1       6.335  -5.790  -0.813  0.00  0.00    -0.292 N 
ATOM      3  C   UNL     1       6.563  -5.546  -2.118  0.00  0.00    +0.298 C 
ATOM      4  O   UNL     1       6.832  -4.419  -2.488  0.00  0.00    -0.253 OA
ATOM      5  N   UNL     1       6.492  -6.550  -3.014  0.00  0.00    -0.313 N 
ATOM      6  H   UNL     1       6.196  -6.700  -0.506  0.00  0.00    +0.151 HD
ATOM      7  H   UNL     1       6.277  -7.449  -2.719  0.00  0.00    +0.146 HD
ATOM      8  H   UNL     1       6.656  -6.375  -3.954  0.00  0.00    +0.146 HD
ENDBRANCH   1   2
BRANCH   1  13
ATOM      9  C   UNL     1       3.566  -2.070   0.051  0.00  0.00    +0.129 A 
ATOM     10  C   UNL     1       2.428  -2.863   0.058  0.00  0.00    +0.046 A 
ATOM     11  C   UNL     1       2.546  -4.239   0.091  0.00  0.00    +0.004 A 
ATOM     12  C   UNL     1       3.798  -4.826   0.119  0.00  0.00    +0.006 A 
ATOM     13  C   UNL     1       4.934  -4.038   0.113  0.00  0.00    -0.023 A 
ATOM     14  C   UNL     1       4.821  -2.662   0.073  0.00  0.00    +0.051 A 
BRANCH   9  15
ATOM     15  O   UNL     1       3.452  -0.716   0.018  0.00  0.00    -0.456 OA
BRANCH  15  19
ATOM     16  C   UNL     1       2.542   1.238   3.535  0.00  0.00    +0.000 A 
ATOM     17  C   UNL     1       2.590  -0.143   3.506  0.00  0.00    +0.004 A 
ATOM     18  C   UNL     1       2.895  -0.800   2.329  0.00  0.00    +0.046 A 
ATOM     19  C   UNL     1       3.152  -0.073   1.176  0.00  0.00    +0.128 A 
ATOM     20  C   UNL     1       3.103   1.314   1.208  0.00  0.00    +0.046 A 
ATOM     21  C   UNL     1       2.798   1.966   2.387  0.00  0.00    +0.004 A 
ENDBRANCH  15  19
ENDBRANCH   9  15
ENDBRANCH   1  13
BRANCH   1  22
ATOM     22  C   UNL     1       6.578  -5.212   1.551  0.00  0.00    +0.124 C 
BRANCH  22  23
ATOM     23  C   UNL     1       7.986  -5.744   1.615  0.00  0.00    +0.231 C 
ATOM     24  O   UNL     1       8.695  -5.704   0.631  0.00  0.00    -0.274 OA
ATOM     25  N   UNL     1       8.459  -6.266   2.764  0.00  0.00    -0.234 N 
ATOM     26  H   UNL     1       7.892  -6.298   3.551  0.00  0.00    +0.173 HD
BRANCH  25  27
ATOM     27  N   UNL     1       9.768  -6.761   2.823  0.00  0.00    -0.232 N 
ATOM     28  C   UNL     1      10.240  -7.283   3.973  0.00  0.00    +0.267 C 
ATOM     29  O   UNL     1       9.531  -7.323   4.956  0.00  0.00    -0.271 OA
ATOM     30  H   UNL     1      10.335  -6.729   2.036  0.00  0.00    +0.173 HD
BRANCH  28  31
ATOM     31  C   UNL     1      11.648  -7.815   4.036  0.00  0.00    +0.326 C 
BRANCH  31  32
ATOM     32  O   UNL     1      11.912  -8.311   5.350  0.00  0.00    -0.483 OA
BRANCH  32  33
ATOM     33  C   UNL     1      13.147  -8.830   5.578  0.00  0.00    +0.121 A 
ATOM     34  C   UNL     1      14.087  -8.857   4.559  0.00  0.00    +0.048 A 
ATOM     35  C   UNL     1      15.342  -9.385   4.791  0.00  0.00    +0.042 A 
ATOM     36  C   UNL     1      15.662  -9.889   6.041  0.00  0.00    +0.124 A 
ATOM     37  C   UNL     1      14.724  -9.863   7.059  0.00  0.00    +0.042 A 
ATOM     38  C   UNL     1      13.470  -9.329   6.831  0.00  0.00    +0.048 A 
ATOM     39  F   UNL     1      16.889 -10.405   6.267  0.00  0.00    -0.205 F 
ENDBRANCH  32  33
ENDBRANCH  31  32
ENDBRANCH  28  31
ENDBRANCH  25  27
ENDBRANCH  22  23
ENDBRANCH   1  22
TORSDOF 10
