REMARK  Name = ZINC10215440
REMARK  4 active torsions:
REMARK  status: ('A' for Active; 'I' for Inactive)
REMARK    1  A    between atoms: C_11  and  S_13
REMARK    2  A    between atoms: S_13  and  C_14
REMARK    3  A    between atoms: C_14  and  C_15
REMARK    4  A    between atoms: C_15  and  C_16
REMARK                            x       y       z     vdW  Elec       q    Type
REMARK                         _______ _______ _______ _____ _____    ______ ____
ROOT
ATOM      1  C   UNL     1      -1.244   3.133   0.031  0.00  0.00    +0.001 A 
ATOM      2  C   UNL     1      -1.202   1.743   0.017  0.00  0.00    +0.002 A 
ATOM      3  C   UNL     1      -0.013   1.076   0.008  0.00  0.00    +0.028 A 
ATOM      4  C   UNL     1       1.191   1.795   0.000  0.00  0.00    +0.072 A 
ATOM      5  C   UNL     1       1.140   3.208   0.008  0.00  0.00    +0.014 A 
ATOM      6  C   UNL     1      -0.089   3.863   0.023  0.00  0.00    +0.011 A 
ATOM      7  C   UNL     1       2.543   3.645  -0.004  0.00  0.00    +0.061 C 
ATOM      8  C   UNL     1       3.030   4.965  -0.001  0.00  0.00    +0.218 C 
ATOM      9  N   UNL     1       2.286   6.088   0.012  0.00  0.00    -0.202 N 
ATOM     10  N   UNL     1       3.181   7.168   0.009  0.00  0.00    -0.135 NA
ATOM     11  C   UNL     1       4.389   6.681  -0.005  0.00  0.00    +0.274 C 
ATOM     12  O   UNL     1       4.321   5.336  -0.006  0.00  0.00    -0.415 OA
ATOM     13  C   UNL     1       3.294   2.456  -0.017  0.00  0.00    +0.125 C 
ATOM     14  N   UNL     1       2.483   1.425  -0.014  0.00  0.00    -0.254 NA
ATOM     15  H   UNL     1       1.202   6.272   0.024  0.00  0.00    +0.178 HD
ENDROOT
BRANCH  11  16
ATOM     16  S   UNL     1       5.874   7.630  -0.014  0.00  0.00    -0.065 S 
BRANCH  16  17
ATOM     17  C   UNL     1       5.179   9.301   0.001  0.00  0.00    +0.088 C 
BRANCH  17  18
ATOM     18  C   UNL     1       6.315  10.326  -0.004  0.00  0.00    +0.106 C 
BRANCH  18  19
ATOM     19  C   UNL     1       5.737  11.717   0.009  0.00  0.00    +0.211 C 
ATOM     20  O   UNL     1       4.534  11.874   0.021  0.00  0.00    -0.276 OA
ATOM     21  N   UNL     1       6.556  12.788   0.007  0.00  0.00    -0.329 N 
ATOM     22  H   UNL     1       6.133  13.804   0.016  0.00  0.00    +0.145 HD
ATOM     23  H   UNL     1       7.646  12.646  -0.004  0.00  0.00    +0.145 HD
ENDBRANCH  18  19
ENDBRANCH  17  18
ENDBRANCH  16  17
ENDBRANCH  11  16
TORSDOF 4
