REMARK  Name = ZINC36760592
REMARK  7 active torsions:
REMARK  status: ('A' for Active; 'I' for Inactive)
REMARK    1  A    between atoms: C_1  and  C_2
REMARK    2  A    between atoms: C_2  and  C_4
REMARK    3  A    between atoms: C_2  and  N_10
REMARK    4  A    between atoms: C_11  and  C_13
REMARK    5  A    between atoms: C_16  and  C_18
REMARK    6  A    between atoms: C_18  and  O_20
REMARK    7  A    between atoms: O_20  and  C_21
REMARK                            x       y       z     vdW  Elec       q    Type
REMARK                         _______ _______ _______ _____ _____    ______ ____
ROOT
ATOM      1  N   UNL     1       0.688  -0.476  -1.203  0.00  0.00    -0.304 N 
ATOM      2  C   UNL     1       2.031  -0.587  -1.215  0.00  0.00    +0.251 C 
ATOM      3  O   UNL     1       2.674  -0.294  -0.225  0.00  0.00    -0.270 OA
ATOM      4  H   UNL     1       0.175  -0.710  -1.993  0.00  0.00    +0.150 HD
ENDROOT
BRANCH   2   5
ATOM      5  C   UNL     1       2.720  -1.062  -2.426  0.00  0.00    +0.075 A 
ATOM      6  C   UNL     1       4.078  -1.249  -2.639  0.00  0.00    +0.021 A 
ATOM      7  C   UNL     1       4.495  -1.704  -3.858  0.00  0.00    +0.023 A 
ATOM      8  C   UNL     1       3.543  -1.960  -4.835  0.00  0.00    +0.097 A 
ATOM      9  S   UNL     1       2.022  -1.551  -3.994  0.00  0.00    -0.077 S 
BRANCH   8  10
ATOM     10  C   UNL     1       3.737  -2.448  -6.208  0.00  0.00    +0.346 C 
ATOM     11  O   UNL     1       4.857  -2.683  -6.617  0.00  0.00    -0.244 OA
BRANCH  10  12
ATOM     12  O   UNL     1       2.672  -2.636  -7.013  0.00  0.00    -0.464 OA
ATOM     13  C   UNL     1       2.934  -3.112  -8.335  0.00  0.00    +0.280 C 
ENDBRANCH  10  12
ENDBRANCH   8  10
ENDBRANCH   2   5
BRANCH   1  15
ATOM     14  C   UNL     1      -0.019   1.526   0.010  0.00  0.00    +0.033 C 
ATOM     15  C   UNL     1       0.002  -0.004   0.002  0.00  0.00    +0.100 C 
BRANCH  15  16
ATOM     16  C   UNL     1      -1.412  -0.526   0.013  0.00  0.00    -0.025 A 
ATOM     17  C   UNL     1      -2.158  -0.576  -1.155  0.00  0.00    +0.025 A 
ATOM     18  C   UNL     1      -3.452  -1.061  -1.106  0.00  0.00    +0.111 A 
ATOM     19  N   UNL     1      -3.976  -1.471   0.032  0.00  0.00    -0.263 NA
ATOM     20  C   UNL     1      -3.296  -1.438   1.161  0.00  0.00    +0.111 A 
ATOM     21  C   UNL     1      -1.995  -0.972   1.189  0.00  0.00    +0.025 A 
ENDBRANCH  15  16
ENDBRANCH   1  15
TORSDOF 5
