REMARK  Name = ZINC37657067
REMARK  5 active torsions:
REMARK  status: ('A' for Active; 'I' for Inactive)
REMARK    1  A    between atoms: C_1  and  C_2
REMARK    2  A    between atoms: C_7  and  N_8
REMARK    3  A    between atoms: N_8  and  S_9
REMARK    4  A    between atoms: S_9  and  N_12
REMARK    5  A    between atoms: C_16  and  C_19
REMARK                            x       y       z     vdW  Elec       q    Type
REMARK                         _______ _______ _______ _____ _____    ______ ____
ROOT
ATOM      1  S   UNL     1       0.764  -0.677   3.742  0.00  0.00    +0.112 S 
ATOM      2  O   UNL     1       0.519   0.207   4.826  0.00  0.00    -0.138 OA
ATOM      3  O   UNL     1       0.387  -2.047   3.776  0.00  0.00    -0.138 OA
ENDROOT
BRANCH   1   4
ATOM      4  N   UNL     1       2.396  -0.642   3.462  0.00  0.00    -0.163 NA
ATOM      5  C   UNL     1       3.065  -1.768   2.796  0.00  0.00    +0.111 C 
ATOM      6  C   UNL     1       4.232  -2.235   3.672  0.00  0.00    +0.018 C 
ATOM      7  C   UNL     1       5.149  -1.046   3.970  0.00  0.00    +0.017 C 
ATOM      8  C   UNL     1       4.367   0.023   4.737  0.00  0.00    +0.118 C 
ATOM      9  C   UNL     1       3.200   0.518   3.868  0.00  0.00    +0.125 C 
BRANCH   8  10
ATOM     10  C   UNL     1       5.278   1.179   5.059  0.00  0.00    +0.360 C 
ATOM     11  O   UNL     1       6.446   1.151   4.708  0.00  0.00    -0.246 OA
ATOM     12  O   UNL     1       4.849   2.142   5.671  0.00  0.00    -0.246 OA
ENDBRANCH   8  10
ENDBRANCH   1   4
BRANCH   1  13
ATOM     13  N   UNL     1       0.025  -0.016   2.415  0.00  0.00    -0.206 N 
ATOM     14  H   UNL     1      -0.527   0.776   2.512  0.00  0.00    +0.175 HD
BRANCH  13  21
ATOM     15  C   UNL     1       0.149   1.699   0.149  0.00  0.00    +0.046 C 
ATOM     16  C   UNL     1       0.263   0.202   0.024  0.00  0.00    -0.027 A 
ATOM     17  C   UNL     1       0.439  -0.376  -1.218  0.00  0.00    +0.019 A 
ATOM     18  C   UNL     1       0.544  -1.750  -1.335  0.00  0.00    +0.014 A 
ATOM     19  C   UNL     1       0.473  -2.550  -0.208  0.00  0.00    +0.016 A 
ATOM     20  C   UNL     1       0.297  -1.978   1.036  0.00  0.00    +0.026 A 
ATOM     21  C   UNL     1       0.197  -0.598   1.157  0.00  0.00    +0.052 A 
ATOM     22  I   UNL     1       0.811  -2.623  -3.221  0.00  0.00    -0.044 I 
ENDBRANCH  13  21
ENDBRANCH   1  13
TORSDOF 4
