REMARK  Name = ZINC06934347
REMARK  5 active torsions:
REMARK  status: ('A' for Active; 'I' for Inactive)
REMARK    1  A    between atoms: C_4  and  C_7
REMARK    2  A    between atoms: C_10  and  S_19
REMARK    3  A    between atoms: N_11  and  C_12
REMARK    4  A    between atoms: S_19  and  C_20
REMARK    5  A    between atoms: C_20  and  C_21
REMARK                            x       y       z     vdW  Elec       q    Type
REMARK                         _______ _______ _______ _____ _____    ______ ____
ROOT
ATOM      1  C   UNL     1       1.078   1.887   0.002  0.00  0.00    +0.074 A 
ATOM      2  C   UNL     1      -0.013   1.076   0.008  0.00  0.00    +0.140 A 
ATOM      3  N   UNL     1      -1.108   1.845   0.017  0.00  0.00    -0.229 NA
ATOM      4  C   UNL     1      -0.759   3.112   0.025  0.00  0.00    +0.174 A 
ATOM      5  N   UNL     1       0.603   3.189   0.013  0.00  0.00    -0.286 N 
ENDROOT
BRANCH   5   6
ATOM      6  C   UNL     1       1.374   4.360   0.011  0.00  0.00    +0.067 A 
ATOM      7  C   UNL     1       1.745   4.947  -1.191  0.00  0.00    +0.028 A 
ATOM      8  C   UNL     1       2.504   6.100  -1.190  0.00  0.00    +0.002 A 
ATOM      9  C   UNL     1       2.896   6.672   0.007  0.00  0.00    +0.002 A 
ATOM     10  C   UNL     1       2.529   6.090   1.206  0.00  0.00    +0.022 A 
ATOM     11  C   UNL     1       1.764   4.939   1.212  0.00  0.00    +0.065 A 
ATOM     12 CL   UNL     1       1.297   4.213   2.719  0.00  0.00    -0.081 Cl
ENDBRANCH   5   6
BRANCH   1  16
ATOM     13  C   UNL     1       5.146   0.670  -0.043  0.00  0.00    +0.000 A 
ATOM     14  C   UNL     1       4.143  -0.278  -0.143  0.00  0.00    +0.001 A 
ATOM     15  C   UNL     1       2.819   0.111  -0.129  0.00  0.00    +0.010 A 
ATOM     16  C   UNL     1       2.493   1.463  -0.013  0.00  0.00    +0.000 A 
ATOM     17  C   UNL     1       3.511   2.415   0.082  0.00  0.00    +0.010 A 
ATOM     18  C   UNL     1       4.830   2.012   0.072  0.00  0.00    +0.001 A 
ENDBRANCH   1  16
BRANCH   4  19
ATOM     19  S   UNL     1      -1.865   4.484   0.042  0.00  0.00    -0.080 S 
BRANCH  19  20
ATOM     20  C   UNL     1      -3.450   3.609   0.052  0.00  0.00    +0.153 C 
BRANCH  20  21
ATOM     21  C   UNL     1      -4.576   4.610   0.067  0.00  0.00    +0.146 A 
ATOM     22  N   UNL     1      -5.061   5.038   1.219  0.00  0.00    -0.199 NA
ATOM     23  C   UNL     1      -6.053   5.926   1.236  0.00  0.00    +0.217 A 
ATOM     24  N   UNL     1      -6.562   6.374   0.094  0.00  0.00    -0.181 NA
ATOM     25  C   UNL     1      -6.074   5.937  -1.062  0.00  0.00    +0.217 A 
ATOM     26  N   UNL     1      -5.079   5.053  -1.072  0.00  0.00    -0.199 NA
ATOM     27  N   UNL     1      -6.599   6.398  -2.252  0.00  0.00    -0.327 N 
ATOM     28  N   UNL     1      -6.556   6.377   2.440  0.00  0.00    -0.327 N 
ATOM     29  H   UNL     1      -6.243   6.079  -3.096  0.00  0.00    +0.145 HD
ATOM     30  H   UNL     1      -7.325   7.042  -2.245  0.00  0.00    +0.145 HD
ATOM     31  H   UNL     1      -7.281   7.021   2.452  0.00  0.00    +0.145 HD
ATOM     32  H   UNL     1      -6.184   6.050   3.274  0.00  0.00    +0.145 HD
ENDBRANCH  20  21
ENDBRANCH  19  20
ENDBRANCH   4  19
TORSDOF 5
