REMARK  Name = ZINC20489924
REMARK  7 active torsions:
REMARK  status: ('A' for Active; 'I' for Inactive)
REMARK    1  A    between atoms: C_1  and  C_2
REMARK    2  A    between atoms: C_5  and  C_8
REMARK    3  A    between atoms: C_8  and  N_9
REMARK    4  A    between atoms: C_10  and  C_12
REMARK    5  A    between atoms: C_12  and  C_13
REMARK    6  A    between atoms: C_13  and  C_14
REMARK    7  A    between atoms: C_14  and  N_15
REMARK                            x       y       z     vdW  Elec       q    Type
REMARK                         _______ _______ _______ _____ _____    ______ ____
ROOT
ATOM      1  C   UNL     1       1.243  -6.520  -4.532  0.00  0.00    +0.126 C 
ENDROOT
BRANCH   1   2
ATOM      2  N   UNL     1       1.263  -7.985  -4.539  0.00  0.00    -0.305 N 
ATOM      3  C   UNL     1       2.483  -8.660  -4.560  0.00  0.00    +0.071 A 
ATOM      4  C   UNL     1       3.670  -7.937  -4.564  0.00  0.00    +0.066 A 
ATOM      5  C   UNL     1       4.883  -8.599  -4.580  0.00  0.00    +0.125 A 
ATOM      6  C   UNL     1       4.921  -9.984  -4.587  0.00  0.00    +0.040 A 
ATOM      7  C   UNL     1       3.747 -10.710  -4.579  0.00  0.00    +0.031 A 
ATOM      8  C   UNL     1       2.524 -10.054  -4.563  0.00  0.00    +0.070 A 
ATOM      9  N   UNL     1       1.336 -10.794  -4.554  0.00  0.00    -0.310 N 
ATOM     10  C   UNL     1       1.095 -12.129  -4.558  0.00  0.00    +0.092 A 
ATOM     11  C   UNL     1      -0.245 -12.334  -4.545  0.00  0.00    +0.020 A 
ATOM     12  C   UNL     1      -0.871 -11.084  -4.533  0.00  0.00    +0.033 A 
ATOM     13  C   UNL     1       0.126 -10.133  -4.538  0.00  0.00    +0.112 A 
ATOM     14  C   UNL     1       0.102  -8.669  -4.531  0.00  0.00    +0.276 A 
ATOM     15  O   UNL     1      -0.960  -8.074  -4.516  0.00  0.00    -0.265 OA
ATOM     16  F   UNL     1       6.035  -7.893  -4.589  0.00  0.00    -0.205 F 
ENDBRANCH   1   2
BRANCH   1  17
ATOM     17  C   UNL     1       1.251  -6.017  -3.087  0.00  0.00    +0.031 C 
BRANCH  17  18
ATOM     18  C   UNL     1       1.230  -4.487  -3.080  0.00  0.00    +0.097 C 
BRANCH  18  20
ATOM     19  N   UNL     1       1.222  -2.667  -1.404  0.00  0.00    -0.311 N 
ATOM     20  C   UNL     1       1.237  -3.991  -1.657  0.00  0.00    +0.213 C 
ATOM     21  O   UNL     1       1.257  -4.784  -0.739  0.00  0.00    -0.276 OA
ATOM     22  H   UNL     1       1.204  -1.949  -2.237  0.00  0.00    +0.149 HD
BRANCH  19  23
ATOM     23  C   UNL     1       1.229  -2.186  -0.021  0.00  0.00    +0.139 C 
BRANCH  23  28
ATOM     24  C   UNL     1       1.151   3.592   0.010  0.00  0.00    +0.044 C 
ATOM     25  C   UNL     1       1.171   2.086   0.002  0.00  0.00    -0.050 A 
ATOM     26  C   UNL     1      -0.017   1.378   0.010  0.00  0.00    +0.003 A 
ATOM     27  C   UNL     1       0.002  -0.004   0.002  0.00  0.00    +0.005 A 
ATOM     28  C   UNL     1       1.208  -0.679  -0.013  0.00  0.00    -0.030 A 
ATOM     29  C   UNL     1       2.396   0.029  -0.021  0.00  0.00    +0.005 A 
ATOM     30  C   UNL     1       2.377   1.411  -0.015  0.00  0.00    +0.003 A 
ENDBRANCH  23  28
ENDBRANCH  19  23
ENDBRANCH  18  20
ENDBRANCH  17  18
ENDBRANCH   1  17
TORSDOF 6
