REMARK  Name = ZINC44791502
REMARK  4 active torsions:
REMARK  status: ('A' for Active; 'I' for Inactive)
REMARK    1  A    between atoms: C_4  and  C_7
REMARK    2  A    between atoms: C_4  and  C_11
REMARK    3  A    between atoms: N_8  and  O_9
REMARK    4  A    between atoms: C_18  and  C_20
REMARK                            x       y       z     vdW  Elec       q    Type
REMARK                         _______ _______ _______ _____ _____    ______ ____
ROOT
ATOM      1  C   UNL     1       0.017   1.238   0.048  0.00  0.00    +0.000 C 
ATOM      2  C   UNL     1       1.448   1.693  -0.240  0.00  0.00    +0.001 C 
ATOM      3  C   UNL     1       2.339   1.369   0.961  0.00  0.00    +0.024 C 
ATOM      4  C   UNL     1       2.325  -0.140   1.214  0.00  0.00    +0.105 C 
ATOM      5  C   UNL     1       0.893  -0.595   1.503  0.00  0.00    +0.024 C 
ATOM      6  C   UNL     1       0.003  -0.271   0.301  0.00  0.00    +0.001 C 
ENDROOT
BRANCH   4   7
ATOM      7  C   UNL     1       2.845  -0.858  -0.005  0.00  0.00    +0.230 C 
ATOM      8  O   UNL     1       2.096  -1.541  -0.671  0.00  0.00    -0.275 OA
ATOM      9  N   UNL     1       4.141  -0.741  -0.354  0.00  0.00    -0.289 N 
ATOM     10  C   UNL     1       5.045   0.134   0.405  0.00  0.00    +0.108 C 
ATOM     11  C   UNL     1       5.727   1.101  -0.569  0.00  0.00    +0.019 C 
ATOM     12  C   UNL     1       6.412   0.301  -1.679  0.00  0.00    +0.004 C 
ATOM     13  C   UNL     1       5.364  -0.503  -2.452  0.00  0.00    +0.032 C 
ATOM     14  C   UNL     1       4.679  -1.492  -1.496  0.00  0.00    +0.162 C 
BRANCH  14  15
ATOM     15  C   UNL     1       3.555  -2.195  -2.214  0.00  0.00    +0.231 C 
ATOM     16  O   UNL     1       2.724  -1.550  -2.817  0.00  0.00    -0.274 OA
ATOM     17  N   UNL     1       3.474  -3.540  -2.185  0.00  0.00    -0.328 N 
ATOM     18  H   UNL     1       4.139  -4.056  -1.703  0.00  0.00    +0.145 HD
ATOM     19  H   UNL     1       2.750  -3.992  -2.647  0.00  0.00    +0.145 HD
ENDBRANCH  14  15
ENDBRANCH   4   7
BRANCH   4  20
ATOM     20  C   UNL     1       3.202  -0.459   2.397  0.00  0.00    +0.147 C 
ATOM     21  N   UNL     1       3.713   0.498   3.099  0.00  0.00    -0.076 NA
ATOM     22  N   UNL     1       3.458  -1.770   2.731  0.00  0.00    -0.343 N 
ATOM     23  H   UNL     1       3.138  -2.487   2.161  0.00  0.00    +0.144 HD
ATOM     24  H   UNL     1       3.960  -1.977   3.535  0.00  0.00    +0.144 HD
BRANCH  21  25
ATOM     25  O   UNL     1       4.537   0.198   4.211  0.00  0.00    -0.408 OA
ATOM     26  H   UNL     1       4.873   0.978   4.673  0.00  0.00    +0.328 HD
ENDBRANCH  21  25
ENDBRANCH   4  20
TORSDOF 4
