REMARK  Name = ZINC25764643
REMARK  8 active torsions:
REMARK  status: ('A' for Active; 'I' for Inactive)
REMARK    1  A    between atoms: C_1  and  C_2
REMARK    2  A    between atoms: C_2  and  C_3
REMARK    3  A    between atoms: C_2  and  C_4
REMARK    4  A    between atoms: C_4  and  C_5
REMARK    5  A    between atoms: N_7  and  C_8
REMARK    6  A    between atoms: C_11  and  N_14
REMARK    7  A    between atoms: C_15  and  C_17
REMARK    8  A    between atoms: C_17  and  N_18
REMARK                            x       y       z     vdW  Elec       q    Type
REMARK                         _______ _______ _______ _____ _____    ______ ____
ROOT
ATOM      1  N   UNL     1      -4.424   3.758   0.731  0.00  0.00    -0.284 N 
ATOM      2  C   UNL     1      -4.470   5.104   0.779  0.00  0.00    +0.235 C 
ATOM      3  O   UNL     1      -3.443   5.748   0.742  0.00  0.00    -0.274 OA
ATOM      4  H   UNL     1      -5.348   3.172   0.841  0.00  0.00    +0.155 HD
ENDROOT
BRANCH   1   8
ATOM      5  C   UNL     1      -0.778   1.815   0.165  0.00  0.00    +0.033 A 
ATOM      6  C   UNL     1      -0.833   2.985   0.911  0.00  0.00    +0.025 A 
ATOM      7  C   UNL     1      -2.039   3.631   1.094  0.00  0.00    +0.025 A 
ATOM      8  C   UNL     1      -3.199   3.106   0.540  0.00  0.00    +0.034 A 
ATOM      9  C   UNL     1      -3.145   1.933  -0.202  0.00  0.00    +0.025 A 
ATOM     10  C   UNL     1      -1.938   1.290  -0.389  0.00  0.00    +0.025 A 
BRANCH   5  13
ATOM     11  C   UNL     1       0.701   0.532  -1.189  0.00  0.00    +0.217 C 
ATOM     12  O   UNL     1      -0.159   0.462  -2.041  0.00  0.00    -0.275 OA
ATOM     13  N   UNL     1       0.446   1.162  -0.025  0.00  0.00    -0.285 N 
ATOM     14  H   UNL     1       1.200   1.164   0.776  0.00  0.00    +0.155 HD
BRANCH  11  15
ATOM     15  C   UNL     1       2.054  -0.087  -1.431  0.00  0.00    +0.099 C 
BRANCH  15  17
ATOM     16  C   UNL     1       1.931   0.349  -3.888  0.00  0.00    +0.008 C 
ATOM     17  C   UNL     1       2.078  -0.734  -2.817  0.00  0.00    -0.008 C 
ATOM     18  C   UNL     1       3.406  -1.468  -3.014  0.00  0.00    +0.008 C 
ENDBRANCH  15  17
ENDBRANCH  11  15
ENDBRANCH   5  13
ENDBRANCH   1   8
BRANCH   2  19
ATOM     19  C   UNL     1      -5.798   5.810   0.879  0.00  0.00    +0.214 C 
BRANCH  19  20
ATOM     20  N   UNL     1      -5.580   7.258   0.916  0.00  0.00    -0.215 N 
ATOM     21  C   UNL     1      -5.531   8.045  -0.178  0.00  0.00    +0.247 C 
ATOM     22  O   UNL     1      -5.655   7.703  -1.335  0.00  0.00    -0.273 OA
ATOM     23  C   UNL     1      -5.290   9.444   0.341  0.00  0.00    +0.113 C 
ATOM     24  C   UNL     1      -6.449  10.359  -0.040  0.00  0.00    +0.035 C 
ATOM     25  C   UNL     1      -6.200  11.762   0.518  0.00  0.00    +0.003 C 
ATOM     26  C   UNL     1      -4.888  12.310  -0.048  0.00  0.00    +0.000 C 
ATOM     27  C   UNL     1      -3.733  11.395   0.364  0.00  0.00    +0.003 C 
ATOM     28  C   UNL     1      -3.972   9.990  -0.195  0.00  0.00    +0.035 C 
ATOM     29  N   UNL     1      -5.224   9.277   1.798  0.00  0.00    -0.285 N 
ATOM     30  C   UNL     1      -5.410   7.965   2.040  0.00  0.00    +0.310 C 
ATOM     31  O   UNL     1      -5.420   7.478   3.153  0.00  0.00    -0.252 OA
ATOM     32  H   UNL     1      -5.050  10.150   2.445  0.00  0.00    +0.151 HD
ENDBRANCH  19  20
ENDBRANCH   2  19
TORSDOF 6
