REMARK  Name = ZINC54910144
REMARK  5 active torsions:
REMARK  status: ('A' for Active; 'I' for Inactive)
REMARK    1  A    between atoms: C_1  and  C_2
REMARK    2  A    between atoms: C_6  and  N_9
REMARK    3  A    between atoms: C_7  and  C_8
REMARK    4  A    between atoms: C_18  and  C_20
REMARK    5  A    between atoms: C_20  and  O_21
REMARK                            x       y       z     vdW  Elec       q    Type
REMARK                         _______ _______ _______ _____ _____    ______ ____
ROOT
ATOM      1  N   UNL     1       0.051  -2.796   2.390  0.00  0.00    -0.327 N 
ATOM      2  C   UNL     1      -1.205  -3.197   3.038  0.00  0.00    +0.124 C 
ATOM      3  C   UNL     1      -1.179  -4.714   3.263  0.00  0.00    +0.126 C 
ATOM      4  N   UNL     1       0.094  -5.071   3.905  0.00  0.00    -0.307 N 
ATOM      5  C   UNL     1       1.351  -4.670   3.257  0.00  0.00    +0.126 C 
ATOM      6  C   UNL     1       1.324  -3.159   3.029  0.00  0.00    +0.124 C 
ATOM      7  C   UNL     1       0.110  -5.773   5.100  0.00  0.00    +0.161 A 
ATOM      8  N   UNL     1      -0.912  -6.210   5.805  0.00  0.00    -0.233 NA
ATOM      9  C   UNL     1      -0.729  -6.870   6.935  0.00  0.00    +0.126 A 
ATOM     10  C   UNL     1       0.551  -7.074   7.329  0.00  0.00    +0.036 A 
ATOM     11  S   UNL     1       1.439  -6.280   5.999  0.00  0.00    -0.055 S 
ENDROOT
BRANCH   1  17
ATOM     12  C   UNL     1      -0.018   1.503   0.010  0.00  0.00    +0.044 C 
ATOM     13  C   UNL     1       0.002  -0.004   0.002  0.00  0.00    -0.046 A 
ATOM     14  C   UNL     1       0.006  -0.688  -1.200  0.00  0.00    +0.004 A 
ATOM     15  C   UNL     1       0.024  -2.071  -1.212  0.00  0.00    +0.002 A 
ATOM     16  C   UNL     1       0.039  -2.773  -0.023  0.00  0.00    +0.023 A 
ATOM     17  C   UNL     1       0.036  -2.089   1.186  0.00  0.00    +0.033 A 
ATOM     18  C   UNL     1       0.023  -0.700   1.194  0.00  0.00    -0.027 A 
ATOM     19  C   UNL     1       0.025   0.046   2.504  0.00  0.00    +0.046 C 
ENDBRANCH   1  17
BRANCH  10  20
ATOM     20  C   UNL     1       1.080  -7.780   8.550  0.00  0.00    +0.199 C 
BRANCH  20  21
ATOM     21  O   UNL     1       1.273  -9.165   8.254  0.00  0.00    -0.390 OA
ATOM     22  H   UNL     1       1.613  -9.682   8.997  0.00  0.00    +0.210 HD
ENDBRANCH  20  21
ENDBRANCH  10  20
TORSDOF 3
