REMARK  Name = ZINC23229781
REMARK  10 active torsions:
REMARK  status: ('A' for Active; 'I' for Inactive)
REMARK    1  A    between atoms: C_1  and  C_2
REMARK    2  A    between atoms: C_7  and  C_8
REMARK    3  A    between atoms: C_8  and  N_9
REMARK    4  A    between atoms: N_12  and  C_15
REMARK    5  A    between atoms: C_15  and  C_16
REMARK    6  A    between atoms: C_16  and  C_18
REMARK    7  A    between atoms: C_19  and  N_34
REMARK    8  A    between atoms: N_20  and  C_27
REMARK    9  A    between atoms: N_23  and  C_26
REMARK   10  A    between atoms: C_27  and  C_28
REMARK                            x       y       z     vdW  Elec       q    Type
REMARK                         _______ _______ _______ _____ _____    ______ ____
ROOT
ATOM      1  C   UNL     1       1.144   0.942  -1.633  0.00  0.00    +0.118 A 
ATOM      2  C   UNL     1      -0.061   0.283  -1.332  0.00  0.00    +0.116 A 
ATOM      3  N   UNL     1      -0.088  -1.082  -1.341  0.00  0.00    -0.277 N 
ATOM      4  C   UNL     1       1.009  -1.799  -1.631  0.00  0.00    +0.333 A 
ATOM      5  O   UNL     1       0.933  -3.013  -1.625  0.00  0.00    -0.246 OA
ATOM      6  N   UNL     1       2.187  -1.226  -1.926  0.00  0.00    -0.263 N 
ATOM      7  C   UNL     1       2.318   0.116  -1.945  0.00  0.00    +0.269 A 
ATOM      8  O   UNL     1       3.387   0.632  -2.214  0.00  0.00    -0.267 OA
ATOM      9  C   UNL     1       3.344  -2.070  -2.233  0.00  0.00    +0.157 C 
ENDROOT
BRANCH   2  10
ATOM     10  N   UNL     1      -1.184   0.995  -1.041  0.00  0.00    -0.344 N 
ATOM     11  H   UNL     1      -2.122   0.471  -0.806  0.00  0.00    +0.144 HD
ATOM     12  H   UNL     1      -1.153   2.095  -1.041  0.00  0.00    +0.144 HD
ENDBRANCH   2  10
BRANCH   1  13
ATOM     13  C   UNL     1       1.223   2.351  -1.638  0.00  0.00    +0.155 C 
ATOM     14  O   UNL     1       0.269   3.014  -1.283  0.00  0.00    -0.294 OA
BRANCH  13  15
ATOM     15  C   UNL     1       2.490   3.033  -2.083  0.00  0.00    +0.003 C 
BRANCH  15  19
ATOM     16  N   UNL     1       2.390   7.160  -2.981  0.00  0.00    -0.302 NA
ATOM     17  C   UNL     1       3.393   6.689  -2.016  0.00  0.00    +0.066 C 
ATOM     18  C   UNL     1       3.600   5.183  -2.192  0.00  0.00    -0.063 C 
ATOM     19  N   UNL     1       2.319   4.490  -1.996  0.00  0.00    +0.386 N 
ATOM     20  C   UNL     1       1.315   4.960  -2.961  0.00  0.00    -0.063 C 
ATOM     21  C   UNL     1       1.109   6.466  -2.785  0.00  0.00    +0.066 C 
ATOM     22  H   UNL     1       1.956   4.726  -0.985  0.00  0.00    -0.081 HD
BRANCH  16  23
ATOM     23  C   UNL     1       2.218   8.616  -2.894  0.00  0.00    +0.119 C 
BRANCH  23  30
ATOM     24  C   UNL     1       2.644   8.638  -5.752  0.00  0.00    +0.044 C 
ATOM     25  C   UNL     1       1.312   9.058  -5.185  0.00  0.00    -0.046 A 
ATOM     26  C   UNL     1       0.294   9.453  -6.033  0.00  0.00    +0.003 A 
ATOM     27  C   UNL     1      -0.928   9.837  -5.514  0.00  0.00    +0.000 A 
ATOM     28  C   UNL     1      -1.132   9.826  -4.146  0.00  0.00    +0.000 A 
ATOM     29  C   UNL     1      -0.116   9.427  -3.299  0.00  0.00    +0.005 A 
ATOM     30  C   UNL     1       1.108   9.047  -3.818  0.00  0.00    -0.030 A 
ENDBRANCH  23  30
ENDBRANCH  16  23
ENDBRANCH  15  19
ENDBRANCH  13  15
ENDBRANCH   1  13
BRANCH   3  31
ATOM     31  C   UNL     1      -1.339  -1.777  -1.027  0.00  0.00    +0.163 C 
BRANCH  31  32
ATOM     32  C   UNL     1      -2.121  -2.000  -2.296  0.00  0.00    -0.028 A 
ATOM     33  C   UNL     1      -3.032  -1.051  -2.721  0.00  0.00    +0.005 A 
ATOM     34  C   UNL     1      -3.746  -1.253  -3.888  0.00  0.00    +0.000 A 
ATOM     35  C   UNL     1      -3.558  -2.408  -4.622  0.00  0.00    +0.000 A 
ATOM     36  C   UNL     1      -2.651  -3.360  -4.194  0.00  0.00    +0.000 A 
ATOM     37  C   UNL     1      -1.933  -3.155  -3.030  0.00  0.00    +0.005 A 
ENDBRANCH  31  32
ENDBRANCH   3  31
TORSDOF 8
