REMARK  Name = ZINC44132289
REMARK  5 active torsions:
REMARK  status: ('A' for Active; 'I' for Inactive)
REMARK    1  A    between atoms: C_1  and  C_2
REMARK    2  A    between atoms: N_8  and  C_9
REMARK    3  A    between atoms: C_9  and  C_10
REMARK    4  A    between atoms: C_10  and  C_12
REMARK    5  A    between atoms: C_10  and  O_22
REMARK                            x       y       z     vdW  Elec       q    Type
REMARK                         _______ _______ _______ _____ _____    ______ ____
ROOT
ATOM      1  C   UNL     1       2.697  -0.278   2.610  0.00  0.00    +0.159 C 
ENDROOT
BRANCH   1   2
ATOM      2  C   UNL     1       4.100   0.269   2.666  0.00  0.00    -0.010 A 
ATOM      3  C   UNL     1       4.336   1.492   3.217  0.00  0.00    +0.007 A 
ATOM      4  C   UNL     1       5.626   2.014   3.277  0.00  0.00    +0.001 A 
ATOM      5  C   UNL     1       6.688   1.318   2.787  0.00  0.00    +0.008 A 
ATOM      6  C   UNL     1       6.484   0.053   2.211  0.00  0.00    -0.018 A 
ATOM      7  C   UNL     1       5.172  -0.481   2.155  0.00  0.00    -0.012 A 
ATOM      8  C   UNL     1       4.969  -1.750   1.584  0.00  0.00    +0.009 A 
ATOM      9  C   UNL     1       6.031  -2.448   1.099  0.00  0.00    +0.001 A 
ATOM     10  C   UNL     1       7.322  -1.925   1.160  0.00  0.00    +0.001 A 
ATOM     11  C   UNL     1       7.555  -0.695   1.693  0.00  0.00    +0.008 A 
ENDBRANCH   1   2
BRANCH   1  12
ATOM     12  O   UNL     1       1.911   0.320   3.643  0.00  0.00    -0.386 OA
ATOM     13  H   UNL     1       1.845   1.282   3.579  0.00  0.00    +0.210 HD
ENDBRANCH   1  12
BRANCH   1  14
ATOM     14  C   UNL     1       2.079   0.042   1.248  0.00  0.00    +0.121 C 
BRANCH  14  21
ATOM     15  C   UNL     1      -0.019   1.526   0.010  0.00  0.00    +0.026 C 
ATOM     16  C   UNL     1       0.002  -0.004   0.002  0.00  0.00    +0.079 C 
ATOM     17  C   UNL     1      -1.434  -0.535   0.015  0.00  0.00    +0.178 C 
ATOM     18  O   UNL     1      -1.408  -1.963   0.083  0.00  0.00    -0.377 OA
ATOM     19  C   UNL     1      -0.727  -2.473   1.232  0.00  0.00    +0.175 C 
ATOM     20  C   UNL     1       0.717  -1.962   1.232  0.00  0.00    +0.113 C 
ATOM     21  N   UNL     1       0.711  -0.492   1.194  0.00  0.00    -0.293 NA
ENDBRANCH  14  21
ENDBRANCH   1  14
TORSDOF 4
