REMARK  Name = ZINC66222543
REMARK  7 active torsions:
REMARK  status: ('A' for Active; 'I' for Inactive)
REMARK    1  A    between atoms: C_1  and  C_2
REMARK    2  A    between atoms: C_5  and  N_9
REMARK    3  A    between atoms: C_7  and  C_8
REMARK    4  A    between atoms: C_10  and  C_12
REMARK    5  A    between atoms: C_18  and  C_21
REMARK    6  A    between atoms: C_21  and  C_22
REMARK    7  A    between atoms: C_22  and  C_23
REMARK                            x       y       z     vdW  Elec       q    Type
REMARK                         _______ _______ _______ _____ _____    ______ ____
ROOT
ATOM      1  C   UNL     1      -0.133  -6.327  -1.187  0.00  0.00    +0.302 C 
ATOM      2  O   UNL     1      -0.280  -6.925  -0.141  0.00  0.00    -0.265 OA
ATOM      3  N   UNL     1      -0.131  -7.003  -2.353  0.00  0.00    -0.294 N 
ATOM      4  C   UNL     1      -0.141  -6.284  -3.635  0.00  0.00    +0.108 C 
ATOM      5  C   UNL     1      -1.306  -6.804  -4.483  0.00  0.00    +0.019 C 
ATOM      6  C   UNL     1      -1.196  -8.324  -4.616  0.00  0.00    +0.006 C 
ATOM      7  C   UNL     1      -1.282  -8.967  -3.230  0.00  0.00    +0.007 C 
ATOM      8  C   UNL     1      -0.111  -8.472  -2.368  0.00  0.00    +0.111 C 
ENDROOT
BRANCH   1  10
ATOM      9  N   UNL     1      -0.090  -4.154  -0.033  0.00  0.00    -0.278 N 
ATOM     10  C   UNL     1       0.044  -4.844  -1.182  0.00  0.00    +0.303 C 
ATOM     11  O   UNL     1       0.309  -4.261  -2.213  0.00  0.00    -0.265 OA
ATOM     12  H   UNL     1      -0.252  -4.624   0.800  0.00  0.00    +0.155 HD
BRANCH   9  17
ATOM     13  C   UNL     1       0.287   1.505  -0.067  0.00  0.00    +0.044 C 
ATOM     14  C   UNL     1       0.187   0.002  -0.058  0.00  0.00    -0.047 A 
ATOM     15  C   UNL     1       0.981  -0.748  -0.907  0.00  0.00    +0.005 A 
ATOM     16  C   UNL     1       0.891  -2.126  -0.901  0.00  0.00    +0.023 A 
ATOM     17  C   UNL     1       0.003  -2.759  -0.041  0.00  0.00    +0.034 A 
ATOM     18  C   UNL     1      -0.793  -2.004   0.811  0.00  0.00    +0.027 A 
ATOM     19  C   UNL     1      -0.695  -0.626   0.804  0.00  0.00    -0.046 A 
ATOM     20  C   UNL     1      -1.554   0.195   1.731  0.00  0.00    +0.044 C 
ENDBRANCH   9  17
ENDBRANCH   1  10
BRANCH   7  21
ATOM     21  C   UNL     1      -1.205 -10.489  -3.368  0.00  0.00    +0.014 C 
BRANCH  21  22
ATOM     22  C   UNL     1      -1.416 -11.136  -1.998  0.00  0.00    +0.096 C 
BRANCH  22  23
ATOM     23  C   UNL     1      -1.341 -12.635  -2.133  0.00  0.00    +0.210 C 
ATOM     24  O   UNL     1      -1.138 -13.137  -3.219  0.00  0.00    -0.276 OA
ATOM     25  N   UNL     1      -1.498 -13.419  -1.048  0.00  0.00    -0.329 N 
ATOM     26  H   UNL     1      -1.661 -13.018  -0.179  0.00  0.00    +0.145 HD
ATOM     27  H   UNL     1      -1.450 -14.384  -1.135  0.00  0.00    +0.145 HD
ENDBRANCH  22  23
ENDBRANCH  21  22
ENDBRANCH   7  21
TORSDOF 5
