REMARK  Name = ZINC57626974
REMARK  11 active torsions:
REMARK  status: ('A' for Active; 'I' for Inactive)
REMARK    1  A    between atoms: C_1  and  N_2
REMARK    2  A    between atoms: N_2  and  C_3
REMARK    3  A    between atoms: N_2  and  C_12
REMARK    4  A    between atoms: C_3  and  C_4
REMARK    5  A    between atoms: N_6  and  C_7
REMARK    6  A    between atoms: C_7  and  C_8
REMARK    7  A    between atoms: C_8  and  C_9
REMARK    8  A    between atoms: C_9  and  O_10
REMARK    9  A    between atoms: O_10  and  C_11
REMARK   10  A    between atoms: C_12  and  C_13
REMARK   11  A    between atoms: N_18  and  C_19
REMARK                            x       y       z     vdW  Elec       q    Type
REMARK                         _______ _______ _______ _____ _____    ______ ____
ROOT
ATOM      1  C   UNL     1      -0.106  -0.083  -2.424  0.00  0.00    +0.204 C 
ATOM      2  O   UNL     1      -1.143   0.532  -2.298  0.00  0.00    -0.277 OA
ATOM      3  N   UNL     1       0.336  -0.414  -3.654  0.00  0.00    -0.242 N 
ATOM      4  C   UNL     1      -0.375  -0.061  -4.743  0.00  0.00    +0.306 C 
ATOM      5  O   UNL     1      -1.415   0.555  -4.616  0.00  0.00    -0.252 OA
ATOM      6  N   UNL     1       0.066  -0.392  -5.973  0.00  0.00    -0.294 N 
ATOM      7  H   UNL     1       1.166  -0.906  -3.755  0.00  0.00    +0.159 HD
ATOM      8  H   UNL     1       0.896  -0.884  -6.074  0.00  0.00    +0.151 HD
ENDROOT
BRANCH   6   9
ATOM      9  C   UNL     1      -0.707  -0.008  -7.156  0.00  0.00    +0.037 C 
ATOM     10  C   UNL     1      -2.099  -0.638  -7.082  0.00  0.00    +0.029 C 
ATOM     11  C   UNL     1      -2.907  -0.237  -8.318  0.00  0.00    -0.008 C 
ATOM     12  C   UNL     1      -2.191  -0.731  -9.577  0.00  0.00    +0.007 C 
ATOM     13  C   UNL     1      -0.798  -0.101  -9.651  0.00  0.00    -0.008 C 
ATOM     14  C   UNL     1       0.009  -0.502  -8.415  0.00  0.00    +0.029 C 
ATOM     15  C   UNL     1      -0.929   1.422  -9.703  0.00  0.00    +0.007 C 
ATOM     16  C   UNL     1      -1.645   1.916  -8.444  0.00  0.00    -0.008 C 
ATOM     17  C   UNL     1      -3.038   1.286  -8.370  0.00  0.00    +0.007 C 
ATOM     18  C   UNL     1      -0.838   1.515  -7.208  0.00  0.00    +0.029 C 
ENDBRANCH   6   9
BRANCH   1  19
ATOM     19  C   UNL     1       0.690  -0.478  -1.207  0.00  0.00    +0.019 C 
BRANCH  19  21
ATOM     20  C   UNL     1      -0.018   1.465   0.010  0.00  0.00    -0.095 C 
ATOM     21  N   UNL     1       0.002  -0.004   0.002  0.00  0.00    +0.389 N 
ATOM     22  H   UNL     1      -0.945  -0.353   0.009  0.00  0.00    -0.081 HD
BRANCH  21  23
ATOM     23  C   UNL     1       0.713  -0.491   1.192  0.00  0.00    +0.019 C 
BRANCH  23  24
ATOM     24  C   UNL     1      -0.059  -0.109   2.429  0.00  0.00    +0.196 C 
ATOM     25  O   UNL     1      -1.099   0.507   2.329  0.00  0.00    -0.278 OA
ATOM     26  N   UNL     1       0.406  -0.453   3.646  0.00  0.00    -0.317 N 
ATOM     27  H   UNL     1       1.237  -0.946   3.726  0.00  0.00    +0.149 HD
BRANCH  26  28
ATOM     28  C   UNL     1      -0.345  -0.082   4.849  0.00  0.00    +0.106 C 
BRANCH  28  29
ATOM     29  C   UNL     1       0.395  -0.589   6.088  0.00  0.00    +0.047 C 
BRANCH  29  30
ATOM     30  C   UNL     1      -0.388  -0.202   7.344  0.00  0.00    +0.161 C 
BRANCH  30  31
ATOM     31  O   UNL     1       0.303  -0.675   8.502  0.00  0.00    -0.383 OA
ATOM     32  C   UNL     1      -0.349  -0.364   9.735  0.00  0.00    +0.193 C 
ENDBRANCH  30  31
ENDBRANCH  29  30
ENDBRANCH  28  29
ENDBRANCH  26  28
ENDBRANCH  23  24
ENDBRANCH  21  23
ENDBRANCH  19  21
ENDBRANCH   1  19
TORSDOF 9
