REMARK  Name = ZINC12276220
REMARK  6 active torsions:
REMARK  status: ('A' for Active; 'I' for Inactive)
REMARK    1  A    between atoms: C_1  and  S_2
REMARK    2  A    between atoms: S_2  and  C_3
REMARK    3  A    between atoms: C_6  and  C_9
REMARK    4  A    between atoms: C_17  and  N_27
REMARK    5  A    between atoms: C_18  and  C_20
REMARK    6  A    between atoms: C_20  and  C_22
REMARK                            x       y       z     vdW  Elec       q    Type
REMARK                         _______ _______ _______ _____ _____    ______ ____
ROOT
ATOM      1  C   UNL     1       2.326   1.502   0.898  0.00  0.00    +0.062 C 
ATOM      2  C   UNL     1       1.264   2.137   0.002  0.00  0.00    +0.109 C 
ATOM      3  C   UNL     1      -0.016   1.350   0.009  0.00  0.00    +0.218 C 
ATOM      4  O   UNL     1      -1.079   1.935   0.018  0.00  0.00    -0.275 OA
ATOM      5  N   UNL     1       0.002  -0.004   0.002  0.00  0.00    -0.280 N 
ATOM      6  C   UNL     1       1.210  -0.626   0.205  0.00  0.00    +0.078 A 
ATOM      7  C   UNL     1       2.368   0.003   0.616  0.00  0.00    +0.010 A 
ATOM      8  C   UNL     1       3.492  -0.790   0.757  0.00  0.00    +0.048 A 
ATOM      9  C   UNL     1       3.392  -2.160   0.501  0.00  0.00    +0.085 A 
ATOM     10  S   UNL     1       1.671  -2.326   0.048  0.00  0.00    -0.068 S 
ATOM     11  H   UNL     1      -0.809  -0.517  -0.141  0.00  0.00    +0.155 HD
ENDROOT
BRANCH   1  15
ATOM     12  C   UNL     1       1.334   2.162   5.002  0.00  0.00    +0.008 A 
ATOM     13  C   UNL     1       2.539   2.631   4.493  0.00  0.00    +0.015 A 
ATOM     14  C   UNL     1       2.856   2.416   3.166  0.00  0.00    +0.005 A 
ATOM     15  C   UNL     1       1.976   1.735   2.345  0.00  0.00    -0.039 A 
ATOM     16  C   UNL     1       0.773   1.272   2.847  0.00  0.00    +0.005 A 
ATOM     17  C   UNL     1       0.452   1.479   4.174  0.00  0.00    +0.015 A 
BRANCH  12  19
ATOM     18  C   UNL     1      -0.704   1.659   6.883  0.00  0.00    +0.090 C 
ATOM     19  S   UNL     1       0.926   2.434   6.695  0.00  0.00    -0.129 S 
ENDBRANCH  12  19
ENDBRANCH   1  15
BRANCH   8  20
ATOM     20  N   UNL     1       4.705  -0.231   1.148  0.00  0.00    -0.357 N 
ATOM     21  H   UNL     1       5.489  -0.794   1.245  0.00  0.00    +0.142 HD
ATOM     22  H   UNL     1       4.767   0.721   1.324  0.00  0.00    +0.142 HD
ENDBRANCH   8  20
BRANCH   9  23
ATOM     23  C   UNL     1       4.390  -3.154   0.580  0.00  0.00    +0.236 C 
ATOM     24  O   UNL     1       5.526  -2.854   0.911  0.00  0.00    -0.283 OA
BRANCH  23  25
ATOM     25  C   UNL     1       4.062  -4.551   0.263  0.00  0.00    +0.175 A 
ATOM     26  C   UNL     1       4.928  -5.606   0.298  0.00  0.00    +0.053 A 
ATOM     27  C   UNL     1       4.194  -6.744  -0.075  0.00  0.00    +0.042 A 
ATOM     28  C   UNL     1       2.929  -6.338  -0.318  0.00  0.00    +0.196 A 
ATOM     29  O   UNL     1       2.852  -5.016  -0.109  0.00  0.00    -0.460 OA
ENDBRANCH  23  25
ENDBRANCH   9  23
TORSDOF 5
