REMARK  Name = ZINC22913896
REMARK  7 active torsions:
REMARK  status: ('A' for Active; 'I' for Inactive)
REMARK    1  A    between atoms: C_2  and  C_13
REMARK    2  A    between atoms: C_3  and  C_7
REMARK    3  A    between atoms: C_13  and  N_14
REMARK    4  A    between atoms: N_17  and  C_24
REMARK    5  A    between atoms: C_18  and  C_21
REMARK    6  A    between atoms: C_21  and  C_22
REMARK    7  A    between atoms: C_22  and  O_23
REMARK                            x       y       z     vdW  Elec       q    Type
REMARK                         _______ _______ _______ _____ _____    ______ ____
ROOT
ATOM      1  N   UNL     1       2.447   3.718  -1.074  0.00  0.00    -0.301 NA
ATOM      2  C   UNL     1       3.566   2.877  -1.520  0.00  0.00    +0.066 C 
ATOM      3  C   UNL     1       3.829   3.130  -3.006  0.00  0.00    -0.062 C 
ATOM      4  N   UNL     1       4.148   4.548  -3.212  0.00  0.00    +0.385 N 
ATOM      5  C   UNL     1       3.011   5.375  -2.785  0.00  0.00    -0.052 C 
ATOM      6  C   UNL     1       2.741   5.141  -1.297  0.00  0.00    +0.069 C 
ATOM      7  H   UNL     1       4.963   4.792  -2.670  0.00  0.00    -0.081 HD
ENDROOT
BRANCH   4   8
ATOM      8  C   UNL     1       4.419   4.787  -4.636  0.00  0.00    -0.068 C 
ATOM      9  C   UNL     1       3.212   4.345  -5.466  0.00  0.00    -0.015 C 
ATOM     10  C   UNL     1       3.493   4.593  -6.949  0.00  0.00    -0.002 C 
ATOM     11  C   UNL     1       4.726   3.793  -7.375  0.00  0.00    -0.000 C 
ATOM     12  C   UNL     1       5.933   4.236  -6.546  0.00  0.00    -0.002 C 
ATOM     13  C   UNL     1       5.651   3.987  -5.062  0.00  0.00    -0.015 C 
ENDBRANCH   4   8
BRANCH   1  14
ATOM     14  C   UNL     1       2.126   3.462   0.337  0.00  0.00    +0.122 C 
BRANCH  14  16
ATOM     15  C   UNL     1       2.090   0.996   0.982  0.00  0.00    +0.110 A 
ATOM     16  C   UNL     1       1.497   2.099   0.470  0.00  0.00    +0.007 A 
ATOM     17  C   UNL     1       0.198   1.751   0.086  0.00  0.00    +0.070 A 
ATOM     18  N   UNL     1       0.017   0.484   0.358  0.00  0.00    -0.178 NA
ATOM     19  N   UNL     1       1.197  -0.015   0.924  0.00  0.00    -0.284 N 
ATOM     20  H   UNL     1       1.347  -0.926   1.222  0.00  0.00    +0.188 HD
BRANCH  17  21
ATOM     21  C   UNL     1      -0.819   2.676  -0.532  0.00  0.00    +0.040 C 
ATOM     22  C   UNL     1      -2.002   2.844   0.422  0.00  0.00    +0.010 C 
ATOM     23  C   UNL     1      -3.034   3.783  -0.205  0.00  0.00    +0.001 C 
ATOM     24  C   UNL     1      -3.526   3.190  -1.528  0.00  0.00    +0.000 C 
ATOM     25  C   UNL     1      -2.342   3.022  -2.482  0.00  0.00    +0.001 C 
ATOM     26  C   UNL     1      -1.310   2.083  -1.854  0.00  0.00    +0.010 C 
ENDBRANCH  17  21
ENDBRANCH  14  16
ENDBRANCH   1  14
BRANCH   5  27
ATOM     27  C   UNL     1       3.338   6.851  -3.018  0.00  0.00    +0.014 C 
BRANCH  27  28
ATOM     28  C   UNL     1       2.107   7.702  -2.700  0.00  0.00    +0.154 C 
BRANCH  28  29
ATOM     29  O   UNL     1       2.411   9.081  -2.919  0.00  0.00    -0.395 OA
ATOM     30  H   UNL     1       1.675   9.680  -2.736  0.00  0.00    +0.209 HD
ENDBRANCH  28  29
ENDBRANCH  27  28
ENDBRANCH   5  27
TORSDOF 7
