REMARK  Name = ZINC61879686
REMARK  9 active torsions:
REMARK  status: ('A' for Active; 'I' for Inactive)
REMARK    1  A    between atoms: C_1  and  C_2
REMARK    2  A    between atoms: C_11  and  C_14
REMARK    3  A    between atoms: C_14  and  N_15
REMARK    4  A    between atoms: N_18  and  C_19
REMARK    5  A    between atoms: C_19  and  C_20
REMARK    6  A    between atoms: C_20  and  C_21
REMARK    7  A    between atoms: C_21  and  N_22
REMARK    8  A    between atoms: N_22  and  S_23
REMARK    9  A    between atoms: S_23  and  C_26
REMARK                            x       y       z     vdW  Elec       q    Type
REMARK                         _______ _______ _______ _____ _____    ______ ____
ROOT
ATOM      1  C   UNL     1      -2.510  -6.333   4.759  0.00  0.00    +0.142 C 
ENDROOT
BRANCH   1  12
ATOM      2  C   UNL     1       1.516  -1.759  -2.543  0.00  0.00    +0.007 C 
ATOM      3  C   UNL     1       0.744  -1.592  -1.232  0.00  0.00    -0.011 C 
ATOM      4  C   UNL     1       1.541  -2.221  -0.087  0.00  0.00    +0.022 C 
ATOM      5  C   UNL     1       0.782  -2.021   1.228  0.00  0.00    +0.107 C 
ATOM      6  N   UNL     1      -0.578  -2.556   1.075  0.00  0.00    -0.317 N 
ATOM      7  C   UNL     1      -1.400  -2.086  -0.049  0.00  0.00    +0.107 C 
ATOM      8  C   UNL     1      -0.616  -2.284  -1.350  0.00  0.00    +0.022 C 
ATOM      9  C   UNL     1      -1.078  -3.489   1.976  0.00  0.00    +0.099 A 
ATOM     10  C   UNL     1      -2.408  -3.889   1.888  0.00  0.00    +0.042 A 
ATOM     11  C   UNL     1      -2.892  -4.819   2.790  0.00  0.00    +0.010 A 
ATOM     12  C   UNL     1      -2.026  -5.319   3.755  0.00  0.00    -0.014 A 
ATOM     13  C   UNL     1      -0.719  -4.878   3.784  0.00  0.00    +0.089 A 
ATOM     14  N   UNL     1      -0.283  -3.994   2.906  0.00  0.00    -0.349 N 
ATOM     15  H   UNL     1       0.642  -3.704   2.947  0.00  0.00    +0.167 HD
ENDBRANCH   1  12
BRANCH   1  16
ATOM     16  N   UNL     1      -2.304  -7.683   4.228  0.00  0.00    -0.295 N 
ATOM     17  C   UNL     1      -2.664  -8.757   4.959  0.00  0.00    +0.300 C 
ATOM     18  O   UNL     1      -3.161  -8.605   6.058  0.00  0.00    -0.253 OA
ATOM     19  N   UNL     1      -2.474  -9.998   4.471  0.00  0.00    -0.299 N 
ATOM     20  H   UNL     1      -1.907  -7.804   3.351  0.00  0.00    +0.151 HD
ATOM     21  H   UNL     1      -2.078 -10.119   3.594  0.00  0.00    +0.150 HD
BRANCH  19  22
ATOM     22  C   UNL     1      -2.866 -11.165   5.264  0.00  0.00    +0.107 C 
BRANCH  22  23
ATOM     23  C   UNL     1      -2.545 -12.443   4.486  0.00  0.00    +0.035 C 
BRANCH  23  24
ATOM     24  C   UNL     1      -2.955 -13.662   5.316  0.00  0.00    +0.107 C 
BRANCH  24  25
ATOM     25  N   UNL     1      -2.647 -14.885   4.570  0.00  0.00    -0.195 NA
ATOM     26  H   UNL     1      -2.452 -14.839   3.621  0.00  0.00    +0.148 HD
BRANCH  25  27
ATOM     27  S   UNL     1      -2.632 -16.347   5.348  0.00  0.00    +0.027 S 
ATOM     28  O   UNL     1      -2.279 -17.288   4.344  0.00  0.00    -0.158 OA
ATOM     29  O   UNL     1      -1.796 -16.147   6.480  0.00  0.00    -0.158 OA
ATOM     30  C   UNL     1      -4.346 -16.611   5.878  0.00  0.00    +0.214 C 
ENDBRANCH  25  27
ENDBRANCH  24  25
ENDBRANCH  23  24
ENDBRANCH  22  23
ENDBRANCH  19  22
ENDBRANCH   1  16
TORSDOF 7
