REMARK  Name = ZINC14184696
REMARK  5 active torsions:
REMARK  status: ('A' for Active; 'I' for Inactive)
REMARK    1  A    between atoms: C_1  and  C_2
REMARK    2  A    between atoms: C_2  and  C_4
REMARK    3  A    between atoms: C_2  and  N_13
REMARK    4  A    between atoms: C_14  and  C_16
REMARK    5  A    between atoms: C_16  and  N_17
REMARK                            x       y       z     vdW  Elec       q    Type
REMARK                         _______ _______ _______ _____ _____    ______ ____
ROOT
ATOM      1  N   UNL     1       1.139   2.192   0.003  0.00  0.00    -0.304 N 
ATOM      2  C   UNL     1      -0.018   1.503   0.010  0.00  0.00    +0.235 C 
ATOM      3  O   UNL     1      -1.077   2.095   0.018  0.00  0.00    -0.274 OA
ATOM      4  H   UNL     1       1.986   1.719  -0.008  0.00  0.00    +0.149 HD
ENDROOT
BRANCH   1   6
ATOM      5  C   UNL     1       1.001   4.158   1.452  0.00  0.00    +0.036 C 
ATOM      6  C   UNL     1       1.120   3.657   0.011  0.00  0.00    +0.136 C 
BRANCH   6   7
ATOM      7  C   UNL     1       2.395   4.180  -0.599  0.00  0.00    +0.126 A 
ATOM      8  C   UNL     1       2.475   5.235  -1.421  0.00  0.00    +0.055 A 
ATOM      9  C   UNL     1       3.895   5.380  -1.763  0.00  0.00    +0.020 A 
ATOM     10  C   UNL     1       4.621   6.264  -2.560  0.00  0.00    +0.011 A 
ATOM     11  C   UNL     1       5.976   6.122  -2.670  0.00  0.00    +0.001 A 
ATOM     12  C   UNL     1       6.632   5.102  -1.995  0.00  0.00    +0.004 A 
ATOM     13  C   UNL     1       5.931   4.218  -1.203  0.00  0.00    +0.047 A 
ATOM     14  C   UNL     1       4.554   4.346  -1.077  0.00  0.00    +0.135 A 
ATOM     15  O   UNL     1       3.617   3.660  -0.392  0.00  0.00    -0.458 OA
ENDBRANCH   6   7
ENDBRANCH   1   6
BRANCH   2  16
ATOM     16  C   UNL     1       0.002  -0.004   0.002  0.00  0.00    +0.240 C 
BRANCH  16  17
ATOM     17  N   UNL     1      -1.372  -0.511   0.012  0.00  0.00    -0.240 N 
ATOM     18  C   UNL     1      -1.998  -0.726  -1.161  0.00  0.00    +0.274 A 
ATOM     19  O   UNL     1      -1.427  -0.501  -2.210  0.00  0.00    -0.266 OA
ATOM     20  C   UNL     1      -3.385  -1.242  -1.163  0.00  0.00    +0.053 A 
ATOM     21  C   UNL     1      -4.070  -1.483  -2.345  0.00  0.00    +0.014 A 
ATOM     22  C   UNL     1      -5.368  -1.961  -2.299  0.00  0.00    +0.001 A 
ATOM     23  C   UNL     1      -5.986  -2.199  -1.084  0.00  0.00    +0.001 A 
ATOM     24  C   UNL     1      -5.316  -1.964   0.104  0.00  0.00    +0.014 A 
ATOM     25  C   UNL     1      -4.014  -1.485   0.074  0.00  0.00    +0.053 A 
ATOM     26  C   UNL     1      -3.258  -1.217   1.317  0.00  0.00    +0.271 A 
ATOM     27  O   UNL     1      -3.770  -1.415   2.401  0.00  0.00    -0.266 OA
ATOM     28  N   UNL     1      -1.996  -0.752   1.238  0.00  0.00    -0.260 N 
ATOM     29  H   UNL     1      -1.506  -0.579   2.057  0.00  0.00    +0.190 HD
ENDBRANCH  16  17
ENDBRANCH   2  16
TORSDOF 4
