REMARK  Name = ZINC41727620
REMARK  6 active torsions:
REMARK  status: ('A' for Active; 'I' for Inactive)
REMARK    1  A    between atoms: C_1  and  C_2
REMARK    2  A    between atoms: C_2  and  C_4
REMARK    3  A    between atoms: C_2  and  O_12
REMARK    4  A    between atoms: C_4  and  N_5
REMARK    5  A    between atoms: C_6  and  C_8
REMARK    6  A    between atoms: C_8  and  C_10
REMARK                            x       y       z     vdW  Elec       q    Type
REMARK                         _______ _______ _______ _____ _____    ______ ____
ROOT
ATOM      1  N   UNL     1       0.634  -1.958  -1.325  0.00  0.00    -0.312 N 
ATOM      2  C   UNL     1       1.198  -2.618  -2.356  0.00  0.00    +0.226 C 
ATOM      3  O   UNL     1       1.776  -2.002  -3.227  0.00  0.00    -0.275 OA
ATOM      4  H   UNL     1       0.172  -2.451  -0.629  0.00  0.00    +0.149 HD
ENDROOT
BRANCH   2   5
ATOM      5  C   UNL     1       1.112  -4.121  -2.427  0.00  0.00    +0.139 C 
ATOM      6  C   UNL     1       2.481  -4.694  -2.799  0.00  0.00    +0.029 C 
ATOM      7 BR   UNL     1      -0.207  -4.638  -3.790  0.00  0.00    -0.079 Br
ENDBRANCH   2   5
BRANCH   1   8
ATOM      8  C   UNL     1       0.718  -0.497  -1.257  0.00  0.00    +0.135 C 
BRANCH   8  10
ATOM      9  C   UNL     1      -0.019   1.526   0.010  0.00  0.00    +0.039 C 
ATOM     10  C   UNL     1       0.002  -0.004   0.002  0.00  0.00    +0.128 C 
BRANCH  10  11
ATOM     11  O   UNL     1       0.693  -0.477   1.160  0.00  0.00    -0.391 OA
ATOM     12  H   UNL     1       0.294  -0.202   1.996  0.00  0.00    +0.210 HD
ENDBRANCH  10  11
ENDBRANCH   8  10
ENDBRANCH   1   8
TORSDOF 4
