REMARK  Name = ZINC08996049
REMARK  8 active torsions:
REMARK  status: ('A' for Active; 'I' for Inactive)
REMARK    1  A    between atoms: C_4  and  C_7
REMARK    2  A    between atoms: C_7  and  C_8
REMARK    3  A    between atoms: C_8  and  C_10
REMARK    4  A    between atoms: C_8  and  N_23
REMARK    5  A    between atoms: N_12  and  CA_13
REMARK    6  A    between atoms: CA_13  and  C_15
REMARK    7  A    between atoms: CA_13  and  C_21
REMARK    8  A    between atoms: C_33  and  O_34
REMARK                            x       y       z     vdW  Elec       q    Type
REMARK                         _______ _______ _______ _____ _____    ______ ____
ROOT
ATOM      1  C   UNL     1      -0.018   1.503   0.010  0.00  0.00    +0.185 C 
ENDROOT
BRANCH   1   2
ATOM      2  N   UNL     1       1.356   2.010  -0.000  0.00  0.00    -0.250 N 
ATOM      3  C   UNL     1       1.774   2.794  -1.021  0.00  0.00    +0.265 A 
ATOM      4  O   UNL     1       1.028   3.090  -1.936  0.00  0.00    -0.267 OA
ATOM      5  C   UNL     1       3.160   3.280  -0.979  0.00  0.00    +0.065 A 
ATOM      6  C   UNL     1       3.685   4.097  -1.979  0.00  0.00    +0.015 A 
ATOM      7  C   UNL     1       4.984   4.516  -1.893  0.00  0.00    +0.001 A 
ATOM      8  C   UNL     1       5.783   4.137  -0.822  0.00  0.00    +0.002 A 
ATOM      9  C   UNL     1       5.293   3.337   0.172  0.00  0.00    +0.029 A 
ATOM     10  C   UNL     1       3.970   2.892   0.112  0.00  0.00    +0.081 A 
ATOM     11  N   UNL     1       3.442   2.098   1.074  0.00  0.00    -0.196 NA
ATOM     12  C   UNL     1       2.204   1.683   1.015  0.00  0.00    +0.300 A 
BRANCH  12  13
ATOM     13  O   UNL     1       1.744   0.893   2.008  0.00  0.00    -0.479 OA
ATOM     14  H   UNL     1       2.398   0.702   2.694  0.00  0.00    +0.295 HD
ENDBRANCH  12  13
ENDBRANCH   1   2
BRANCH   1  15
ATOM     15  C   UNL     1       0.002  -0.004   0.002  0.00  0.00    +0.237 C 
ATOM     16  O   UNL     1       1.060  -0.596  -0.011  0.00  0.00    -0.274 OA
ATOM     17  N   UNL     1      -1.156  -0.694   0.009  0.00  0.00    -0.297 N 
ATOM     18  H   UNL     1      -2.002  -0.220   0.020  0.00  0.00    +0.150 HD
BRANCH  17  19
ATOM     19  CA  UNL     1      -1.136  -2.159   0.001  0.00  0.00    +0.217 C 
BRANCH  19  20
ATOM     20  C   UNL     1      -2.411  -2.682   0.611  0.00  0.00    -0.016 A 
ATOM     21  C   UNL     1      -3.614  -2.059   0.338  0.00  0.00    +0.006 A 
ATOM     22  C   UNL     1      -4.784  -2.541   0.894  0.00  0.00    +0.000 A 
ATOM     23  C   UNL     1      -4.750  -3.641   1.730  0.00  0.00    +0.000 A 
ATOM     24  C   UNL     1      -3.546  -4.261   2.008  0.00  0.00    +0.000 A 
ATOM     25  C   UNL     1      -2.376  -3.781   1.449  0.00  0.00    +0.006 A 
ENDBRANCH  19  20
BRANCH  19  26
ATOM     26  C   UNL     1      -1.019  -2.652  -1.418  0.00  0.00    +0.380 C 
ATOM     27  O   UNL     1      -0.958  -1.861  -2.329  0.00  0.00    -0.244 OA
ATOM     28  OXT UNL     1      -0.982  -3.970  -1.670  0.00  0.00    -0.244 OA
ENDBRANCH  19  26
ENDBRANCH  17  19
ENDBRANCH   1  15
BRANCH   1  29
ATOM     29  C   UNL     1      -0.735   1.996   1.269  0.00  0.00    +0.070 C 
BRANCH  29  33
ATOM     30  C   UNL     1      -1.101   6.250   1.125  0.00  0.00    +0.000 A 
ATOM     31  C   UNL     1      -2.095   5.452   0.591  0.00  0.00    +0.000 A 
ATOM     32  C   UNL     1      -1.977   4.075   0.638  0.00  0.00    +0.004 A 
ATOM     33  C   UNL     1      -0.864   3.497   1.218  0.00  0.00    -0.045 A 
ATOM     34  C   UNL     1       0.129   4.295   1.756  0.00  0.00    +0.004 A 
ATOM     35  C   UNL     1       0.013   5.671   1.705  0.00  0.00    +0.000 A 
ENDBRANCH  29  33
ENDBRANCH   1  29
TORSDOF 8
