REMARK  Name = ZINC12293721
REMARK  5 active torsions:
REMARK  status: ('A' for Active; 'I' for Inactive)
REMARK    1  A    between atoms: C_6  and  C_7
REMARK    2  A    between atoms: C_7  and  C_9
REMARK    3  A    between atoms: C_7  and  O_27
REMARK    4  A    between atoms: C_9  and  N_50
REMARK    5  A    between atoms: C_16  and  O_26
REMARK                            x       y       z     vdW  Elec       q    Type
REMARK                         _______ _______ _______ _____ _____    ______ ____
ROOT
ATOM      1  C   UNL     1      -0.201   1.266   2.410  0.00  0.00    -0.075 C 
ATOM      2  C   UNL     1      -1.062   1.611   3.627  0.00  0.00    +0.029 C 
ATOM      3  C   UNL     1      -1.062   3.127   3.833  0.00  0.00    +0.110 C 
ATOM      4  C   UNL     1      -1.579   3.811   2.566  0.00  0.00    +0.029 C 
ATOM      5  C   UNL     1      -0.703   3.402   1.379  0.00  0.00    -0.075 C 
ATOM      6  C   UNL     1      -1.972   3.480   5.015  0.00  0.00    +0.084 C 
ATOM      7  C   UNL     1      -1.495   2.692   6.239  0.00  0.00    +0.152 C 
ATOM      8  C   UNL     1      -0.002   2.846   6.389  0.00  0.00    +0.025 A 
ATOM      9  C   UNL     1       0.579   2.547   7.610  0.00  0.00    +0.048 A 
ATOM     10  C   UNL     1       1.945   2.676   7.783  0.00  0.00    +0.124 A 
ATOM     11  C   UNL     1       2.736   3.108   6.732  0.00  0.00    +0.042 A 
ATOM     12  C   UNL     1       2.161   3.407   5.514  0.00  0.00    +0.049 A 
ATOM     13  C   UNL     1       0.787   3.275   5.337  0.00  0.00    +0.127 A 
ATOM     14  O   UNL     1       0.259   3.580   4.123  0.00  0.00    -0.485 OA
ATOM     15  F   UNL     1       2.506   2.381   8.976  0.00  0.00    -0.205 F 
ATOM     16  N   UNL     1      -0.766   1.933   1.218  0.00  0.00    +0.382 N 
ATOM     17  H   UNL     1      -1.748   1.652   1.113  0.00  0.00    -0.082 HD
ENDROOT
BRANCH   7  18
ATOM     18  O   UNL     1      -2.145   3.191   7.409  0.00  0.00    -0.387 OA
ATOM     19  H   UNL     1      -1.891   2.736   8.224  0.00  0.00    +0.210 HD
ENDBRANCH   7  18
BRANCH  16  20
ATOM     20  C   UNL     1      -0.019   1.526   0.010  0.00  0.00    -0.042 C 
BRANCH  20  21
ATOM     21  C   UNL     1       0.006  -0.002  -0.068  0.00  0.00    +0.128 C 
BRANCH  21  27
ATOM     22  C   UNL     1       2.037  -0.837  -1.269  0.00  0.00    +0.009 A 
ATOM     23  C   UNL     1       2.691  -1.229  -2.422  0.00  0.00    +0.041 A 
ATOM     24  C   UNL     1       2.026  -1.213  -3.635  0.00  0.00    +0.158 A 
ATOM     25  C   UNL     1       0.702  -0.803  -3.692  0.00  0.00    +0.159 A 
ATOM     26  C   UNL     1       0.048  -0.417  -2.536  0.00  0.00    +0.047 A 
ATOM     27  C   UNL     1       0.718  -0.429  -1.326  0.00  0.00    -0.018 A 
ATOM     28  F   UNL     1       0.049  -0.787  -4.875  0.00  0.00    -0.202 F 
ATOM     29  F   UNL     1       2.664  -1.596  -4.762  0.00  0.00    -0.202 F 
ENDBRANCH  21  27
BRANCH  21  30
ATOM     30  O   UNL     1      -1.333  -0.500  -0.085  0.00  0.00    -0.389 OA
ATOM     31  H   UNL     1      -1.860  -0.185  -0.832  0.00  0.00    +0.210 HD
ENDBRANCH  21  30
ENDBRANCH  20  21
ENDBRANCH  16  20
TORSDOF 5
