REMARK  Name = ZINC01097613
REMARK  7 active torsions:
REMARK  status: ('A' for Active; 'I' for Inactive)
REMARK    1  A    between atoms: C_1  and  O_2
REMARK    2  A    between atoms: O_2  and  C_3
REMARK    3  A    between atoms: C_6  and  C_9
REMARK    4  A    between atoms: C_14  and  C_19
REMARK    5  A    between atoms: C_33  and  C_35
REMARK    6  A    between atoms: C_35  and  C_36
REMARK    7  A    between atoms: C_36  and  C_37
REMARK                            x       y       z     vdW  Elec       q    Type
REMARK                         _______ _______ _______ _____ _____    ______ ____
ROOT
ATOM      1  C   UNL     1       0.512   5.898   1.304  0.00  0.00    +0.147 C 
ATOM      2  C   UNL     1       1.979   5.574   1.447  0.00  0.00    +0.037 C 
ATOM      3  C   UNL     1       2.657   4.656   0.738  0.00  0.00    +0.017 C 
ATOM      4  C   UNL     1       4.141   4.435   0.979  0.00  0.00    +0.059 C 
ATOM      5  C   UNL     1       4.478   4.702   2.444  0.00  0.00    +0.032 C 
ATOM      6  C   UNL     1       4.094   6.154   2.754  0.00  0.00    +0.088 C 
ATOM      7  C   UNL     1       2.641   6.340   2.437  0.00  0.00    +0.163 C 
ATOM      8  O   UNL     1       2.008   7.177   3.050  0.00  0.00    -0.292 OA
ATOM      9  N   UNL     1       2.115   3.875  -0.232  0.00  0.00    -0.316 N 
ATOM     10  C   UNL     1       0.915   3.185  -0.120  0.00  0.00    +0.053 A 
ATOM     11  C   UNL     1       0.847   1.804  -0.185  0.00  0.00    +0.025 A 
ATOM     12  C   UNL     1      -0.391   1.184  -0.170  0.00  0.00    +0.002 A 
ATOM     13  C   UNL     1      -1.548   1.939  -0.097  0.00  0.00    +0.002 A 
ATOM     14  C   UNL     1      -1.481   3.318  -0.009  0.00  0.00    +0.025 A 
ATOM     15  C   UNL     1      -0.242   3.940  -0.007  0.00  0.00    +0.058 A 
ATOM     16  N   UNL     1      -0.121   5.323   0.136  0.00  0.00    -0.258 N 
ATOM     17  C   UNL     1      -0.599   6.135  -0.828  0.00  0.00    +0.221 C 
ATOM     18  O   UNL     1      -0.498   7.338  -0.713  0.00  0.00    -0.275 OA
ATOM     19  H   UNL     1       2.603   3.792  -1.067  0.00  0.00    +0.152 HD
ENDROOT
BRANCH   1  23
ATOM     20  C   UNL     1      -1.532   4.487   4.782  0.00  0.00    +0.120 A 
ATOM     21  C   UNL     1      -0.925   3.586   3.918  0.00  0.00    +0.046 A 
ATOM     22  C   UNL     1      -0.266   4.045   2.795  0.00  0.00    +0.009 A 
ATOM     23  C   UNL     1      -0.209   5.401   2.530  0.00  0.00    -0.022 A 
ATOM     24  C   UNL     1      -0.807   6.301   3.392  0.00  0.00    +0.009 A 
ATOM     25  C   UNL     1      -1.474   5.847   4.514  0.00  0.00    +0.046 A 
BRANCH  20  27
ATOM     26  C   UNL     1      -2.783   5.023   6.731  0.00  0.00    +0.277 C 
ATOM     27  O   UNL     1      -2.182   4.038   5.887  0.00  0.00    -0.495 OA
ENDBRANCH  20  27
ENDBRANCH   1  23
BRANCH   5  28
ATOM     28  C   UNL     1       5.955   4.505   2.673  0.00  0.00    -0.044 A 
ATOM     29  C   UNL     1       6.871   5.244   1.949  0.00  0.00    +0.004 A 
ATOM     30  C   UNL     1       8.225   5.066   2.162  0.00  0.00    +0.000 A 
ATOM     31  C   UNL     1       8.663   4.142   3.092  0.00  0.00    +0.000 A 
ATOM     32  C   UNL     1       7.747   3.398   3.812  0.00  0.00    +0.000 A 
ATOM     33  C   UNL     1       6.392   3.580   3.602  0.00  0.00    +0.004 A 
ENDBRANCH   5  28
BRANCH  17  34
ATOM     34  C   UNL     1      -1.260   5.548  -2.048  0.00  0.00    +0.107 C 
BRANCH  34  35
ATOM     35  C   UNL     1      -1.710   6.677  -2.978  0.00  0.00    +0.134 C 
BRANCH  35  36
ATOM     36  C   UNL     1      -2.371   6.090  -4.198  0.00  0.00    +0.356 C 
ATOM     37  O   UNL     1      -2.472   4.891  -4.313  0.00  0.00    -0.246 OA
ATOM     38  O   UNL     1      -2.848   6.899  -5.158  0.00  0.00    -0.246 OA
ENDBRANCH  35  36
ENDBRANCH  34  35
ENDBRANCH  17  34
TORSDOF 6
