REMARK  Name = ZINC08754135
REMARK  12 active torsions:
REMARK  status: ('A' for Active; 'I' for Inactive)
REMARK    1  A    between atoms: C_1  and  O_2
REMARK    2  A    between atoms: O_2  and  C_3
REMARK    3  A    between atoms: C_6  and  N_9
REMARK    4  A    between atoms: N_9  and  C_10
REMARK    5  A    between atoms: N_9  and  S_30
REMARK    6  A    between atoms: C_10  and  C_11
REMARK    7  A    between atoms: C_11  and  C_13
REMARK    8  A    between atoms: C_11  and  O_29
REMARK    9  A    between atoms: C_13  and  N_14
REMARK   10  A    between atoms: C_16  and  C_23
REMARK   11  A    between atoms: N_24  and  N_25
REMARK   12  A    between atoms: S_30  and  C_33
REMARK                            x       y       z     vdW  Elec       q    Type
REMARK                         _______ _______ _______ _____ _____    ______ ____
ROOT
ATOM      1  C   UNL     1      -2.130  -0.918   3.665  0.00  0.00    +0.154 C 
ENDROOT
BRANCH   1   2
ATOM      2  N   UNL     1      -1.513  -1.712   4.730  0.00  0.00    -0.343 N 
ATOM      3  C   UNL     1      -1.008  -2.969   4.574  0.00  0.00    +0.096 A 
ATOM      4  C   UNL     1      -0.507  -3.413   5.758  0.00  0.00    +0.020 A 
ATOM      5  C   UNL     1      -0.732  -2.337   6.739  0.00  0.00    +0.008 A 
ATOM      6  C   UNL     1      -1.365  -1.298   6.037  0.00  0.00    +0.050 A 
ATOM      7  C   UNL     1      -1.708  -0.129   6.710  0.00  0.00    +0.026 A 
ATOM      8  C   UNL     1      -1.426  -0.001   8.052  0.00  0.00    +0.002 A 
ATOM      9  C   UNL     1      -0.801  -1.028   8.745  0.00  0.00    +0.001 A 
ATOM     10  C   UNL     1      -0.453  -2.193   8.097  0.00  0.00    +0.010 A 
BRANCH   4  11
ATOM     11  C   UNL     1       0.128  -4.716   6.011  0.00  0.00    +0.140 C 
ATOM     12  N   UNL     1       0.557  -5.009   7.201  0.00  0.00    -0.186 NA
BRANCH  12  13
ATOM     13  N   UNL     1       1.162  -6.250   7.442  0.00  0.00    -0.191 N 
ATOM     14  C   UNL     1       1.607  -6.554   8.678  0.00  0.00    +0.317 C 
ATOM     15  O   UNL     1       2.132  -7.631   8.887  0.00  0.00    -0.251 OA
ATOM     16  N   UNL     1       1.470  -5.664   9.681  0.00  0.00    -0.312 N 
ATOM     17  H   UNL     1       1.260  -6.890   6.720  0.00  0.00    +0.179 HD
ATOM     18  H   UNL     1       1.052  -4.806   9.514  0.00  0.00    +0.147 HD
ATOM     19  H   UNL     1       1.791  -5.883  10.570  0.00  0.00    +0.147 HD
ENDBRANCH  12  13
ENDBRANCH   4  11
ENDBRANCH   1   2
BRANCH   1  20
ATOM     20  C   UNL     1      -1.083   0.013   3.051  0.00  0.00    +0.153 C 
BRANCH  20  21
ATOM     21  O   UNL     1      -0.072  -0.764   2.407  0.00  0.00    -0.388 OA
ATOM     22  H   UNL     1      -0.404  -1.328   1.695  0.00  0.00    +0.210 HD
ENDBRANCH  20  21
BRANCH  20  23
ATOM     23  C   UNL     1      -1.753   0.929   2.025  0.00  0.00    +0.164 C 
BRANCH  23  24
ATOM     24  N   UNL     1      -0.751   1.822   1.438  0.00  0.00    -0.205 N 
BRANCH  24  28
ATOM     25  C   UNL     1       0.255   5.380   3.363  0.00  0.00    +0.120 A 
ATOM     26  C   UNL     1       0.431   5.259   1.992  0.00  0.00    +0.047 A 
ATOM     27  C   UNL     1       0.098   4.081   1.354  0.00  0.00    +0.028 A 
ATOM     28  C   UNL     1      -0.413   3.016   2.084  0.00  0.00    +0.051 A 
ATOM     29  C   UNL     1      -0.594   3.139   3.455  0.00  0.00    +0.028 A 
ATOM     30  C   UNL     1      -0.256   4.317   4.093  0.00  0.00    +0.047 A 
BRANCH  25  32
ATOM     31  C   UNL     1       0.375   6.595   5.403  0.00  0.00    +0.277 C 
ATOM     32  O   UNL     1       0.582   6.541   3.991  0.00  0.00    -0.495 OA
ENDBRANCH  25  32
ENDBRANCH  24  28
BRANCH  24  33
ATOM     33  S   UNL     1      -0.017   1.417   0.010  0.00  0.00    +0.043 S 
ATOM     34  O   UNL     1       0.002  -0.004   0.002  0.00  0.00    -0.155 OA
ATOM     35  O   UNL     1       1.195   2.158   0.002  0.00  0.00    -0.155 OA
ATOM     36  C   UNL     1      -1.135   2.034  -1.279  0.00  0.00    +0.218 C 
ENDBRANCH  24  33
ENDBRANCH  23  24
ENDBRANCH  20  23
ENDBRANCH   1  20
TORSDOF 10
