REMARK  Name = ZINC04624807
REMARK  15 active torsions:
REMARK  status: ('A' for Active; 'I' for Inactive)
REMARK    1  A    between atoms: C_1  and  C_2
REMARK    2  A    between atoms: C_2  and  O_3
REMARK    3  A    between atoms: O_3  and  C_4
REMARK    4  A    between atoms: C_4  and  C_6
REMARK    5  A    between atoms: C_7  and  C_36
REMARK    6  A    between atoms: C_11  and  C_13
REMARK    7  A    between atoms: C_15  and  O_22
REMARK    8  A    between atoms: C_16  and  O_21
REMARK    9  A    between atoms: C_17  and  O_19
REMARK   10  A    between atoms: O_19  and  C_20
REMARK   11  A    between atoms: O_22  and  C_23
REMARK   12  A    between atoms: C_26  and  C_32
REMARK   13  A    between atoms: C_28  and  C_31
REMARK   14  A    between atoms: C_32  and  O_34
REMARK   15  A    between atoms: O_34  and  C_35
REMARK                            x       y       z     vdW  Elec       q    Type
REMARK                         _______ _______ _______ _____ _____    ______ ____
ROOT
ATOM      1  C   UNL     1       2.457   0.070   0.235  0.00  0.00    +0.065 C 
ATOM      2  C   UNL     1       2.399   1.413   0.266  0.00  0.00    +0.016 C 
ATOM      3  N   UNL     1       1.217   2.061   0.037  0.00  0.00    -0.321 N 
ATOM      4  C   UNL     1       0.024   1.402   0.164  0.00  0.00    +0.016 C 
ATOM      5  C   UNL     1      -0.021   0.053   0.133  0.00  0.00    +0.025 C 
ATOM      6  C   UNL     1       1.238  -0.755  -0.057  0.00  0.00    +0.092 C 
ATOM      7  C   UNL     1      -1.237  -0.636   0.279  0.00  0.00    +0.176 C 
ATOM      8  O   UNL     1      -1.244  -1.850   0.239  0.00  0.00    -0.291 OA
ATOM      9  C   UNL     1      -2.532   0.103   0.484  0.00  0.00    +0.171 C 
ATOM     10  C   UNL     1      -2.241   1.435   1.181  0.00  0.00    +0.013 C 
ATOM     11  C   UNL     1      -1.234   2.217   0.333  0.00  0.00    +0.055 C 
ATOM     12  C   UNL     1      -1.653   1.172   2.569  0.00  0.00    +0.009 C 
ATOM     13  C   UNL     1       3.645   2.209   0.555  0.00  0.00    +0.061 C 
ATOM     14  H   UNL     1       1.219   3.122  -0.253  0.00  0.00    +0.152 HD
ENDROOT
BRANCH   6  15
ATOM     15  C   UNL     1       1.302  -1.245  -1.481  0.00  0.00    -0.028 A 
ATOM     16  C   UNL     1       1.316  -0.336  -2.522  0.00  0.00    +0.054 A 
ATOM     17  C   UNL     1       1.379  -0.782  -3.833  0.00  0.00    +0.165 A 
ATOM     18  C   UNL     1       1.418  -2.145  -4.100  0.00  0.00    +0.201 A 
ATOM     19  C   UNL     1       1.399  -3.056  -3.051  0.00  0.00    +0.165 A 
ATOM     20  C   UNL     1       1.340  -2.602  -1.742  0.00  0.00    +0.054 A 
BRANCH  19  21
ATOM     21  O   UNL     1       1.438  -4.391  -3.307  0.00  0.00    -0.491 OA
ATOM     22  C   UNL     1       1.415  -5.269  -2.179  0.00  0.00    +0.277 C 
ENDBRANCH  19  21
BRANCH  18  23
ATOM     23  O   UNL     1       1.475  -2.587  -5.386  0.00  0.00    -0.501 OA
ATOM     24  H   UNL     1       1.506  -3.667  -5.596  0.00  0.00    +0.292 HD
ENDBRANCH  18  23
BRANCH  17  25
ATOM     25  O   UNL     1       1.398   0.113  -4.857  0.00  0.00    -0.491 OA
ATOM     26  C   UNL     1       1.355   1.498  -4.509  0.00  0.00    +0.277 C 
ENDBRANCH  17  25
ENDBRANCH   6  15
BRANCH   1  27
ATOM     27  C   UNL     1       3.690  -0.577   0.482  0.00  0.00    +0.338 C 
ATOM     28  O   UNL     1       3.880  -1.140   1.544  0.00  0.00    -0.245 OA
BRANCH  27  29
ATOM     29  O   UNL     1       4.657  -0.569  -0.459  0.00  0.00    -0.462 OA
BRANCH  29  31
ATOM     30  C   UNL     1       6.844  -1.127  -1.322  0.00  0.00    +0.048 C 
ATOM     31  C   UNL     1       5.877  -1.242  -0.142  0.00  0.00    +0.229 C 
ENDBRANCH  29  31
ENDBRANCH  27  29
ENDBRANCH   1  27
BRANCH   9  32
ATOM     32  C   UNL     1      -3.455  -0.726   1.339  0.00  0.00    +0.318 C 
ATOM     33  O   UNL     1      -3.849  -0.293   2.397  0.00  0.00    -0.250 OA
BRANCH  32  34
ATOM     34  O   UNL     1      -3.840  -1.944   0.927  0.00  0.00    -0.467 OA
ATOM     35  C   UNL     1      -4.730  -2.686   1.802  0.00  0.00    +0.280 C 
ENDBRANCH  32  34
ENDBRANCH   9  32
TORSDOF 9
