REMARK  Name = ZINC18337655
REMARK  10 active torsions:
REMARK  status: ('A' for Active; 'I' for Inactive)
REMARK    1  A    between atoms: C_1  and  C_2
REMARK    2  A    between atoms: C_2  and  C_4
REMARK    3  A    between atoms: C_2  and  S_20
REMARK    4  A    between atoms: C_10  and  C_15
REMARK    5  A    between atoms: S_20  and  C_21
REMARK    6  A    between atoms: C_24  and  C_26
REMARK    7  A    between atoms: C_29  and  C_32
REMARK    8  A    between atoms: C_32  and  C_33
REMARK    9  A    between atoms: C_32  and  C_34
REMARK   10  A    between atoms: C_32  and  C_35
REMARK                            x       y       z     vdW  Elec       q    Type
REMARK                         _______ _______ _______ _____ _____    ______ ____
ROOT
ATOM      1  C   UNL     1      -2.272   5.209   1.489  0.00  0.00    +0.027 C 
ATOM      2  C   UNL     1      -1.823   4.970   0.046  0.00  0.00    +0.119 C 
ENDROOT
BRANCH   2   3
ATOM      3  C   UNL     1      -0.703   3.962   0.030  0.00  0.00    +0.124 A 
ATOM      4  N   UNL     1       0.585   4.394   0.021  0.00  0.00    -0.309 N 
ATOM      5  H   UNL     1       0.766   5.347   0.025  0.00  0.00    +0.170 HD
ATOM      6  C   UNL     1       1.613   3.527   0.006  0.00  0.00    +0.260 A 
ATOM      7  O   UNL     1       2.764   3.931  -0.003  0.00  0.00    -0.267 OA
ATOM      8  C   UNL     1       1.337   2.123   0.001  0.00  0.00    +0.083 A 
ATOM      9  C   UNL     1       2.268   0.999  -0.014  0.00  0.00    +0.039 A 
ATOM     10  C   UNL     1       1.766  -0.262  -0.016  0.00  0.00    +0.059 A 
ATOM     11  S   UNL     1       0.002  -0.004   0.002  0.00  0.00    -0.076 S 
ATOM     12  C   UNL     1      -0.022   1.770   0.012  0.00  0.00    +0.116 A 
ATOM     13  N   UNL     1      -0.986   2.687   0.031  0.00  0.00    -0.225 NA
BRANCH   9  14
ATOM     14  C   UNL     1       3.727   1.229  -0.027  0.00  0.00    +0.136 A 
ATOM     15  C   UNL     1       4.633   0.654   0.808  0.00  0.00    +0.050 A 
ATOM     16  C   UNL     1       5.899   1.154   0.440  0.00  0.00    +0.042 A 
ATOM     17  C   UNL     1       5.704   2.006  -0.585  0.00  0.00    +0.196 A 
ATOM     18  O   UNL     1       4.390   2.049  -0.865  0.00  0.00    -0.463 OA
ENDBRANCH   9  14
ENDBRANCH   2   3
BRANCH   2  19
ATOM     19  S   UNL     1      -3.215   4.340  -0.923  0.00  0.00    -0.055 S 
BRANCH  19  20
ATOM     20  C   UNL     1      -4.286   5.738  -0.864  0.00  0.00    +0.278 A 
ATOM     21  N   UNL     1      -4.045   6.877  -0.257  0.00  0.00    -0.101 NA
ATOM     22  N   UNL     1      -5.045   7.669  -0.420  0.00  0.00    -0.106 NA
ATOM     23  C   UNL     1      -5.963   7.070  -1.138  0.00  0.00    +0.249 A 
ATOM     24  O   UNL     1      -5.500   5.836  -1.439  0.00  0.00    -0.411 OA
BRANCH  23  25
ATOM     25  C   UNL     1      -7.264   7.640  -1.547  0.00  0.00    +0.039 A 
ATOM     26  C   UNL     1      -8.148   6.885  -2.320  0.00  0.00    +0.013 A 
ATOM     27  C   UNL     1      -9.363   7.421  -2.693  0.00  0.00    +0.005 A 
ATOM     28  C   UNL     1      -9.701   8.708  -2.313  0.00  0.00    -0.042 A 
ATOM     29  C   UNL     1      -8.827   9.463  -1.552  0.00  0.00    +0.005 A 
ATOM     30  C   UNL     1      -7.611   8.937  -1.167  0.00  0.00    +0.013 A 
BRANCH  28  31
ATOM     31  C   UNL     1     -11.027   9.289  -2.731  0.00  0.00    -0.013 C 
ATOM     32  C   UNL     1     -10.791  10.545  -3.572  0.00  0.00    +0.015 C 
ATOM     33  C   UNL     1     -11.798   8.258  -3.558  0.00  0.00    +0.015 C 
ATOM     34  C   UNL     1     -11.839   9.654  -1.486  0.00  0.00    +0.015 C 
ENDBRANCH  28  31
ENDBRANCH  23  25
ENDBRANCH  19  20
ENDBRANCH   2  19
TORSDOF 6
