REMARK  Name = ZINC12341105
REMARK  3 active torsions:
REMARK  status: ('A' for Active; 'I' for Inactive)
REMARK    1  A    between atoms: C_1  and  C_2
REMARK    2  A    between atoms: N_9  and  N_10
REMARK    3  A    between atoms: C_11  and  C_12
REMARK                            x       y       z     vdW  Elec       q    Type
REMARK                         _______ _______ _______ _____ _____    ______ ____
ROOT
ATOM      1  C   UNL     1      -0.018   1.503   0.010  0.00  0.00    +0.073 C 
ATOM      2  C   UNL     1       0.002  -0.004   0.002  0.00  0.00    +0.124 A 
ATOM      3  C   UNL     1      -1.250  -0.766   0.004  0.00  0.00    +0.296 A 
ATOM      4  O   UNL     1      -2.324  -0.185   0.012  0.00  0.00    -0.264 OA
ATOM      5  N   UNL     1      -1.205  -2.104  -0.004  0.00  0.00    -0.173 NA
ATOM      6  C   UNL     1      -0.048  -2.736  -0.013  0.00  0.00    +0.233 A 
ATOM      7  N   UNL     1       1.126  -2.054  -0.015  0.00  0.00    -0.247 N 
ATOM      8  N   UNL     1       1.135  -0.653  -0.012  0.00  0.00    -0.171 NA
ATOM      9  N   UNL     1      -0.031  -4.107  -0.021  0.00  0.00    -0.205 N 
ATOM     10  H   UNL     1       0.816  -4.581  -0.028  0.00  0.00    +0.177 HD
ATOM     11  H   UNL     1       1.965  -2.540  -0.022  0.00  0.00    +0.192 HD
ENDROOT
BRANCH   9  12
ATOM     12  N   UNL     1      -1.235  -4.823  -0.019  0.00  0.00    -0.188 NA
ATOM     13  C   UNL     1      -1.218  -6.121  -0.026  0.00  0.00    +0.139 C 
BRANCH  13  14
ATOM     14  C   UNL     1      -2.485  -6.875  -0.024  0.00  0.00    +0.008 A 
ATOM     15  C   UNL     1      -2.471  -8.272  -0.026  0.00  0.00    +0.010 A 
ATOM     16  C   UNL     1      -3.660  -8.970  -0.024  0.00  0.00    +0.001 A 
ATOM     17  C   UNL     1      -4.866  -8.291  -0.020  0.00  0.00    +0.001 A 
ATOM     18  C   UNL     1      -4.888  -6.908  -0.018  0.00  0.00    +0.016 A 
ATOM     19  C   UNL     1      -3.706  -6.195  -0.014  0.00  0.00    +0.027 A 
ATOM     20 BR   UNL     1      -3.739  -4.305  -0.003  0.00  0.00    -0.050 Br
ENDBRANCH  13  14
ENDBRANCH   9  12
TORSDOF 2
