REMARK  Name = ZINC66614297
REMARK  9 active torsions:
REMARK  status: ('A' for Active; 'I' for Inactive)
REMARK    1  A    between atoms: C_1  and  C_2
REMARK    2  A    between atoms: N_7  and  C_9
REMARK    3  A    between atoms: C_9  and  C_11
REMARK    4  A    between atoms: C_9  and  C_12
REMARK    5  A    between atoms: C_12  and  N_13
REMARK    6  A    between atoms: C_14  and  C_16
REMARK    7  A    between atoms: C_16  and  N_17
REMARK    8  A    between atoms: N_20  and  C_21
REMARK    9  A    between atoms: C_21  and  C_22
REMARK                            x       y       z     vdW  Elec       q    Type
REMARK                         _______ _______ _______ _____ _____    ______ ____
ROOT
ATOM      1  N   UNL     1       1.995  -4.565   1.353  0.00  0.00    -0.316 N 
ATOM      2  C   UNL     1       1.953  -5.895   1.139  0.00  0.00    +0.230 C 
ATOM      3  O   UNL     1       1.357  -6.615   1.911  0.00  0.00    -0.274 OA
ATOM      4  H   UNL     1       2.472  -3.989   0.736  0.00  0.00    +0.149 HD
ENDROOT
BRANCH   1   5
ATOM      5  C   UNL     1       1.320  -3.989   2.519  0.00  0.00    +0.089 C 
BRANCH   5   6
ATOM      6  C   UNL     1       1.403  -2.463   2.455  0.00  0.00    -0.054 C 
ATOM      7  C   UNL     1       0.598  -1.859   3.607  0.00  0.00    -0.012 C 
BRANCH   6  13
ATOM      8  C   UNL     1      -2.636  -2.213  -0.299  0.00  0.00    +0.005 C 
ATOM      9  C   UNL     1      -1.141  -1.893  -0.244  0.00  0.00    -0.031 C 
ATOM     10  C   UNL     1      -0.932  -0.389  -0.444  0.00  0.00    -0.001 C 
ATOM     11  C   UNL     1       0.559  -0.068  -0.309  0.00  0.00    -0.018 C 
ATOM     12  C   UNL     1       1.057  -0.547   1.057  0.00  0.00    -0.078 C 
ATOM     13  N   UNL     1       0.854  -1.996   1.175  0.00  0.00    +0.383 N 
ATOM     14  C   UNL     1      -0.580  -2.305   1.118  0.00  0.00    -0.075 C 
ATOM     15  H   UNL     1       1.327  -2.464   0.417  0.00  0.00    -0.081 HD
ENDBRANCH   6  13
ENDBRANCH   5   6
ENDBRANCH   1   5
BRANCH   2  16
ATOM     16  C   UNL     1       2.648  -6.487  -0.060  0.00  0.00    +0.201 C 
BRANCH  16  17
ATOM     17  N   UNL     1       2.456  -7.939  -0.067  0.00  0.00    -0.291 N 
ATOM     18  C   UNL     1       2.992  -8.685  -1.054  0.00  0.00    +0.300 C 
ATOM     19  O   UNL     1       3.635  -8.152  -1.938  0.00  0.00    -0.253 OA
ATOM     20  N   UNL     1       2.816 -10.021  -1.061  0.00  0.00    -0.295 N 
ATOM     21  H   UNL     1       1.943  -8.364   0.637  0.00  0.00    +0.151 HD
ATOM     22  H   UNL     1       2.303 -10.446  -0.356  0.00  0.00    +0.151 HD
BRANCH  20  23
ATOM     23  C   UNL     1       3.399 -10.831  -2.133  0.00  0.00    +0.141 C 
BRANCH  23  24
ATOM     24  C   UNL     1       3.057 -12.282  -1.909  0.00  0.00    -0.030 A 
ATOM     25  C   UNL     1       3.897 -13.081  -1.156  0.00  0.00    +0.006 A 
ATOM     26  C   UNL     1       3.585 -14.411  -0.950  0.00  0.00    +0.020 A 
ATOM     27  C   UNL     1       2.431 -14.943  -1.497  0.00  0.00    +0.041 A 
ATOM     28  C   UNL     1       1.591 -14.143  -2.251  0.00  0.00    +0.020 A 
ATOM     29  C   UNL     1       1.902 -12.812  -2.452  0.00  0.00    +0.006 A 
ATOM     30 CL   UNL     1       2.038 -16.615  -1.240  0.00  0.00    -0.084 Cl
ENDBRANCH  23  24
ENDBRANCH  20  23
ENDBRANCH  16  17
ENDBRANCH   2  16
TORSDOF 7
