REMARK  Name = ZINC51996732
REMARK  4 active torsions:
REMARK  status: ('A' for Active; 'I' for Inactive)
REMARK    1  A    between atoms: N_4  and  C_6
REMARK    2  A    between atoms: C_10  and  C_11
REMARK    3  A    between atoms: N_13  and  C_14
REMARK    4  A    between atoms: C_20  and  O_22
REMARK                            x       y       z     vdW  Elec       q    Type
REMARK                         _______ _______ _______ _____ _____    ______ ____
ROOT
ATOM      1  C   UNL     1       0.285  -2.531   1.949  0.00  0.00    +0.253 C 
ATOM      2  O   UNL     1      -0.233  -1.447   2.144  0.00  0.00    -0.270 OA
ATOM      3  N   UNL     1      -0.046  -3.585   2.721  0.00  0.00    -0.306 N 
ATOM      4  H   UNL     1       0.367  -4.449   2.566  0.00  0.00    +0.149 HD
ENDROOT
BRANCH   3   5
ATOM      5  C   UNL     1      -1.029  -3.425   3.795  0.00  0.00    +0.102 C 
ATOM      6  C   UNL     1      -2.439  -3.588   3.224  0.00  0.00    +0.025 C 
ATOM      7  C   UNL     1      -3.466  -3.421   4.346  0.00  0.00    +0.002 C 
ATOM      8  C   UNL     1      -3.225  -4.484   5.420  0.00  0.00    +0.003 C 
ATOM      9  C   UNL     1      -1.815  -4.321   5.991  0.00  0.00    +0.033 C 
ATOM     10  C   UNL     1      -0.788  -4.488   4.869  0.00  0.00    +0.135 C 
BRANCH  10  11
ATOM     11  O   UNL     1      -0.921  -5.788   4.291  0.00  0.00    -0.390 OA
ATOM     12  H   UNL     1      -0.781  -6.513   4.916  0.00  0.00    +0.210 HD
ENDBRANCH  10  11
ENDBRANCH   3   5
BRANCH   1  17
ATOM     13  C   UNL     1       1.744  -1.741  -0.024  0.00  0.00    +0.065 A 
ATOM     14  C   UNL     1       2.682  -2.200  -0.927  0.00  0.00    +0.034 A 
ATOM     15  C   UNL     1       3.060  -3.499  -0.880  0.00  0.00    +0.048 A 
ATOM     16  S   UNL     1       2.162  -4.149   0.382  0.00  0.00    -0.090 S 
ATOM     17  C   UNL     1       1.266  -2.690   0.878  0.00  0.00    +0.098 A 
BRANCH  13  21
ATOM     18  C   UNL     1      -0.016   1.344   0.009  0.00  0.00    +0.019 A 
ATOM     19  C   UNL     1       1.323   1.786  -0.001  0.00  0.00    +0.019 A 
ATOM     20  C   UNL     1       2.110   0.691  -0.014  0.00  0.00    +0.091 A 
ATOM     21  N   UNL     1       1.305  -0.413  -0.013  0.00  0.00    -0.322 N 
ATOM     22  C   UNL     1       0.002  -0.004   0.002  0.00  0.00    +0.091 A 
ENDBRANCH  13  21
ENDBRANCH   1  17
TORSDOF 4
