REMARK  Name = ZINC20367376
REMARK  10 active torsions:
REMARK  status: ('A' for Active; 'I' for Inactive)
REMARK    1  A    between atoms: C_1  and  C_2
REMARK    2  A    between atoms: C_5  and  C_8
REMARK    3  A    between atoms: C_8  and  O_9
REMARK    4  A    between atoms: O_9  and  C_10
REMARK    5  A    between atoms: C_13  and  C_18
REMARK    6  A    between atoms: C_15  and  O_16
REMARK    7  A    between atoms: O_16  and  C_17
REMARK    8  A    between atoms: C_21  and  C_32
REMARK    9  A    between atoms: C_27  and  N_31
REMARK   10  A    between atoms: C_28  and  C_29
REMARK                            x       y       z     vdW  Elec       q    Type
REMARK                         _______ _______ _______ _____ _____    ______ ____
ROOT
ATOM      1  C   UNL     1       2.290 -10.421  -0.059  0.00  0.00    +0.102 C 
ATOM      2  C   UNL     1       1.503 -10.973  -1.220  0.00  0.00    +0.054 A 
ATOM      3  C   UNL     1       1.756 -10.867  -2.591  0.00  0.00    +0.100 A 
ATOM      4  N   UNL     1       0.797 -11.507  -3.232  0.00  0.00    -0.171 NA
ATOM      5  N   UNL     1      -0.092 -12.037  -2.283  0.00  0.00    -0.246 N 
ATOM      6  H   UNL     1      -0.889 -12.554  -2.475  0.00  0.00    +0.192 HD
ATOM      7  C   UNL     1       0.359 -11.699  -1.057  0.00  0.00    +0.223 A 
ATOM      8  O   UNL     1      -0.160 -11.985   0.164  0.00  0.00    -0.423 OA
ATOM      9  C   UNL     1       0.623 -11.770   1.241  0.00  0.00    +0.200 C 
ATOM     10  C   UNL     1       1.772 -11.058   1.206  0.00  0.00    +0.098 C 
ENDROOT
BRANCH   1  14
ATOM     11  C   UNL     1       1.772  -6.181   0.145  0.00  0.00    +0.162 A 
ATOM     12  C   UNL     1       0.667  -7.018   0.156  0.00  0.00    +0.050 A 
ATOM     13  C   UNL     1       0.838  -8.388   0.089  0.00  0.00    +0.008 A 
ATOM     14  C   UNL     1       2.109  -8.927   0.013  0.00  0.00    -0.031 A 
ATOM     15  C   UNL     1       3.215  -8.097   0.002  0.00  0.00    +0.054 A 
ATOM     16  C   UNL     1       3.051  -6.723   0.063  0.00  0.00    +0.162 A 
BRANCH  16  17
ATOM     17  O   UNL     1       4.137  -5.905   0.047  0.00  0.00    -0.491 OA
ATOM     18  C   UNL     1       5.419  -6.531  -0.040  0.00  0.00    +0.277 C 
ENDBRANCH  16  17
BRANCH  11  19
ATOM     19  O   UNL     1       1.605  -4.833   0.210  0.00  0.00    -0.484 OA
BRANCH  19  20
ATOM     20  C   UNL     1       0.264  -4.348   0.293  0.00  0.00    +0.264 C 
BRANCH  20  25
ATOM     21  C   UNL     1       0.311   1.425   0.536  0.00  0.00    +0.044 C 
ATOM     22  C   UNL     1       0.299  -0.080   0.473  0.00  0.00    -0.050 A 
ATOM     23  C   UNL     1       0.238  -0.720  -0.751  0.00  0.00    +0.004 A 
ATOM     24  C   UNL     1       0.227  -2.101  -0.809  0.00  0.00    +0.007 A 
ATOM     25  C   UNL     1       0.277  -2.842   0.357  0.00  0.00    -0.010 A 
ATOM     26  C   UNL     1       0.338  -2.202   1.581  0.00  0.00    +0.007 A 
ATOM     27  C   UNL     1       0.354  -0.821   1.639  0.00  0.00    +0.004 A 
ENDBRANCH  20  25
ENDBRANCH  19  20
ENDBRANCH  11  19
ENDBRANCH   1  14
BRANCH   3  28
ATOM     28  C   UNL     1       2.902 -10.159  -3.215  0.00  0.00    +0.003 A 
ATOM     29  C   UNL     1       2.703  -9.367  -4.344  0.00  0.00    +0.010 A 
ATOM     30  C   UNL     1       3.772  -8.711  -4.920  0.00  0.00    +0.001 A 
ATOM     31  C   UNL     1       5.039  -8.838  -4.378  0.00  0.00    +0.000 A 
ATOM     32  C   UNL     1       5.242  -9.624  -3.258  0.00  0.00    +0.001 A 
ATOM     33  C   UNL     1       4.179 -10.279  -2.670  0.00  0.00    +0.010 A 
ENDBRANCH   3  28
BRANCH   9  34
ATOM     34  N   UNL     1       0.231 -12.307   2.442  0.00  0.00    -0.328 N 
ATOM     35  H   UNL     1      -0.588 -12.823   2.498  0.00  0.00    +0.145 HD
ATOM     36  H   UNL     1       0.774 -12.169   3.234  0.00  0.00    +0.145 HD
ENDBRANCH   9  34
BRANCH  10  37
ATOM     37  C   UNL     1       2.525 -10.901   2.415  0.00  0.00    +0.101 C 
ATOM     38  N   UNL     1       3.122 -10.777   3.373  0.00  0.00    -0.191 NA
ENDBRANCH  10  37
TORSDOF 8
