REMARK  Name = ZINC35676003
REMARK  3 active torsions:
REMARK  status: ('A' for Active; 'I' for Inactive)
REMARK    1  A    between atoms: C_4  and  S_8
REMARK    2  A    between atoms: S_8  and  C_9
REMARK    3  A    between atoms: C_12  and  N_18
REMARK                            x       y       z     vdW  Elec       q    Type
REMARK                         _______ _______ _______ _____ _____    ______ ____
ROOT
ATOM      1  C   UNL     1       3.620  -2.559  -0.087  0.00  0.00    +0.044 A 
ATOM      2  C   UNL     1       2.341  -3.018  -0.176  0.00  0.00    +0.019 A 
ATOM      3  C   UNL     1       2.036  -4.379  -0.215  0.00  0.00    +0.026 A 
ATOM      4  C   UNL     1       2.994  -5.343  -0.167  0.00  0.00    +0.056 A 
ATOM      5  C   UNL     1       4.404  -4.957  -0.071  0.00  0.00    +0.156 A 
ATOM      6  C   UNL     1       4.729  -3.517  -0.035  0.00  0.00    +0.150 A 
ATOM      7  N   UNL     1       6.031  -3.394   0.045  0.00  0.00    -0.048 NA
ATOM      8  O   UNL     1       6.592  -4.696   0.059  0.00  0.00    -0.241 OA
ATOM      9  N   UNL     1       5.528  -5.630  -0.009  0.00  0.00    -0.047 NA
ENDROOT
BRANCH   4  10
ATOM     10  N   UNL     1       2.635  -6.693  -0.209  0.00  0.00    -0.356 N 
ATOM     11  H   UNL     1       1.701  -6.945  -0.273  0.00  0.00    +0.142 HD
ATOM     12  H   UNL     1       3.321  -7.378  -0.175  0.00  0.00    +0.142 HD
ENDBRANCH   4  10
BRANCH   1  13
ATOM     13  S   UNL     1       3.940  -0.827  -0.042  0.00  0.00    -0.086 S 
BRANCH  13  17
ATOM     14  C   UNL     1       4.912  -0.004   4.306  0.00  0.00    +0.021 A 
ATOM     15  C   UNL     1       5.037   1.005   3.369  0.00  0.00    +0.022 A 
ATOM     16  C   UNL     1       4.741   0.758   2.042  0.00  0.00    +0.055 A 
ATOM     17  C   UNL     1       4.318  -0.508   1.649  0.00  0.00    +0.032 A 
ATOM     18  C   UNL     1       4.195  -1.519   2.594  0.00  0.00    +0.036 A 
ATOM     19  C   UNL     1       4.492  -1.265   3.919  0.00  0.00    +0.042 A 
ATOM     20 CL   UNL     1       4.339  -2.528   5.100  0.00  0.00    -0.084 Cl
ATOM     21 CL   UNL     1       4.896   2.026   0.867  0.00  0.00    -0.082 Cl
ENDBRANCH  13  17
ENDBRANCH   1  13
TORSDOF 3
