REMARK  Name = ZINC14511824
REMARK  9 active torsions:
REMARK  status: ('A' for Active; 'I' for Inactive)
REMARK    1  A    between atoms: C_1  and  O_2
REMARK    2  A    between atoms: O_2  and  C_3
REMARK    3  A    between atoms: C_3  and  C_4
REMARK    4  A    between atoms: C_4  and  N_5
REMARK    5  A    between atoms: N_5  and  C_6
REMARK    6  A    between atoms: C_7  and  N_22
REMARK    7  A    between atoms: N_8  and  C_15
REMARK    8  A    between atoms: C_15  and  C_16
REMARK    9  A    between atoms: C_23  and  C_25
REMARK                            x       y       z     vdW  Elec       q    Type
REMARK                         _______ _______ _______ _____ _____    ______ ____
ROOT
ATOM      1  C   UNL     1      -2.490   3.767  -0.305  0.00  0.00    +0.140 A 
ATOM      2  C   UNL     1      -3.484   2.823  -0.463  0.00  0.00    +0.128 A 
ATOM      3  N   UNL     1      -4.783   3.239  -0.639  0.00  0.00    -0.276 N 
ATOM      4  C   UNL     1      -5.080   4.551  -0.668  0.00  0.00    +0.331 A 
ATOM      5  O   UNL     1      -6.234   4.899  -0.830  0.00  0.00    -0.246 OA
ATOM      6  N   UNL     1      -4.124   5.486  -0.521  0.00  0.00    -0.273 N 
ATOM      7  H   UNL     1      -4.371   6.454  -0.546  0.00  0.00    +0.173 HD
ATOM      8  C   UNL     1      -2.836   5.131  -0.340  0.00  0.00    +0.277 A 
ATOM      9  O   UNL     1      -1.977   5.987  -0.207  0.00  0.00    -0.266 OA
ENDROOT
BRANCH   1  10
ATOM     10  N   UNL     1      -1.149   3.373  -0.117  0.00  0.00    -0.258 N 
ATOM     11  C   UNL     1      -0.466   2.802  -1.129  0.00  0.00    +0.251 C 
ATOM     12  O   UNL     1       0.658   2.378  -0.941  0.00  0.00    -0.270 OA
BRANCH  11  13
ATOM     13  C   UNL     1      -1.084   2.691  -2.467  0.00  0.00    +0.037 A 
ATOM     14  C   UNL     1      -2.144   3.527  -2.821  0.00  0.00    +0.014 A 
ATOM     15  C   UNL     1      -2.720   3.416  -4.069  0.00  0.00    +0.016 A 
ATOM     16  C   UNL     1      -2.249   2.476  -4.971  0.00  0.00    +0.018 A 
ATOM     17  C   UNL     1      -1.197   1.643  -4.625  0.00  0.00    +0.016 A 
ATOM     18  C   UNL     1      -0.613   1.746  -3.380  0.00  0.00    +0.014 A 
ATOM     19 BR   UNL     1      -3.043   2.330  -6.680  0.00  0.00    -0.050 Br
ENDBRANCH  11  13
BRANCH  10  20
ATOM     20  C   UNL     1      -0.498   3.583   1.179  0.00  0.00    +0.142 C 
BRANCH  20  21
ATOM     21  C   UNL     1       0.260   4.912   1.159  0.00  0.00    +0.179 C 
BRANCH  21  23
ATOM     22  C   UNL     1      -0.046   7.278   1.394  0.00  0.00    +0.194 C 
ATOM     23  O   UNL     1      -0.655   5.985   1.392  0.00  0.00    -0.381 OA
ENDBRANCH  21  23
ENDBRANCH  20  21
ENDBRANCH  10  20
ENDBRANCH   1  10
BRANCH   2  24
ATOM     24  N   UNL     1      -3.180   1.483  -0.440  0.00  0.00    -0.343 N 
ATOM     25  H   UNL     1      -2.274   1.194  -0.247  0.00  0.00    +0.144 HD
ATOM     26  H   UNL     1      -3.871   0.826  -0.617  0.00  0.00    +0.144 HD
ENDBRANCH   2  24
BRANCH   3  27
ATOM     27  C   UNL     1      -5.849   2.248  -0.803  0.00  0.00    +0.163 C 
BRANCH  27  28
ATOM     28  C   UNL     1      -6.013   1.923  -2.266  0.00  0.00    -0.028 A 
ATOM     29  C   UNL     1      -6.895   2.652  -3.041  0.00  0.00    +0.005 A 
ATOM     30  C   UNL     1      -7.041   2.357  -4.384  0.00  0.00    +0.000 A 
ATOM     31  C   UNL     1      -6.313   1.327  -4.949  0.00  0.00    +0.000 A 
ATOM     32  C   UNL     1      -5.435   0.595  -4.172  0.00  0.00    +0.000 A 
ATOM     33  C   UNL     1      -5.284   0.893  -2.830  0.00  0.00    +0.005 A 
ENDBRANCH  27  28
ENDBRANCH   3  27
TORSDOF 8
