REMARK  Name = ZINC34785969
REMARK  6 active torsions:
REMARK  status: ('A' for Active; 'I' for Inactive)
REMARK    1  A    between atoms: C_1  and  C_2
REMARK    2  A    between atoms: C_2  and  N_3
REMARK    3  A    between atoms: N_11  and  C_12
REMARK    4  A    between atoms: C_13  and  C_19
REMARK    5  A    between atoms: C_14  and  C_18
REMARK    6  A    between atoms: C_15  and  C_17
REMARK                            x       y       z     vdW  Elec       q    Type
REMARK                         _______ _______ _______ _____ _____    ______ ____
ROOT
ATOM      1  N   UNL     1      -1.371  -0.513   0.005  0.00  0.00    +0.382 N 
ATOM      2  C   UNL     1      -2.050  -0.117  -1.236  0.00  0.00    -0.059 C 
ATOM      3  C   UNL     1      -3.519  -0.547  -1.173  0.00  0.00    +0.091 C 
ATOM      4  N   UNL     1      -3.571  -1.989  -0.886  0.00  0.00    -0.289 N 
ATOM      5  C   UNL     1      -2.785  -2.499   0.247  0.00  0.00    +0.091 C 
ATOM      6  C   UNL     1      -1.350  -1.977   0.117  0.00  0.00    -0.059 C 
ATOM      7  C   UNL     1      -4.319  -2.818  -1.641  0.00  0.00    +0.307 C 
ATOM      8  O   UNL     1      -5.033  -2.367  -2.515  0.00  0.00    -0.252 OA
ATOM      9  N   UNL     1      -4.275  -4.148  -1.425  0.00  0.00    -0.263 N 
ATOM     10  H   UNL     1      -3.764  -4.502  -0.681  0.00  0.00    +0.157 HD
ATOM     11  H   UNL     1      -1.864  -0.124   0.794  0.00  0.00    -0.082 HD
ENDROOT
BRANCH   9  12
ATOM     12  C   UNL     1      -4.960  -5.010  -2.268  0.00  0.00    +0.086 A 
ATOM     13  C   UNL     1      -5.033  -6.393  -2.198  0.00  0.00    +0.068 A 
ATOM     14  C   UNL     1      -5.824  -7.051  -3.213  0.00  0.00    -0.027 A 
ATOM     15  C   UNL     1      -6.405  -6.244  -4.119  0.00  0.00    -0.008 A 
ATOM     16  S   UNL     1      -5.897  -4.618  -3.604  0.00  0.00    -0.078 S 
ATOM     17  C   UNL     1      -7.280  -6.624  -5.286  0.00  0.00    +0.052 C 
ATOM     18  C   UNL     1      -5.987  -8.549  -3.255  0.00  0.00    +0.045 C 
BRANCH  13  19
ATOM     19  C   UNL     1      -4.343  -7.149  -1.148  0.00  0.00    +0.244 C 
ATOM     20  O   UNL     1      -4.909  -7.387  -0.097  0.00  0.00    -0.270 OA
ATOM     21  N   UNL     1      -3.082  -7.580  -1.347  0.00  0.00    -0.325 N 
ATOM     22  H   UNL     1      -2.630  -7.391  -2.184  0.00  0.00    +0.145 HD
ATOM     23  H   UNL     1      -2.625  -8.080  -0.652  0.00  0.00    +0.145 HD
ENDBRANCH  13  19
ENDBRANCH   9  12
BRANCH   1  25
ATOM     24  C   UNL     1      -0.013   1.524  -0.001  0.00  0.00    -0.017 C 
ATOM     25  C   UNL     1       0.007  -0.005  -0.009  0.00  0.00    -0.082 C 
ENDBRANCH   1  25
TORSDOF 3
