REMARK  Name = ZINC09691309
REMARK  3 active torsions:
REMARK  status: ('A' for Active; 'I' for Inactive)
REMARK    1  A    between atoms: N_13  and  C_17
REMARK    2  A    between atoms: C_17  and  C_18
REMARK    3  A    between atoms: N_23  and  C_24
REMARK                            x       y       z     vdW  Elec       q    Type
REMARK                         _______ _______ _______ _____ _____    ______ ____
ROOT
ATOM      1  C   UNL     1       1.462   2.863   3.605  0.00  0.00    +0.001 A 
ATOM      2  C   UNL     1       2.267   3.987   3.550  0.00  0.00    +0.004 A 
ATOM      3  C   UNL     1       2.788   4.403   2.342  0.00  0.00    +0.046 A 
ATOM      4  C   UNL     1       2.506   3.696   1.177  0.00  0.00    +0.126 A 
ATOM      5  C   UNL     1       1.704   2.568   1.236  0.00  0.00    +0.027 A 
ATOM      6  C   UNL     1       1.183   2.157   2.451  0.00  0.00    +0.010 A 
ATOM      7  C   UNL     1       1.386   1.777  -0.002  0.00  0.00    +0.144 C 
ATOM      8  C   UNL     1       1.684   2.593  -1.256  0.00  0.00    +0.081 C 
ATOM      9  C   UNL     1       3.072   3.229  -1.098  0.00  0.00    +0.232 C 
ATOM     10  O   UNL     1       3.031   4.136   0.005  0.00  0.00    -0.492 OA
ATOM     11  C   UNL     1       2.171   0.485  -0.016  0.00  0.00    +0.252 C 
ATOM     12  O   UNL     1       3.376   0.358  -0.028  0.00  0.00    -0.272 OA
ATOM     13  N   UNL     1       1.246  -0.498  -0.012  0.00  0.00    -0.215 N 
ATOM     14  C   UNL     1       0.002  -0.004   0.002  0.00  0.00    +0.310 C 
ATOM     15  O   UNL     1      -0.999  -0.694   0.007  0.00  0.00    -0.252 OA
ATOM     16  N   UNL     1      -0.016   1.343   0.009  0.00  0.00    -0.281 N 
ATOM     17  H   UNL     1      -0.801   1.913   0.016  0.00  0.00    +0.152 HD
ENDROOT
BRANCH  13  18
ATOM     18  C   UNL     1       1.565  -1.928  -0.024  0.00  0.00    +0.214 C 
BRANCH  18  19
ATOM     19  C   UNL     1       1.660  -2.410  -1.448  0.00  0.00    +0.238 C 
ATOM     20  O   UNL     1       1.480  -1.635  -2.364  0.00  0.00    -0.274 OA
ATOM     21  N   UNL     1       1.946  -3.702  -1.705  0.00  0.00    -0.239 N 
ATOM     22  C   UNL     1       2.031  -4.133  -2.979  0.00  0.00    +0.306 C 
ATOM     23  O   UNL     1       1.851  -3.356  -3.897  0.00  0.00    -0.252 OA
ATOM     24  N   UNL     1       2.317  -5.425  -3.236  0.00  0.00    -0.296 N 
ATOM     25  H   UNL     1       2.090  -4.321  -0.973  0.00  0.00    +0.159 HD
ATOM     26  H   UNL     1       2.461  -6.044  -2.503  0.00  0.00    +0.151 HD
BRANCH  24  27
ATOM     27  C   UNL     1       2.409  -5.893  -4.621  0.00  0.00    +0.074 C 
ATOM     28  C   UNL     1       1.015  -6.309  -5.133  0.00  0.00    +0.022 C 
ATOM     29  C   UNL     1       1.291  -7.547  -6.023  0.00  0.00    +0.002 C 
ATOM     30  C   UNL     1       2.412  -8.283  -5.248  0.00  0.00    +0.002 C 
ATOM     31  C   UNL     1       3.298  -7.147  -4.694  0.00  0.00    +0.022 C 
ENDBRANCH  24  27
ENDBRANCH  18  19
ENDBRANCH  13  18
TORSDOF 3
