REMARK  Name = ZINC63466959
REMARK  4 active torsions:
REMARK  status: ('A' for Active; 'I' for Inactive)
REMARK    1  A    between atoms: C_3  and  N_25
REMARK    2  A    between atoms: C_6  and  N_7
REMARK    3  A    between atoms: C_10  and  C_12
REMARK    4  A    between atoms: C_20  and  O_24
REMARK                            x       y       z     vdW  Elec       q    Type
REMARK                         _______ _______ _______ _____ _____    ______ ____
ROOT
ATOM      1  N   UNL     1      -1.203  -0.717  -0.092  0.00  0.00    -0.239 N 
ATOM      2  C   UNL     1      -1.297  -2.071  -0.043  0.00  0.00    +0.115 A 
ATOM      3  C   UNL     1      -2.614  -2.378   0.012  0.00  0.00    +0.054 A 
ATOM      4  C   UNL     1      -3.294  -1.137  -0.008  0.00  0.00    +0.148 A 
ATOM      5  N   UNL     1      -2.376  -0.192  -0.065  0.00  0.00    -0.162 NA
ENDROOT
BRANCH   4   6
ATOM      6  C   UNL     1      -4.757  -0.937   0.034  0.00  0.00    +0.267 C 
ATOM      7  O   UNL     1      -5.503  -1.895  -0.027  0.00  0.00    -0.268 OA
ATOM      8  N   UNL     1      -5.264   0.307   0.141  0.00  0.00    -0.292 N 
ATOM      9  C   UNL     1      -6.713   0.534   0.270  0.00  0.00    +0.113 C 
ATOM     10  C   UNL     1      -6.970   1.161   1.640  0.00  0.00    +0.054 C 
ATOM     11  C   UNL     1      -6.017   2.299   1.896  0.00  0.00    -0.041 A 
ATOM     12  C   UNL     1      -6.373   3.230   2.865  0.00  0.00    +0.007 A 
ATOM     13  C   UNL     1      -5.544   4.292   3.158  0.00  0.00    +0.045 A 
ATOM     14  C   UNL     1      -4.342   4.434   2.480  0.00  0.00    +0.117 A 
ATOM     15  C   UNL     1      -3.988   3.509   1.513  0.00  0.00    +0.050 A 
ATOM     16  C   UNL     1      -4.828   2.445   1.217  0.00  0.00    -0.023 A 
ATOM     17  C   UNL     1      -4.395   1.488   0.140  0.00  0.00    +0.143 C 
BRANCH  14  18
ATOM     18  O   UNL     1      -3.516   5.475   2.765  0.00  0.00    -0.507 OA
ATOM     19  H   UNL     1      -2.873   5.288   3.462  0.00  0.00    +0.292 HD
ENDBRANCH  14  18
ENDBRANCH   4   6
BRANCH   1  25
ATOM     20  C   UNL     1      -0.026   1.391  -0.197  0.00  0.00    +0.030 A 
ATOM     21  C   UNL     1       1.159   2.098  -0.261  0.00  0.00    +0.035 A 
ATOM     22  C   UNL     1       2.367   1.425  -0.284  0.00  0.00    +0.126 A 
ATOM     23  C   UNL     1       2.393   0.043  -0.244  0.00  0.00    +0.035 A 
ATOM     24  C   UNL     1       1.211  -0.669  -0.180  0.00  0.00    +0.030 A 
ATOM     25  C   UNL     1      -0.003   0.004  -0.156  0.00  0.00    +0.065 A 
BRANCH  22  26
ATOM     26  N   UNL     1       3.635   2.186  -0.353  0.00  0.00    +0.056 N 
ATOM     27  O   UNL     1       3.614   3.394  -0.388  0.00  0.00    -0.126 OA
ATOM     28  O   UNL     1       4.692   1.599  -0.373  0.00  0.00    -0.126 OA
ENDBRANCH  22  26
ENDBRANCH   1  25
TORSDOF 4
