REMARK  Name = ZINC67384682
REMARK  10 active torsions:
REMARK  status: ('A' for Active; 'I' for Inactive)
REMARK    1  A    between atoms: C_1  and  C_2
REMARK    2  A    between atoms: C_2  and  C_3
REMARK    3  A    between atoms: C_2  and  C_4
REMARK    4  A    between atoms: C_4  and  N_5
REMARK    5  A    between atoms: C_9  and  C_12
REMARK    6  A    between atoms: C_12  and  N_13
REMARK    7  A    between atoms: N_16  and  N_17
REMARK    8  A    between atoms: C_18  and  C_20
REMARK    9  A    between atoms: C_20  and  C_21
REMARK   10  A    between atoms: C_21  and  C_22
REMARK                            x       y       z     vdW  Elec       q    Type
REMARK                         _______ _______ _______ _____ _____    ______ ____
ROOT
ATOM      1  N   UNL     1      -3.987  -6.143   0.249  0.00  0.00    -0.296 N 
ATOM      2  C   UNL     1      -5.104  -6.883   0.395  0.00  0.00    +0.316 C 
ATOM      3  O   UNL     1      -6.186  -6.337   0.498  0.00  0.00    -0.251 OA
ATOM      4  N   UNL     1      -5.023  -8.228   0.425  0.00  0.00    -0.218 N 
ATOM      5  H   UNL     1      -3.125  -6.579   0.166  0.00  0.00    +0.150 HD
ATOM      6  H   UNL     1      -5.827  -8.761   0.530  0.00  0.00    +0.174 HD
ENDROOT
BRANCH   4   7
ATOM      7  N   UNL     1      -3.777  -8.857   0.305  0.00  0.00    -0.233 N 
ATOM      8  C   UNL     1      -3.695 -10.202   0.336  0.00  0.00    +0.229 C 
ATOM      9  O   UNL     1      -4.700 -10.868   0.467  0.00  0.00    -0.274 OA
ATOM     10  H   UNL     1      -2.973  -8.325   0.200  0.00  0.00    +0.173 HD
BRANCH   8  11
ATOM     11  C   UNL     1      -2.355 -10.879   0.207  0.00  0.00    +0.097 C 
BRANCH  11  12
ATOM     12  C   UNL     1      -2.541 -12.396   0.272  0.00  0.00    +0.013 C 
BRANCH  12  13
ATOM     13  C   UNL     1      -1.180 -13.083   0.141  0.00  0.00    -0.011 C 
ATOM     14  C   UNL     1      -0.601 -12.806  -1.247  0.00  0.00    +0.003 C 
ATOM     15  C   UNL     1       0.760 -13.493  -1.378  0.00  0.00    +0.000 C 
ATOM     16  C   UNL     1       0.590 -15.002  -1.188  0.00  0.00    +0.000 C 
ATOM     17  C   UNL     1       0.011 -15.279   0.201  0.00  0.00    +0.000 C 
ATOM     18  C   UNL     1      -1.350 -14.592   0.332  0.00  0.00    +0.003 C 
ENDBRANCH  12  13
ENDBRANCH  11  12
ENDBRANCH   8  11
ENDBRANCH   4   7
BRANCH   1  19
ATOM     19  C   UNL     1      -4.076  -4.681   0.215  0.00  0.00    +0.138 C 
BRANCH  19  24
ATOM     20  N   UNL     1      -1.416  -1.997  -0.116  0.00  0.00    -0.297 NA
ATOM     21  C   UNL     1      -0.910  -2.404  -1.435  0.00  0.00    +0.112 C 
ATOM     22  C   UNL     1      -0.853  -3.932  -1.504  0.00  0.00    +0.175 C 
ATOM     23  O   UNL     1      -2.153  -4.465  -1.234  0.00  0.00    -0.372 OA
ATOM     24  C   UNL     1      -2.676  -4.089   0.042  0.00  0.00    +0.149 C 
ATOM     25  C   UNL     1      -2.751  -2.563   0.127  0.00  0.00    +0.117 C 
BRANCH  20  26
ATOM     26  C   UNL     1      -1.433  -0.534   0.013  0.00  0.00    +0.087 C 
BRANCH  26  28
ATOM     27  C   UNL     1      -0.019   1.526   0.010  0.00  0.00    +0.008 C 
ATOM     28  C   UNL     1       0.002  -0.004   0.002  0.00  0.00    -0.003 C 
ATOM     29  C   UNL     1       0.742  -0.511   1.242  0.00  0.00    +0.008 C 
ENDBRANCH  26  28
ENDBRANCH  20  26
ENDBRANCH  19  24
ENDBRANCH   1  19
TORSDOF 8
