REMARK  Name = ZINC20448801
REMARK  4 active torsions:
REMARK  status: ('A' for Active; 'I' for Inactive)
REMARK    1  A    between atoms: C_6  and  C_7
REMARK    2  A    between atoms: C_7  and  C_8
REMARK    3  A    between atoms: C_10  and  C_13
REMARK    4  A    between atoms: C_23  and  C_26
REMARK                            x       y       z     vdW  Elec       q    Type
REMARK                         _______ _______ _______ _____ _____    ______ ____
ROOT
ATOM      1  C   UNL     1      -1.756   8.353  -0.313  0.00  0.00    +0.055 A 
ATOM      2  C   UNL     1      -3.069   7.875  -0.182  0.00  0.00    +0.018 A 
ATOM      3  C   UNL     1      -3.263   6.525  -0.059  0.00  0.00    +0.042 A 
ATOM      4  C   UNL     1      -2.161   5.672  -0.067  0.00  0.00    +0.099 A 
ATOM      5  N   UNL     1      -0.931   6.150  -0.186  0.00  0.00    -0.349 N 
ATOM      6  C   UNL     1      -0.700   7.441  -0.312  0.00  0.00    +0.097 A 
ATOM      7  N   UNL     1      -2.354   4.305   0.058  0.00  0.00    -0.316 N 
ATOM      8  C   UNL     1      -3.110   3.989   1.277  0.00  0.00    +0.106 C 
ATOM      9  C   UNL     1      -3.429   2.492   1.307  0.00  0.00    +0.020 C 
ATOM     10  C   UNL     1      -2.122   1.696   1.274  0.00  0.00    +0.016 C 
ATOM     11  C   UNL     1      -1.331   2.079   0.020  0.00  0.00    +0.092 C 
ATOM     12  C   UNL     1      -1.073   3.588   0.027  0.00  0.00    +0.119 C 
ATOM     13  H   UNL     1      -0.071   5.464  -0.181  0.00  0.00    +0.167 HD
ENDROOT
BRANCH   1  16
ATOM     14  C   UNL     1      -0.572  11.696  -0.666  0.00  0.00    +0.176 A 
ATOM     15  N   UNL     1      -0.316  10.382  -0.572  0.00  0.00    -0.191 NA
ATOM     16  C   UNL     1      -1.497   9.800  -0.448  0.00  0.00    +0.260 A 
ATOM     17  O   UNL     1      -2.413  10.781  -0.463  0.00  0.00    -0.333 OA
ATOM     18  N   UNL     1      -1.861  11.853  -0.588  0.00  0.00    -0.061 NA
BRANCH  14  19
ATOM     19  C   UNL     1       0.450  12.792  -0.827  0.00  0.00    +0.114 C 
BRANCH  19  25
ATOM     20  C   UNL     1       0.219  14.311   1.149  0.00  0.00    +0.007 A 
ATOM     21  C   UNL     1       0.618  14.748   2.398  0.00  0.00    +0.038 A 
ATOM     22  C   UNL     1       1.697  14.152   3.027  0.00  0.00    +0.123 A 
ATOM     23  C   UNL     1       2.372  13.114   2.407  0.00  0.00    +0.038 A 
ATOM     24  C   UNL     1       1.967  12.675   1.160  0.00  0.00    +0.007 A 
ATOM     25  C   UNL     1       0.890  13.271   0.533  0.00  0.00    -0.040 A 
ATOM     26  F   UNL     1       2.091  14.581   4.246  0.00  0.00    -0.205 F 
ENDBRANCH  19  25
ENDBRANCH  14  19
ENDBRANCH   1  16
BRANCH  11  27
ATOM     27  C   UNL     1      -0.016   1.344   0.009  0.00  0.00    +0.215 C 
ATOM     28  O   UNL     1       1.026   1.964   0.003  0.00  0.00    -0.276 OA
ATOM     29  N   UNL     1       0.002  -0.004   0.002  0.00  0.00    -0.329 N 
ATOM     30  H   UNL     1       0.962  -0.541  -0.005  0.00  0.00    +0.145 HD
ATOM     31  H   UNL     1      -0.943  -0.567   0.004  0.00  0.00    +0.145 HD
ENDBRANCH  11  27
TORSDOF 4
