REMARK  Name = ZINC04815572
REMARK  4 active torsions:
REMARK  status: ('A' for Active; 'I' for Inactive)
REMARK    1  A    between atoms: C_4  and  O_19
REMARK    2  A    between atoms: C_5  and  C_7
REMARK    3  A    between atoms: N_9  and  N_10
REMARK    4  A    between atoms: C_11  and  C_12
REMARK                            x       y       z     vdW  Elec       q    Type
REMARK                         _______ _______ _______ _____ _____    ______ ____
ROOT
ATOM      1  C   UNL     1       0.026   0.008   2.496  0.00  0.00    +0.267 C 
ATOM      2  O   UNL     1       0.010   1.225   2.510  0.00  0.00    -0.268 OA
ATOM      3  N   UNL     1       0.046  -0.679   3.655  0.00  0.00    -0.203 N 
ATOM      4  H   UNL     1       0.059  -1.649   3.644  0.00  0.00    +0.178 HD
ENDROOT
BRANCH   1   9
ATOM      5  C   UNL     1       0.040  -2.781  -0.015  0.00  0.00    +0.001 A 
ATOM      6  C   UNL     1       0.018  -2.075  -1.207  0.00  0.00    +0.004 A 
ATOM      7  C   UNL     1      -0.006  -0.694  -1.201  0.00  0.00    +0.046 A 
ATOM      8  C   UNL     1       0.002  -0.004   0.002  0.00  0.00    +0.129 A 
ATOM      9  C   UNL     1       0.023  -0.715   1.210  0.00  0.00    +0.080 A 
ATOM     10  C   UNL     1       0.042  -2.111   1.189  0.00  0.00    +0.017 A 
BRANCH   8  11
ATOM     11  O   UNL     1      -0.016   1.352   0.009  0.00  0.00    -0.506 OA
ATOM     12  H   UNL     1       0.862   1.758   0.003  0.00  0.00    +0.292 HD
ENDBRANCH   8  11
ENDBRANCH   1   9
BRANCH   3  13
ATOM     13  N   UNL     1       0.049   0.008   4.876  0.00  0.00    -0.184 NA
ATOM     14  C   UNL     1       0.069  -0.655   5.996  0.00  0.00    +0.176 C 
BRANCH  14  15
ATOM     15  C   UNL     1       0.071   0.063   7.273  0.00  0.00    +0.150 A 
ATOM     16  C   UNL     1       0.085  -0.507   8.513  0.00  0.00    +0.067 A 
ATOM     17  C   UNL     1       0.086   0.548   9.444  0.00  0.00    +0.071 A 
ATOM     18  C   UNL     1       0.063   1.699   8.738  0.00  0.00    +0.185 A 
ATOM     19  O   UNL     1       0.054   1.402   7.428  0.00  0.00    -0.446 OA
ATOM     20 BR   UNL     1       0.047   3.442   9.473  0.00  0.00    -0.007 Br
ATOM     21 BR   UNL     1       0.107   0.385  11.328  0.00  0.00    -0.046 Br
ENDBRANCH  14  15
ENDBRANCH   3  13
TORSDOF 4
