REMARK  Name = ZINC33253898
REMARK  8 active torsions:
REMARK  status: ('A' for Active; 'I' for Inactive)
REMARK    1  A    between atoms: C_1  and  C_2
REMARK    2  A    between atoms: C_2  and  S_3
REMARK    3  A    between atoms: S_3  and  N_6
REMARK    4  A    between atoms: N_6  and  C_7
REMARK    5  A    between atoms: C_9  and  C_28
REMARK    6  A    between atoms: C_12  and  N_13
REMARK    7  A    between atoms: C_16  and  C_19
REMARK    8  A    between atoms: C_16  and  N_22
REMARK                            x       y       z     vdW  Elec       q    Type
REMARK                         _______ _______ _______ _____ _____    ______ ____
ROOT
ATOM      1  N   UNL     1       1.510   0.949  -3.890  0.00  0.00    -0.329 N 
ATOM      2  C   UNL     1       1.950  -0.161  -4.746  0.00  0.00    +0.104 C 
ATOM      3  C   UNL     1       0.910  -0.405  -5.842  0.00  0.00    +0.016 C 
ATOM      4  C   UNL     1       0.744   0.871  -6.674  0.00  0.00    +0.015 C 
ATOM      5  C   UNL     1       0.332   2.022  -5.752  0.00  0.00    +0.016 C 
ATOM      6  C   UNL     1       1.389   2.195  -4.658  0.00  0.00    +0.104 C 
ENDROOT
BRANCH   4   7
ATOM      7  N   UNL     1      -0.295   0.661  -7.691  0.00  0.00    +0.389 N 
ATOM      8  C   UNL     1      -1.606   0.443  -7.067  0.00  0.00    -0.077 C 
ATOM      9  C   UNL     1      -2.683   0.374  -8.152  0.00  0.00    -0.019 C 
ATOM     10  C   UNL     1      -2.359  -0.771  -9.115  0.00  0.00    -0.004 C 
ATOM     11  C   UNL     1      -0.968  -0.545  -9.714  0.00  0.00    -0.019 C 
ATOM     12  C   UNL     1       0.060  -0.450  -8.584  0.00  0.00    -0.077 C 
ATOM     13  H   UNL     1      -0.361   1.574  -8.301  0.00  0.00    -0.080 HD
ENDBRANCH   4   7
BRANCH   1  19
ATOM     14  C   UNL     1       1.895   0.906  -1.505  0.00  0.00    +0.069 A 
ATOM     15  C   UNL     1       2.746   1.063  -0.429  0.00  0.00    +0.041 A 
ATOM     16  C   UNL     1       4.077   1.434  -0.642  0.00  0.00    +0.065 A 
ATOM     17  C   UNL     1       4.542   1.645  -1.944  0.00  0.00    +0.017 A 
ATOM     18  C   UNL     1       3.689   1.488  -3.014  0.00  0.00    +0.026 A 
ATOM     19  C   UNL     1       2.367   1.113  -2.804  0.00  0.00    +0.052 A 
BRANCH  16  20
ATOM     20  C   UNL     1       4.990   1.603   0.503  0.00  0.00    +0.387 C 
ATOM     21  O   UNL     1       4.585   1.420   1.634  0.00  0.00    -0.241 OA
ATOM     22  O   UNL     1       6.272   1.960   0.295  0.00  0.00    -0.241 OA
ENDBRANCH  16  20
BRANCH  14  23
ATOM     23  N   UNL     1       0.561   0.534  -1.296  0.00  0.00    -0.219 N 
ATOM     24  H   UNL     1       0.054  -0.127  -2.014  0.00  0.00    +0.173 HD
BRANCH  23  25
ATOM     25  S   UNL     1      -0.254   1.091   0.034  0.00  0.00    +0.043 S 
ATOM     26  O   UNL     1       0.539   0.686   1.141  0.00  0.00    -0.155 OA
ATOM     27  O   UNL     1      -1.580   0.604  -0.123  0.00  0.00    -0.155 OA
BRANCH  25  29
ATOM     28  C   UNL     1      -0.962   3.525   1.062  0.00  0.00    +0.030 C 
ATOM     29  C   UNL     1      -0.229   2.897  -0.125  0.00  0.00    +0.185 C 
ENDBRANCH  25  29
ENDBRANCH  23  25
ENDBRANCH  14  23
ENDBRANCH   1  19
BRANCH   4  30
ATOM     30  C   UNL     1       2.049   1.208  -7.348  0.00  0.00    +0.200 C 
ATOM     31  O   UNL     1       3.088   0.750  -6.921  0.00  0.00    -0.278 OA
ATOM     32  N   UNL     1       2.061   2.017  -8.425  0.00  0.00    -0.330 N 
ATOM     33  H   UNL     1       3.014   2.263  -8.918  0.00  0.00    +0.145 HD
ATOM     34  H   UNL     1       1.119   2.432  -8.813  0.00  0.00    +0.145 HD
ENDBRANCH   4  30
TORSDOF 7
