REMARK  Name = ZINC01959695
REMARK  5 active torsions:
REMARK  status: ('A' for Active; 'I' for Inactive)
REMARK    1  A    between atoms: C_1  and  C_2
REMARK    2  A    between atoms: C_9  and  N_13
REMARK    3  A    between atoms: C_10  and  C_11
REMARK    4  A    between atoms: C_14  and  C_16
REMARK    5  A    between atoms: C_17  and  C_18
REMARK                            x       y       z     vdW  Elec       q    Type
REMARK                         _______ _______ _______ _____ _____    ______ ____
ROOT
ATOM      1  C   UNL     1      -0.019   1.526   0.010  0.00  0.00    +0.008 C 
ATOM      2  C   UNL     1       0.002  -0.004   0.002  0.00  0.00    -0.009 C 
ATOM      3  C   UNL     1       0.742  -0.514   1.242  0.00  0.00    +0.008 C 
ATOM      4  C   UNL     1       0.556  -2.027   1.373  0.00  0.00    +0.037 C 
ATOM      5  C   UNL     1       0.941  -2.684   0.054  0.00  0.00    -0.018 A 
ATOM      6  C   UNL     1       1.008  -1.965  -1.089  0.00  0.00    -0.004 A 
ATOM      7  S   UNL     1       1.484  -3.134  -2.331  0.00  0.00    -0.077 S 
ATOM      8  C   UNL     1       1.592  -4.557  -1.349  0.00  0.00    +0.090 A 
ATOM      9  C   UNL     1       1.258  -4.095  -0.084  0.00  0.00    +0.084 A 
ATOM     10  C   UNL     1       0.736  -0.502  -1.252  0.00  0.00    +0.046 C 
ENDROOT
BRANCH   8  11
ATOM     11  N   UNL     1       1.931  -5.845  -1.734  0.00  0.00    -0.275 N 
ATOM     12  C   UNL     1       2.229  -6.107  -3.022  0.00  0.00    +0.241 C 
ATOM     13  O   UNL     1       2.200  -5.213  -3.847  0.00  0.00    -0.270 OA
ATOM     14  H   UNL     1       1.954  -6.558  -1.076  0.00  0.00    +0.156 HD
BRANCH  12  15
ATOM     15  C   UNL     1       2.587  -7.467  -3.428  0.00  0.00    +0.068 C 
ATOM     16  C   UNL     1       2.884  -7.729  -4.717  0.00  0.00    +0.013 C 
BRANCH  16  17
ATOM     17  C   UNL     1       3.244  -9.097  -5.126  0.00  0.00    -0.025 A 
ATOM     18  C   UNL     1       3.284 -10.126  -4.179  0.00  0.00    +0.008 A 
ATOM     19  C   UNL     1       3.616 -11.405  -4.571  0.00  0.00    +0.001 A 
ATOM     20  C   UNL     1       3.921 -11.671  -5.895  0.00  0.00    +0.000 A 
ATOM     21  C   UNL     1       3.890 -10.656  -6.836  0.00  0.00    +0.001 A 
ATOM     22  C   UNL     1       3.554  -9.373  -6.461  0.00  0.00    +0.008 A 
ENDBRANCH  16  17
ENDBRANCH  12  15
ENDBRANCH   8  11
BRANCH   9  23
ATOM     23  C   UNL     1       1.226  -4.977   1.044  0.00  0.00    +0.102 C 
ATOM     24  N   UNL     1       1.200  -5.677   1.938  0.00  0.00    -0.191 NA
ENDBRANCH   9  23
TORSDOF 4
