REMARK  Name = ZINC48607811
REMARK  4 active torsions:
REMARK  status: ('A' for Active; 'I' for Inactive)
REMARK    1  A    between atoms: C_1  and  C_2
REMARK    2  A    between atoms: N_8  and  C_11
REMARK    3  A    between atoms: N_12  and  C_13
REMARK    4  A    between atoms: C_19  and  C_21
REMARK                            x       y       z     vdW  Elec       q    Type
REMARK                         _______ _______ _______ _____ _____    ______ ____
ROOT
ATOM      1  C   UNL     1      -0.018   1.503   0.010  0.00  0.00    +0.088 C 
ATOM      2  C   UNL     1       0.002  -0.004   0.002  0.00  0.00    +0.130 A 
ATOM      3  N   UNL     1       0.005  -0.632  -1.161  0.00  0.00    -0.217 NA
ATOM      4  C   UNL     1       0.023  -1.958  -1.226  0.00  0.00    +0.133 A 
ATOM      5  C   UNL     1       0.038  -2.688  -0.022  0.00  0.00    +0.078 A 
ATOM      6  C   UNL     1       0.059  -4.061   0.307  0.00  0.00    +0.148 A 
ATOM      7  N   UNL     1       0.067  -4.174   1.605  0.00  0.00    -0.177 NA
ATOM      8  N   UNL     1       0.052  -2.901   2.190  0.00  0.00    -0.249 N 
ATOM      9  C   UNL     1       0.035  -1.973   1.192  0.00  0.00    +0.163 A 
ATOM     10  N   UNL     1       0.022  -0.641   1.152  0.00  0.00    -0.213 NA
ATOM     11  C   UNL     1       0.055  -2.616   3.627  0.00  0.00    +0.174 C 
ATOM     12  N   UNL     1       0.025  -2.607  -2.446  0.00  0.00    -0.325 N 
ATOM     13  H   UNL     1       0.038  -3.576  -2.480  0.00  0.00    +0.148 HD
ENDROOT
BRANCH  12  14
ATOM     14  C   UNL     1       0.008  -1.830  -3.688  0.00  0.00    +0.075 C 
ATOM     15  C   UNL     1       1.438  -1.433  -4.061  0.00  0.00    +0.022 C 
ATOM     16  C   UNL     1       2.281  -2.694  -4.260  0.00  0.00    +0.002 C 
ATOM     17  C   UNL     1       1.677  -3.541  -5.382  0.00  0.00    +0.000 C 
ATOM     18  C   UNL     1       0.248  -3.937  -5.009  0.00  0.00    +0.005 C 
ATOM     19  C   UNL     1      -0.596  -2.676  -4.811  0.00  0.00    +0.006 C 
ATOM     20  C   UNL     1      -2.026  -3.073  -4.437  0.00  0.00    +0.009 C 
ENDBRANCH  12  14
TORSDOF 1
