REMARK  Name = ZINC31663319
REMARK  5 active torsions:
REMARK  status: ('A' for Active; 'I' for Inactive)
REMARK    1  A    between atoms: C_1  and  C_2
REMARK    2  A    between atoms: C_5  and  N_9
REMARK    3  A    between atoms: C_6  and  C_8
REMARK    4  A    between atoms: C_10  and  C_12
REMARK    5  A    between atoms: C_14  and  N_19
REMARK                            x       y       z     vdW  Elec       q    Type
REMARK                         _______ _______ _______ _____ _____    ______ ____
ROOT
ATOM      1  N   UNL     1       2.402   1.107  -0.015  0.00  0.00    -0.281 N 
ATOM      2  C   UNL     1       2.426  -0.237   0.078  0.00  0.00    +0.249 C 
ATOM      3  O   UNL     1       1.385  -0.865   0.085  0.00  0.00    -0.270 OA
ATOM      4  H   UNL     1       3.344   1.670  -0.096  0.00  0.00    +0.155 HD
ENDROOT
BRANCH   1   9
ATOM      5  C   UNL     1      -2.555   3.865   0.005  0.00  0.00    +0.044 C 
ATOM      6  C   UNL     1      -1.238   3.132   0.000  0.00  0.00    -0.050 A 
ATOM      7  C   UNL     1      -1.140   1.893  -0.606  0.00  0.00    +0.005 A 
ATOM      8  C   UNL     1       0.063   1.216  -0.608  0.00  0.00    +0.024 A 
ATOM      9  C   UNL     1       1.180   1.787  -0.010  0.00  0.00    +0.037 A 
ATOM     10  C   UNL     1       1.080   3.034   0.593  0.00  0.00    -0.029 A 
ATOM     11  C   UNL     1      -0.129   3.703   0.596  0.00  0.00    +0.008 A 
ATOM     12  C   UNL     1       2.288   3.656   1.243  0.00  0.00    +0.045 C 
ENDBRANCH   1   9
BRANCH   2  13
ATOM     13  C   UNL     1       3.718  -0.948   0.173  0.00  0.00    +0.052 A 
ATOM     14  C   UNL     1       4.916  -0.231   0.166  0.00  0.00    +0.046 A 
ATOM     15  C   UNL     1       6.118  -0.901   0.254  0.00  0.00    +0.127 A 
ATOM     16  C   UNL     1       6.140  -2.281   0.350  0.00  0.00    +0.034 A 
ATOM     17  C   UNL     1       4.957  -2.999   0.358  0.00  0.00    +0.017 A 
ATOM     18  C   UNL     1       3.746  -2.341   0.276  0.00  0.00    +0.026 A 
ATOM     19  I   UNL     1       1.956  -3.429   0.297  0.00  0.00    -0.043 I 
BRANCH  15  20
ATOM     20  N   UNL     1       7.388  -0.141   0.247  0.00  0.00    +0.056 N 
ATOM     21  O   UNL     1       7.371   1.074   0.163  0.00  0.00    -0.126 OA
ATOM     22  O   UNL     1       8.451  -0.731   0.325  0.00  0.00    -0.126 OA
ENDBRANCH  15  20
ENDBRANCH   2  13
TORSDOF 3
