REMARK  Name = ZINC03240785
REMARK  6 active torsions:
REMARK  status: ('A' for Active; 'I' for Inactive)
REMARK    1  A    between atoms: C_4  and  O_28
REMARK    2  A    between atoms: C_5  and  C_7
REMARK    3  A    between atoms: C_12  and  C_24
REMARK    4  A    between atoms: C_13  and  S_20
REMARK    5  A    between atoms: S_20  and  N_23
REMARK    6  A    between atoms: O_28  and  C_29
REMARK                            x       y       z     vdW  Elec       q    Type
REMARK                         _______ _______ _______ _____ _____    ______ ____
ROOT
ATOM      1  C   UNL     1       2.456   3.933   0.000  0.00  0.00    +0.194 C 
ATOM      2  N   UNL     1       3.508   3.114  -0.596  0.00  0.00    -0.322 N 
ATOM      3  C   UNL     1       3.551   2.788  -1.948  0.00  0.00    +0.056 A 
ATOM      4  C   UNL     1       4.283   1.670  -2.348  0.00  0.00    +0.039 A 
ATOM      5  C   UNL     1       4.358   1.331  -3.682  0.00  0.00    +0.083 A 
ATOM      6  C   UNL     1       3.710   2.096  -4.634  0.00  0.00    +0.119 A 
ATOM      7  C   UNL     1       2.977   3.203  -4.245  0.00  0.00    +0.059 A 
ATOM      8  C   UNL     1       2.892   3.541  -2.911  0.00  0.00    +0.128 A 
ATOM      9  S   UNL     1       1.922   4.932  -2.415  0.00  0.00    +0.062 S 
ATOM     10  O   UNL     1       2.420   6.059  -3.123  0.00  0.00    -0.153 OA
ATOM     11  O   UNL     1       0.560   4.529  -2.469  0.00  0.00    -0.153 OA
ATOM     12  N   UNL     1       2.298   5.161  -0.806  0.00  0.00    -0.166 NA
ATOM     13  H   UNL     1       4.213   2.780  -0.019  0.00  0.00    +0.148 HD
ATOM     14  H   UNL     1       2.407   6.045  -0.423  0.00  0.00    +0.150 HD
ENDROOT
BRANCH   1  19
ATOM     15  C   UNL     1      -0.013   1.076   0.008  0.00  0.00    +0.001 A 
ATOM     16  C   UNL     1      -1.220   1.750   0.017  0.00  0.00    +0.004 A 
ATOM     17  C   UNL     1      -1.242   3.131   0.031  0.00  0.00    +0.046 A 
ATOM     18  C   UNL     1      -0.050   3.842   0.023  0.00  0.00    +0.133 A 
ATOM     19  C   UNL     1       1.160   3.164   0.008  0.00  0.00    +0.030 A 
ATOM     20  C   UNL     1       1.176   1.782   0.000  0.00  0.00    +0.010 A 
BRANCH  18  21
ATOM     21  O   UNL     1      -0.069   5.201   0.031  0.00  0.00    -0.434 OA
BRANCH  21  22
ATOM     22  C   UNL     1      -1.350   5.832   0.047  0.00  0.00    +0.541 C 
ATOM     23  F   UNL     1      -2.071   5.453  -1.091  0.00  0.00    -0.166 F 
ATOM     24  F   UNL     1      -2.049   5.440   1.193  0.00  0.00    -0.166 F 
ENDBRANCH  21  22
ENDBRANCH  18  21
ENDBRANCH   1  19
BRANCH   5  25
ATOM     25  C   UNL     1       5.151   0.121  -4.105  0.00  0.00    +0.419 C 
ATOM     26  F   UNL     1       5.710  -0.488  -2.976  0.00  0.00    -0.166 F 
ATOM     27  F   UNL     1       4.306  -0.787  -4.753  0.00  0.00    -0.166 F 
ATOM     28  F   UNL     1       6.171   0.513  -4.977  0.00  0.00    -0.166 F 
ENDBRANCH   5  25
BRANCH   6  29
ATOM     29  S   UNL     1       3.819   1.663  -6.339  0.00  0.00    +0.057 S 
ATOM     30  O   UNL     1       3.526   0.276  -6.425  0.00  0.00    -0.153 OA
ATOM     31  O   UNL     1       3.080   2.644  -7.055  0.00  0.00    -0.153 OA
BRANCH  29  32
ATOM     32  N   UNL     1       5.402   1.842  -6.789  0.00  0.00    -0.203 NA
ATOM     33  H   UNL     1       5.773   1.284  -7.491  0.00  0.00    +0.144 HD
ATOM     34  H   UNL     1       5.959   2.505  -6.352  0.00  0.00    +0.144 HD
ENDBRANCH  29  32
ENDBRANCH   6  29
TORSDOF 6
