REMARK  Name = ZINC01157219
REMARK  5 active torsions:
REMARK  status: ('A' for Active; 'I' for Inactive)
REMARK    1  A    between atoms: C_1  and  C_2
REMARK    2  A    between atoms: C_7  and  N_8
REMARK    3  A    between atoms: C_12  and  C_13
REMARK    4  A    between atoms: N_17  and  C_18
REMARK    5  A    between atoms: C_21  and  N_24
REMARK                            x       y       z     vdW  Elec       q    Type
REMARK                         _______ _______ _______ _____ _____    ______ ____
ROOT
ATOM      1  N   UNL     1       0.527  -0.148  -1.286  0.00  0.00    -0.216 N 
ATOM      2  C   UNL     1       0.365   1.111  -0.830  0.00  0.00    +0.262 C 
ATOM      3  O   UNL     1      -0.736   1.527  -0.521  0.00  0.00    -0.269 OA
ATOM      4  C   UNL     1       1.556   1.972  -0.722  0.00  0.00    +0.103 C 
ATOM      5  C   UNL     1       1.466   3.280  -0.261  0.00  0.00    +0.044 C 
ATOM      6  C   UNL     1       2.846   1.385  -1.124  0.00  0.00    +0.274 C 
ATOM      7  O   UNL     1       3.874   2.034  -1.063  0.00  0.00    -0.268 OA
ATOM      8  N   UNL     1       2.858   0.109  -1.562  0.00  0.00    -0.153 NA
ATOM      9  C   UNL     1       1.734  -0.617  -1.635  0.00  0.00    +0.171 C 
ATOM     10  S   UNL     1       1.844  -2.228  -2.203  0.00  0.00    -0.016 S 
ENDROOT
BRANCH   1  17
ATOM     11  C   UNL     1      -0.173  -1.763   0.950  0.00  0.00    +0.045 C 
ATOM     12  C   UNL     1      -0.967  -1.789  -0.331  0.00  0.00    -0.029 A 
ATOM     13  C   UNL     1      -2.073  -2.610  -0.442  0.00  0.00    +0.005 A 
ATOM     14  C   UNL     1      -2.798  -2.638  -1.619  0.00  0.00    +0.000 A 
ATOM     15  C   UNL     1      -2.423  -1.841  -2.686  0.00  0.00    +0.002 A 
ATOM     16  C   UNL     1      -1.322  -1.015  -2.578  0.00  0.00    +0.024 A 
ATOM     17  C   UNL     1      -0.591  -0.984  -1.398  0.00  0.00    +0.046 A 
ENDBRANCH   1  17
BRANCH   5  18
ATOM     18  C   UNL     1       2.635   4.020  -0.018  0.00  0.00    +0.047 A 
ATOM     19  C   UNL     1       2.967   5.246  -0.584  0.00  0.00    +0.027 A 
ATOM     20  C   UNL     1       4.205   5.616  -0.062  0.00  0.00    +0.020 A 
ATOM     21  C   UNL     1       4.612   4.638   0.788  0.00  0.00    +0.092 A 
ATOM     22  N   UNL     1       3.670   3.663   0.826  0.00  0.00    -0.316 N 
BRANCH  22  23
ATOM     23  C   UNL     1       3.735   2.490   1.589  0.00  0.00    +0.047 A 
ATOM     24  C   UNL     1       2.690   2.156   2.440  0.00  0.00    +0.028 A 
ATOM     25  C   UNL     1       2.755   0.996   3.188  0.00  0.00    +0.035 A 
ATOM     26  C   UNL     1       3.864   0.175   3.098  0.00  0.00    +0.126 A 
ATOM     27  C   UNL     1       4.908   0.508   2.255  0.00  0.00    +0.035 A 
ATOM     28  C   UNL     1       4.847   1.664   1.501  0.00  0.00    +0.028 A 
BRANCH  26  29
ATOM     29  N   UNL     1       3.933  -1.064   3.905  0.00  0.00    +0.056 N 
ATOM     30  O   UNL     1       4.909  -1.788   3.827  0.00  0.00    -0.126 OA
ATOM     31  O   UNL     1       3.013  -1.359   4.648  0.00  0.00    -0.126 OA
ENDBRANCH  26  29
ENDBRANCH  22  23
ENDBRANCH   5  18
TORSDOF 4
