REMARK  Name = ZINC40268836
REMARK  3 active torsions:
REMARK  status: ('A' for Active; 'I' for Inactive)
REMARK    1  A    between atoms: C_9  and  N_14
REMARK    2  A    between atoms: C_11  and  O_13
REMARK    3  A    between atoms: C_19  and  C_21
REMARK                            x       y       z     vdW  Elec       q    Type
REMARK                         _______ _______ _______ _____ _____    ______ ____
ROOT
ATOM      1  N   UNL     1       3.234  -3.378   1.339  0.00  0.00    -0.217 N 
ATOM      2  C   UNL     1       3.728  -4.547   1.789  0.00  0.00    +0.268 A 
ATOM      3  O   UNL     1       4.345  -5.284   1.037  0.00  0.00    -0.266 OA
ATOM      4  C   UNL     1       3.526  -4.914   3.138  0.00  0.00    +0.074 A 
ATOM      5  C   UNL     1       2.830  -4.054   3.936  0.00  0.00    +0.035 A 
ATOM      6  C   UNL     1       2.353  -2.850   3.368  0.00  0.00    +0.092 A 
ATOM      7  N   UNL     1       2.585  -2.578   2.105  0.00  0.00    -0.168 NA
ENDROOT
BRANCH   1  16
ATOM      8  C   UNL     1      -0.186   1.234  -0.053  0.00  0.00    +0.000 A 
ATOM      9  C   UNL     1       0.981   1.979  -0.053  0.00  0.00    +0.002 A 
ATOM     10  C   UNL     1       2.195   1.341  -0.057  0.00  0.00    +0.028 A 
ATOM     11  C   UNL     1       2.285  -0.068  -0.059  0.00  0.00    +0.071 A 
ATOM     12  C   UNL     1       1.111  -0.805  -0.049  0.00  0.00    -0.022 A 
ATOM     13  C   UNL     1      -0.113  -0.141  -0.052  0.00  0.00    +0.006 A 
ATOM     14  C   UNL     1       1.041  -2.299  -0.022  0.00  0.00    +0.040 C 
ATOM     15  C   UNL     1       2.121  -3.008  -0.778  0.00  0.00    +0.041 C 
ATOM     16  C   UNL     1       3.449  -3.006  -0.061  0.00  0.00    +0.196 C 
ATOM     17  C   UNL     1       4.109  -1.674  -0.110  0.00  0.00    +0.213 C 
ATOM     18  N   UNL     1       3.539  -0.557  -0.076  0.00  0.00    -0.215 NA
BRANCH  17  19
ATOM     19  O   UNL     1       5.455  -1.667  -0.200  0.00  0.00    -0.494 OA
ATOM     20  H   UNL     1       5.842  -0.781  -0.228  0.00  0.00    +0.293 HD
ENDBRANCH  17  19
ENDBRANCH   1  16
BRANCH   6  21
ATOM     21  C   UNL     1       1.591  -1.890   4.203  0.00  0.00    +0.002 A 
ATOM     22  C   UNL     1       1.114  -0.705   3.646  0.00  0.00    +0.013 A 
ATOM     23  C   UNL     1       0.406   0.186   4.426  0.00  0.00    +0.039 A 
ATOM     24  C   UNL     1       0.170  -0.096   5.762  0.00  0.00    +0.123 A 
ATOM     25  C   UNL     1       0.643  -1.273   6.320  0.00  0.00    +0.039 A 
ATOM     26  C   UNL     1       1.346  -2.172   5.545  0.00  0.00    +0.013 A 
ATOM     27  F   UNL     1      -0.523   0.779   6.523  0.00  0.00    -0.205 F 
ENDBRANCH   6  21
TORSDOF 3
