REMARK  Name = ZINC11500823
REMARK  11 active torsions:
REMARK  status: ('A' for Active; 'I' for Inactive)
REMARK    1  A    between atoms: C_1  and  C_2
REMARK    2  A    between atoms: C_2  and  C_3
REMARK    3  A    between atoms: C_2  and  C_4
REMARK    4  A    between atoms: C_4  and  C_6
REMARK    5  A    between atoms: C_4  and  O_12
REMARK    6  A    between atoms: O_12  and  C_13
REMARK    7  A    between atoms: C_13  and  C_15
REMARK    8  A    between atoms: C_19  and  S_21
REMARK    9  A    between atoms: S_21  and  N_24
REMARK   10  A    between atoms: N_24  and  C_25
REMARK   11  A    between atoms: N_24  and  C_26
REMARK                            x       y       z     vdW  Elec       q    Type
REMARK                         _______ _______ _______ _____ _____    ______ ____
ROOT
ATOM      1  C   UNL     1      -5.335   1.278   3.673  0.00  0.00    +0.061 A 
ATOM      2  C   UNL     1      -5.905   2.357   4.352  0.00  0.00    +0.015 A 
ATOM      3  C   UNL     1      -6.380   2.187   5.635  0.00  0.00    +0.003 A 
ATOM      4  C   UNL     1      -6.285   0.953   6.254  0.00  0.00    +0.029 A 
ATOM      5  C   UNL     1      -5.718  -0.120   5.589  0.00  0.00    +0.109 A 
ATOM      6  C   UNL     1      -5.242   0.035   4.303  0.00  0.00    +0.043 A 
ENDROOT
BRANCH   5   7
ATOM      7  S   UNL     1      -5.601  -1.687   6.386  0.00  0.00    +0.074 S 
ATOM      8  O   UNL     1      -6.613  -1.711   7.384  0.00  0.00    -0.150 OA
ATOM      9  O   UNL     1      -5.524  -2.662   5.355  0.00  0.00    -0.150 OA
BRANCH   7  10
ATOM     10  N   UNL     1      -4.150  -1.724   7.183  0.00  0.00    -0.206 N 
ATOM     11  C   UNL     1      -2.961  -2.261   6.515  0.00  0.00    +0.157 C 
BRANCH  10  12
ATOM     12  C   UNL     1      -4.059  -1.244   8.491  0.00  0.00    +0.051 A 
ATOM     13  C   UNL     1      -4.319   0.094   8.762  0.00  0.00    +0.025 A 
ATOM     14  C   UNL     1      -4.233   0.564  10.057  0.00  0.00    +0.002 A 
ATOM     15  C   UNL     1      -3.878  -0.292  11.083  0.00  0.00    +0.000 A 
ATOM     16  C   UNL     1      -3.613  -1.623  10.817  0.00  0.00    +0.002 A 
ATOM     17  C   UNL     1      -3.703  -2.102   9.524  0.00  0.00    +0.025 A 
ENDBRANCH  10  12
ENDBRANCH   7  10
ENDBRANCH   5   7
BRANCH   1  18
ATOM     18  C   UNL     1      -4.828   1.451   2.296  0.00  0.00    +0.340 C 
ATOM     19  O   UNL     1      -4.328   0.512   1.710  0.00  0.00    -0.245 OA
BRANCH  18  20
ATOM     20  O   UNL     1      -4.919   2.651   1.691  0.00  0.00    -0.448 OA
BRANCH  20  21
ATOM     21  C   UNL     1      -4.400   2.749   0.339  0.00  0.00    +0.265 C 
BRANCH  21  22
ATOM     22  C   UNL     1      -3.901   4.149   0.092  0.00  0.00    +0.261 C 
ATOM     23  O   UNL     1      -3.308   4.409  -0.933  0.00  0.00    -0.271 OA
ATOM     24  N   UNL     1      -4.114   5.112   1.010  0.00  0.00    -0.237 N 
ATOM     25  C   UNL     1      -3.763   6.386   0.745  0.00  0.00    +0.303 C 
ATOM     26  O   UNL     1      -3.255   6.666  -0.323  0.00  0.00    -0.253 OA
ATOM     27  N   UNL     1      -3.976   7.349   1.663  0.00  0.00    -0.313 N 
ATOM     28  H   UNL     1      -4.520   4.888   1.862  0.00  0.00    +0.159 HD
ATOM     29  H   UNL     1      -4.382   7.125   2.515  0.00  0.00    +0.146 HD
ATOM     30  H   UNL     1      -3.724   8.266   1.472  0.00  0.00    +0.146 HD
ENDBRANCH  21  22
BRANCH  21  32
ATOM     31  C   UNL     1      -4.945   2.438  -2.080  0.00  0.00    +0.011 C 
ATOM     32  C   UNL     1      -5.513   2.421  -0.659  0.00  0.00    +0.033 C 
ATOM     33  C   UNL     1      -6.080   1.033  -0.353  0.00  0.00    +0.011 C 
ENDBRANCH  21  32
ENDBRANCH  20  21
ENDBRANCH  18  20
ENDBRANCH   1  18
TORSDOF 8
