REMARK  Name = ZINC58443678
REMARK  11 active torsions:
REMARK  status: ('A' for Active; 'I' for Inactive)
REMARK    1  A    between atoms: C_1  and  C_2
REMARK    2  A    between atoms: C_6  and  O_9
REMARK    3  A    between atoms: C_7  and  C_8
REMARK    4  A    between atoms: O_9  and  C_10
REMARK    5  A    between atoms: C_10  and  C_12
REMARK    6  A    between atoms: C_10  and  C_13
REMARK    7  A    between atoms: N_15  and  N_16
REMARK    8  A    between atoms: C_17  and  C_19
REMARK    9  A    between atoms: C_19  and  C_21
REMARK   10  A    between atoms: C_19  and  N_27
REMARK   11  A    between atoms: C_28  and  C_30
REMARK                            x       y       z     vdW  Elec       q    Type
REMARK                         _______ _______ _______ _____ _____    ______ ____
ROOT
ATOM      1  N   UNL     1       1.280  -6.725   4.739  0.00  0.00    -0.232 N 
ATOM      2  C   UNL     1       1.399  -8.064   4.835  0.00  0.00    +0.254 C 
ATOM      3  O   UNL     1       1.004  -8.774   3.934  0.00  0.00    -0.272 OA
ATOM      4  H   UNL     1       1.597  -6.157   5.459  0.00  0.00    +0.173 HD
ENDROOT
BRANCH   1   7
ATOM      5  C   UNL     1       0.582  -4.814   3.503  0.00  0.00    +0.270 C 
ATOM      6  O   UNL     1       0.977  -4.104   4.403  0.00  0.00    -0.270 OA
ATOM      7  N   UNL     1       0.701  -6.153   3.599  0.00  0.00    -0.231 N 
ATOM      8  H   UNL     1       0.385  -6.721   2.879  0.00  0.00    +0.173 HD
BRANCH   5   9
ATOM      9  C   UNL     1      -0.043  -4.199   2.277  0.00  0.00    +0.257 C 
ATOM     10  C   UNL     1      -1.514  -4.611   2.192  0.00  0.00    +0.062 C 
BRANCH   9  11
ATOM     11  O   UNL     1       0.050  -2.776   2.358  0.00  0.00    -0.480 OA
BRANCH  11  17
ATOM     12  C   UNL     1       0.438   1.473  -0.013  0.00  0.00    +0.044 C 
ATOM     13  C   UNL     1       0.221  -0.018  -0.009  0.00  0.00    -0.044 A 
ATOM     14  C   UNL     1       0.006  -0.688  -1.200  0.00  0.00    +0.004 A 
ATOM     15  C   UNL     1      -0.194  -2.056  -1.200  0.00  0.00    +0.004 A 
ATOM     16  C   UNL     1      -0.179  -2.757  -0.009  0.00  0.00    +0.046 A 
ATOM     17  C   UNL     1       0.036  -2.088   1.186  0.00  0.00    +0.125 A 
ATOM     18  C   UNL     1       0.242  -0.716   1.183  0.00  0.00    -0.006 A 
ATOM     19  C   UNL     1       0.482   0.014   2.479  0.00  0.00    +0.048 C 
ENDBRANCH  11  17
ENDBRANCH   9  11
ENDBRANCH   5   9
ENDBRANCH   1   7
BRANCH   2  20
ATOM     20  C   UNL     1       2.023  -8.679   6.061  0.00  0.00    +0.191 C 
BRANCH  20  21
ATOM     21  C   UNL     1       1.222  -8.297   7.278  0.00  0.00    -0.018 A 
ATOM     22  C   UNL     1       0.056  -8.976   7.579  0.00  0.00    +0.006 A 
ATOM     23  C   UNL     1      -0.680  -8.626   8.696  0.00  0.00    +0.000 A 
ATOM     24  C   UNL     1      -0.249  -7.596   9.511  0.00  0.00    +0.000 A 
ATOM     25  C   UNL     1       0.917  -6.917   9.211  0.00  0.00    +0.000 A 
ATOM     26  C   UNL     1       1.655  -7.271   8.097  0.00  0.00    +0.006 A 
ENDBRANCH  20  21
BRANCH  20  27
ATOM     27  N   UNL     1       2.036 -10.138   5.923  0.00  0.00    -0.296 N 
ATOM     28  C   UNL     1       2.947 -10.870   6.593  0.00  0.00    +0.245 C 
ATOM     29  O   UNL     1       3.758 -10.321   7.313  0.00  0.00    -0.270 OA
ATOM     30  H   UNL     1       1.389 -10.576   5.348  0.00  0.00    +0.150 HD
BRANCH  28  31
ATOM     31  C   UNL     1       2.960 -12.342   6.454  0.00  0.00    +0.037 A 
ATOM     32  C   UNL     1       2.034 -12.976   5.624  0.00  0.00    +0.013 A 
ATOM     33  C   UNL     1       2.052 -14.350   5.498  0.00  0.00    +0.001 A 
ATOM     34  C   UNL     1       2.985 -15.099   6.193  0.00  0.00    +0.000 A 
ATOM     35  C   UNL     1       3.905 -14.477   7.018  0.00  0.00    +0.001 A 
ATOM     36  C   UNL     1       3.902 -13.104   7.147  0.00  0.00    +0.013 A 
ENDBRANCH  28  31
ENDBRANCH  20  27
ENDBRANCH   2  20
TORSDOF 8
