REMARK  Name = ZINC11443602
REMARK  9 active torsions:
REMARK  status: ('A' for Active; 'I' for Inactive)
REMARK    1  A    between atoms: C_1  and  C_2
REMARK    2  A    between atoms: C_2  and  C_3
REMARK    3  A    between atoms: C_3  and  C_4
REMARK    4  A    between atoms: C_6  and  O_30
REMARK    5  A    between atoms: C_8  and  S_10
REMARK    6  A    between atoms: S_10  and  C_11
REMARK    7  A    between atoms: C_11  and  C_13
REMARK    8  A    between atoms: C_11  and  C_14
REMARK    9  A    between atoms: C_20  and  C_25
REMARK                            x       y       z     vdW  Elec       q    Type
REMARK                         _______ _______ _______ _____ _____    ______ ____
ROOT
ATOM      1  C   UNL     1       1.163   1.647  -0.000  0.00  0.00    +0.124 A 
ATOM      2  N   UNL     1      -0.011   0.966   0.007  0.00  0.00    -0.309 N 
ATOM      3  H   UNL     1       0.002  -0.004   0.002  0.00  0.00    +0.170 HD
ATOM      4  C   UNL     1      -1.193   1.609   0.017  0.00  0.00    +0.260 A 
ATOM      5  O   UNL     1      -2.239   0.983   0.018  0.00  0.00    -0.267 OA
ATOM      6  C   UNL     1      -1.204   3.040   0.029  0.00  0.00    +0.080 A 
ATOM      7  C   UNL     1      -2.340   3.955   0.044  0.00  0.00    +0.010 A 
ATOM      8  C   UNL     1      -2.101   5.290   0.049  0.00  0.00    +0.057 A 
ATOM      9  S   UNL     1      -0.322   5.391   0.033  0.00  0.00    -0.076 S 
ATOM     10  C   UNL     1       0.058   3.658   0.020  0.00  0.00    +0.116 A 
ATOM     11  N   UNL     1       1.186   2.953   0.006  0.00  0.00    -0.225 NA
ENDROOT
BRANCH   7  12
ATOM     12  C   UNL     1      -3.724   3.437   0.055  0.00  0.00    +0.021 A 
ATOM     13  C   UNL     1      -4.762   3.766   0.885  0.00  0.00    +0.016 A 
ATOM     14  C   UNL     1      -5.980   3.147   0.700  0.00  0.00    +0.008 A 
ATOM     15  C   UNL     1      -6.110   2.224  -0.287  0.00  0.00    +0.046 A 
ATOM     16  S   UNL     1      -4.475   2.212  -1.005  0.00  0.00    -0.097 S 
ENDBRANCH   7  12
BRANCH   1  17
ATOM     17  C   UNL     1       2.463   0.884  -0.016  0.00  0.00    +0.117 C 
ATOM     18  C   UNL     1       2.979   0.727   1.416  0.00  0.00    +0.027 C 
BRANCH  17  19
ATOM     19  S   UNL     1       3.682   1.788  -1.002  0.00  0.00    -0.075 S 
BRANCH  19  24
ATOM     20  C   UNL     1       7.158   0.086  -1.616  0.00  0.00    +0.049 A 
ATOM     21  C   UNL     1       7.042  -1.119  -0.948  0.00  0.00    +0.090 A 
ATOM     22  C   UNL     1       5.846  -1.403  -0.290  0.00  0.00    +0.216 A 
ATOM     23  N   UNL     1       4.864  -0.509  -0.322  0.00  0.00    -0.187 NA
ATOM     24  C   UNL     1       5.012   0.633  -0.978  0.00  0.00    +0.192 A 
ATOM     25  N   UNL     1       6.138   0.930  -1.612  0.00  0.00    -0.227 NA
BRANCH  22  26
ATOM     26  O   UNL     1       5.689  -2.572   0.377  0.00  0.00    -0.492 OA
ATOM     27  H   UNL     1       5.958  -2.534   1.305  0.00  0.00    +0.294 HD
ENDBRANCH  22  26
BRANCH  20  28
ATOM     28  C   UNL     1       8.433   0.436  -2.340  0.00  0.00    +0.055 C 
BRANCH  28  30
ATOM     29  C   UNL     1       9.408   1.129  -4.533  0.00  0.00    +0.004 C 
ATOM     30  C   UNL     1       8.114   0.774  -3.798  0.00  0.00    +0.003 C 
ENDBRANCH  28  30
ENDBRANCH  20  28
ENDBRANCH  19  24
ENDBRANCH  17  19
ENDBRANCH   1  17
TORSDOF 7
