REMARK  Name = ZINC57932413
REMARK  9 active torsions:
REMARK  status: ('A' for Active; 'I' for Inactive)
REMARK    1  A    between atoms: C_1  and  C_2
REMARK    2  A    between atoms: C_2  and  C_3
REMARK    3  A    between atoms: N_7  and  C_19
REMARK    4  A    between atoms: C_10  and  O_17
REMARK    5  A    between atoms: C_11  and  O_15
REMARK    6  A    between atoms: O_15  and  C_16
REMARK    7  A    between atoms: O_17  and  C_18
REMARK    8  A    between atoms: C_19  and  C_20
REMARK    9  A    between atoms: C_20  and  C_22
REMARK                            x       y       z     vdW  Elec       q    Type
REMARK                         _______ _______ _______ _____ _____    ______ ____
ROOT
ATOM      1  C   UNL     1       1.013  -0.569  -1.198  0.00  0.00    +0.157 C 
ATOM      2  C   UNL     1       1.027  -2.077  -1.198  0.00  0.00    +0.240 C 
ATOM      3  O   UNL     1       1.996  -2.668  -0.769  0.00  0.00    -0.273 OA
ATOM      4  N   UNL     1      -0.023  -2.774  -1.668  0.00  0.00    -0.264 N 
ATOM      5  C   UNL     1      -1.095  -2.126  -2.297  0.00  0.00    +0.061 A 
ATOM      6  C   UNL     1      -2.259  -2.817  -2.596  0.00  0.00    +0.074 A 
ATOM      7  C   UNL     1      -3.313  -2.161  -3.210  0.00  0.00    +0.163 A 
ATOM      8  C   UNL     1      -3.208  -0.811  -3.527  0.00  0.00    +0.163 A 
ATOM      9  C   UNL     1      -2.044  -0.117  -3.232  0.00  0.00    +0.074 A 
ATOM     10  C   UNL     1      -0.989  -0.774  -2.623  0.00  0.00    +0.053 A 
ATOM     11  N   UNL     1       0.210  -0.096  -2.335  0.00  0.00    -0.331 N 
ATOM     12  H   UNL     1       0.499   0.660  -2.870  0.00  0.00    +0.147 HD
ENDROOT
BRANCH   1  14
ATOM     13  C   UNL     1       0.495   1.463   0.159  0.00  0.00    +0.006 C 
ATOM     14  C   UNL     1       0.399  -0.063   0.109  0.00  0.00    +0.028 C 
ENDBRANCH   1  14
BRANCH   8  15
ATOM     15  O   UNL     1      -4.248  -0.170  -4.127  0.00  0.00    -0.491 OA
ATOM     16  C   UNL     1      -4.071   1.216  -4.424  0.00  0.00    +0.277 C 
ENDBRANCH   8  15
BRANCH   7  17
ATOM     17  O   UNL     1      -4.456  -2.840  -3.504  0.00  0.00    -0.491 OA
ATOM     18  C   UNL     1      -4.496  -4.224  -3.151  0.00  0.00    +0.277 C 
ENDBRANCH   7  17
BRANCH   4  19
ATOM     19  C   UNL     1      -0.047  -4.232  -1.520  0.00  0.00    +0.143 C 
BRANCH  19  20
ATOM     20  C   UNL     1       0.593  -4.869  -2.726  0.00  0.00    -0.062 C 
ATOM     21  C   UNL     1       1.859  -5.206  -2.695  0.00  0.00    +0.009 C 
ATOM     22  C   UNL     1      -0.222  -5.119  -3.969  0.00  0.00    +0.040 C 
ENDBRANCH  19  20
ENDBRANCH   4  19
TORSDOF 5
