REMARK  Name = ZINC07163760
REMARK  4 active torsions:
REMARK  status: ('A' for Active; 'I' for Inactive)
REMARK    1  A    between atoms: C_1  and  C_2
REMARK    2  A    between atoms: C_15  and  C_17
REMARK    3  A    between atoms: C_17  and  S_18
REMARK    4  A    between atoms: S_18  and  C_19
REMARK                            x       y       z     vdW  Elec       q    Type
REMARK                         _______ _______ _______ _____ _____    ______ ____
ROOT
ATOM      1  C   UNL     1      -0.867   5.853  -2.272  0.00  0.00    +0.029 C 
ATOM      2  C   UNL     1       0.303   5.916  -1.289  0.00  0.00    +0.087 C 
ATOM      3  C   UNL     1       1.521   5.225  -1.904  0.00  0.00    +0.118 C 
ATOM      4  C   UNL     1       2.540   4.924  -0.836  0.00  0.00    +0.219 C 
ATOM      5  O   UNL     1       3.541   5.604  -0.750  0.00  0.00    -0.275 OA
ATOM      6  N   UNL     1       2.347   3.902   0.026  0.00  0.00    -0.284 N 
ATOM      7  C   UNL     1       1.157   3.166   0.000  0.00  0.00    +0.055 A 
ATOM      8  C   UNL     1       1.177   1.781   0.000  0.00  0.00    +0.025 A 
ATOM      9  C   UNL     1      -0.013   1.076   0.008  0.00  0.00    +0.002 A 
ATOM     10  C   UNL     1      -1.221   1.748   0.017  0.00  0.00    +0.002 A 
ATOM     11  C   UNL     1      -1.249   3.131   0.021  0.00  0.00    +0.025 A 
ATOM     12  C   UNL     1      -0.062   3.845  -0.001  0.00  0.00    +0.058 A 
ATOM     13  N   UNL     1      -0.072   5.246  -0.042  0.00  0.00    -0.266 N 
ATOM     14  C   UNL     1      -0.420   5.962   1.045  0.00  0.00    +0.230 C 
ATOM     15  O   UNL     1      -0.424   7.174   0.996  0.00  0.00    -0.274 OA
ATOM     16  H   UNL     1       3.039   3.676   0.667  0.00  0.00    +0.155 HD
ENDROOT
BRANCH  14  17
ATOM     17  C   UNL     1      -0.803   5.258   2.321  0.00  0.00    +0.172 C 
BRANCH  17  18
ATOM     18  S   UNL     1      -1.215   6.484   3.587  0.00  0.00    -0.090 S 
BRANCH  18  19
ATOM     19  C   UNL     1      -1.613   5.416   4.930  0.00  0.00    +0.126 C 
ATOM     20  N   UNL     1      -1.591   4.119   4.928  0.00  0.00    -0.270 NA
ATOM     21  C   UNL     1      -1.940   3.346   6.098  0.00  0.00    +0.154 C 
ATOM     22  C   UNL     1      -2.328   4.229   7.305  0.00  0.00    +0.099 C 
ATOM     23  S   UNL     1      -2.120   5.896   6.569  0.00  0.00    -0.098 S 
ENDBRANCH  18  19
ENDBRANCH  17  18
ENDBRANCH  14  17
TORSDOF 3
