REMARK  Name = ZINC06474959
REMARK  3 active torsions:
REMARK  status: ('A' for Active; 'I' for Inactive)
REMARK    1  A    between atoms: C_10  and  C_33
REMARK    2  A    between atoms: C_11  and  C_27
REMARK    3  A    between atoms: C_17  and  C_22
REMARK                            x       y       z     vdW  Elec       q    Type
REMARK                         _______ _______ _______ _____ _____    ______ ____
ROOT
ATOM      1  C   UNL     1      -1.120  -2.119   0.127  0.00  0.00    +0.001 A 
ATOM      2  C   UNL     1       0.109  -2.759   0.154  0.00  0.00    +0.002 A 
ATOM      3  C   UNL     1       1.281  -2.034   0.078  0.00  0.00    +0.024 A 
ATOM      4  C   UNL     1       1.248  -0.657  -0.069  0.00  0.00    +0.050 A 
ATOM      5  C   UNL     1       0.002  -0.004   0.002  0.00  0.00    +0.036 A 
ATOM      6  C   UNL     1      -1.178  -0.743   0.060  0.00  0.00    +0.013 A 
ATOM      7  C   UNL     1      -0.018   1.466   0.010  0.00  0.00    +0.127 C 
ATOM      8  N   UNL     1       1.130   2.111   0.003  0.00  0.00    -0.215 NA
ATOM      9  C   UNL     1       2.309   1.472  -0.067  0.00  0.00    +0.146 C 
ATOM     10  C   UNL     1       3.454   2.252   0.046  0.00  0.00    +0.082 C 
ATOM     11  C   UNL     1       4.787   1.563  -0.148  0.00  0.00    +0.099 C 
ATOM     12  C   UNL     1       4.734   0.162  -0.721  0.00  0.00    +0.025 C 
ATOM     13  C   UNL     1       3.538  -0.475  -0.761  0.00  0.00    +0.025 C 
ATOM     14  N   UNL     1       2.391   0.108  -0.283  0.00  0.00    -0.256 N 
ATOM     15  C   UNL     1       3.465  -1.845  -1.395  0.00  0.00    +0.061 C 
ATOM     16  C   UNL     1       4.517  -1.965  -2.501  0.00  0.00    +0.039 C 
ATOM     17  C   UNL     1       5.897  -1.777  -1.860  0.00  0.00    +0.088 C 
ATOM     18  C   UNL     1       5.916  -0.426  -1.189  0.00  0.00    +0.162 C 
ATOM     19  O   UNL     1       6.976   0.155  -1.068  0.00  0.00    -0.292 OA
ATOM     20  N   UNL     1      -1.203   2.157   0.031  0.00  0.00    -0.343 N 
ATOM     21  H   UNL     1      -2.045   1.675   0.040  0.00  0.00    +0.144 HD
ATOM     22  H   UNL     1      -1.200   3.127   0.036  0.00  0.00    +0.144 HD
ENDROOT
BRANCH  11  23
ATOM     23  C   UNL     1       5.464   1.497   1.197  0.00  0.00    -0.017 A 
ATOM     24  C   UNL     1       6.697   2.100   1.393  0.00  0.00    +0.007 A 
ATOM     25  C   UNL     1       7.279   2.017   2.648  0.00  0.00    +0.020 A 
ATOM     26  C   UNL     1       6.622   1.332   3.652  0.00  0.00    +0.111 A 
ATOM     27  N   UNL     1       5.452   0.766   3.428  0.00  0.00    -0.263 NA
ATOM     28  C   UNL     1       4.866   0.828   2.248  0.00  0.00    +0.115 A 
ENDBRANCH  11  23
BRANCH  16  29
ATOM     29  C   UNL     1       4.434  -3.331  -3.133  0.00  0.00    -0.006 A 
ATOM     30  C   UNL     1       4.205  -3.660  -4.427  0.00  0.00    +0.011 A 
ATOM     31  C   UNL     1       4.175  -4.995  -4.784  0.00  0.00    +0.008 A 
ATOM     32  C   UNL     1       4.364  -5.936  -3.826  0.00  0.00    +0.045 A 
ATOM     33  S   UNL     1       4.602  -4.935  -2.368  0.00  0.00    -0.101 S 
ENDBRANCH  16  29
BRANCH  10  34
ATOM     34  C   UNL     1       3.377   3.651   0.335  0.00  0.00    +0.099 C 
ATOM     35  N   UNL     1       3.317   4.762   0.564  0.00  0.00    -0.191 NA
ENDBRANCH  10  34
TORSDOF 3
