REMARK  Name = ZINC13642811
REMARK  6 active torsions:
REMARK  status: ('A' for Active; 'I' for Inactive)
REMARK    1  A    between atoms: C_1  and  C_2
REMARK    2  A    between atoms: C_2  and  N_3
REMARK    3  A    between atoms: C_4  and  C_6
REMARK    4  A    between atoms: C_13  and  C_22
REMARK    5  A    between atoms: N_34  and  C_35
REMARK    6  A    between atoms: C_35  and  C_36
REMARK                            x       y       z     vdW  Elec       q    Type
REMARK                         _______ _______ _______ _____ _____    ______ ____
ROOT
ATOM      1  C   UNL     1      -8.143   0.065   1.759  0.00  0.00    +0.058 A 
ATOM      2  C   UNL     1      -9.145   1.002   1.503  0.00  0.00    +0.015 A 
ATOM      3  C   UNL     1      -9.368   1.425   0.211  0.00  0.00    +0.001 A 
ATOM      4  C   UNL     1      -8.603   0.926  -0.827  0.00  0.00    +0.006 A 
ATOM      5  C   UNL     1      -7.601  -0.005  -0.594  0.00  0.00    -0.019 A 
ATOM      6  C   UNL     1      -7.366  -0.442   0.699  0.00  0.00    +0.044 A 
ATOM      7  N   UNL     1      -6.383  -1.372   0.999  0.00  0.00    -0.336 N 
ATOM      8  C   UNL     1      -5.295  -1.363   0.020  0.00  0.00    +0.105 C 
ATOM      9  C   UNL     1      -5.863  -1.648  -1.373  0.00  0.00    +0.029 C 
ATOM     10  C   UNL     1      -6.811  -0.497  -1.771  0.00  0.00    +0.049 C 
ATOM     11  C   UNL     1      -5.887   0.585  -2.280  0.00  0.00    -0.023 C 
ATOM     12  C   UNL     1      -4.731   0.075  -2.627  0.00  0.00    -0.030 C 
ATOM     13  C   UNL     1      -4.723  -1.424  -2.406  0.00  0.00    +0.033 C 
ATOM     14  H   UNL     1      -6.777  -2.296   1.093  0.00  0.00    +0.147 HD
ENDROOT
BRANCH   8  15
ATOM     15  C   UNL     1      -4.627  -0.013   0.024  0.00  0.00    -0.026 A 
ATOM     16  C   UNL     1      -5.292   1.086   0.545  0.00  0.00    +0.007 A 
ATOM     17  C   UNL     1      -4.694   2.328   0.556  0.00  0.00    +0.027 A 
ATOM     18  C   UNL     1      -3.411   2.488   0.041  0.00  0.00    +0.050 A 
ATOM     19  C   UNL     1      -2.740   1.375  -0.487  0.00  0.00    +0.008 A 
ATOM     20  C   UNL     1      -3.356   0.126  -0.491  0.00  0.00    +0.016 A 
ATOM     21  C   UNL     1      -1.425   1.859  -0.947  0.00  0.00    +0.008 A 
ATOM     22  C   UNL     1      -0.333   1.239  -1.549  0.00  0.00    +0.010 A 
ATOM     23  C   UNL     1       0.782   1.981  -1.875  0.00  0.00    +0.001 A 
ATOM     24  C   UNL     1       0.822   3.339  -1.599  0.00  0.00    +0.002 A 
ATOM     25  C   UNL     1      -0.250   3.964  -0.998  0.00  0.00    +0.026 A 
ATOM     26  C   UNL     1      -1.385   3.232  -0.663  0.00  0.00    +0.050 A 
ATOM     27  N   UNL     1      -2.581   3.589  -0.066  0.00  0.00    -0.340 N 
BRANCH  27  28
ATOM     28  C   UNL     1      -2.925   4.943   0.376  0.00  0.00    +0.119 C 
ATOM     29  C   UNL     1      -3.609   5.695  -0.768  0.00  0.00    +0.027 C 
ENDBRANCH  27  28
ENDBRANCH   8  15
BRANCH   1  31
ATOM     30  N   UNL     1      -8.643   0.090   4.152  0.00  0.00    -0.312 N 
ATOM     31  C   UNL     1      -7.899  -0.395   3.138  0.00  0.00    +0.246 C 
ATOM     32  O   UNL     1      -7.027  -1.212   3.360  0.00  0.00    -0.270 OA
ATOM     33  H   UNL     1      -9.339   0.741   3.974  0.00  0.00    +0.149 HD
BRANCH  30  35
ATOM     34  C   UNL     1      -9.373   0.332   6.473  0.00  0.00    +0.024 C 
ATOM     35  C   UNL     1      -8.400  -0.368   5.522  0.00  0.00    +0.101 C 
ENDBRANCH  30  35
ENDBRANCH   1  31
TORSDOF 4
