REMARK  Name = ZINC31468896
REMARK  6 active torsions:
REMARK  status: ('A' for Active; 'I' for Inactive)
REMARK    1  A    between atoms: C_1  and  C_2
REMARK    2  A    between atoms: C_8  and  N_10
REMARK    3  A    between atoms: N_10  and  C_11
REMARK    4  A    between atoms: N_10  and  C_18
REMARK    5  A    between atoms: C_11  and  C_12
REMARK    6  A    between atoms: C_18  and  C_19
REMARK                            x       y       z     vdW  Elec       q    Type
REMARK                         _______ _______ _______ _____ _____    ______ ____
ROOT
ATOM      1  N   UNL     1       4.722   0.985  -0.066  0.00  0.00    +0.393 N 
ATOM      2  H   UNL     1       4.738   0.195  -0.832  0.00  0.00    -0.080 HD
ENDROOT
BRANCH   1   9
ATOM      3  C   UNL     1       4.231  -1.862   0.174  0.00  0.00    +0.006 C 
ATOM      4  C   UNL     1       3.775  -0.860   1.236  0.00  0.00    -0.028 C 
ATOM      5  C   UNL     1       3.781  -1.535   2.609  0.00  0.00    +0.002 C 
ATOM      6  C   UNL     1       3.325  -0.533   3.672  0.00  0.00    +0.000 C 
ATOM      7  C   UNL     1       4.278   0.663   3.688  0.00  0.00    -0.002 C 
ATOM      8  C   UNL     1       4.272   1.338   2.315  0.00  0.00    -0.015 C 
ATOM      9  C   UNL     1       4.728   0.337   1.252  0.00  0.00    -0.064 C 
ENDBRANCH   1   9
BRANCH   1  10
ATOM     10  C   UNL     1       3.499   1.775  -0.259  0.00  0.00    +0.020 C 
BRANCH  10  11
ATOM     11  C   UNL     1       2.387   0.873  -0.727  0.00  0.00    +0.204 C 
ATOM     12  O   UNL     1       2.624  -0.278  -1.025  0.00  0.00    -0.277 OA
ATOM     13  N   UNL     1       1.128   1.345  -0.816  0.00  0.00    -0.242 N 
ATOM     14  C   UNL     1       0.133   0.539  -1.235  0.00  0.00    +0.303 C 
ATOM     15  O   UNL     1       0.371  -0.615  -1.533  0.00  0.00    -0.253 OA
ATOM     16  N   UNL     1      -1.125   1.013  -1.328  0.00  0.00    -0.313 N 
ATOM     17  H   UNL     1       0.912   2.390  -0.546  0.00  0.00    +0.159 HD
ATOM     18  H   UNL     1      -1.937   0.354  -1.670  0.00  0.00    +0.146 HD
ATOM     19  H   UNL     1      -1.340   2.059  -1.063  0.00  0.00    +0.146 HD
ENDBRANCH  10  11
ENDBRANCH   1  10
BRANCH   1  20
ATOM     20  C   UNL     1       5.920   1.815  -0.250  0.00  0.00    +0.020 C 
BRANCH  20  21
ATOM     21  C   UNL     1       7.121   0.927  -0.449  0.00  0.00    +0.204 C 
ATOM     22  O   UNL     1       6.979  -0.273  -0.543  0.00  0.00    -0.277 OA
ATOM     23  N   UNL     1       8.354   1.467  -0.523  0.00  0.00    -0.242 N 
ATOM     24  C   UNL     1       9.428   0.673  -0.702  0.00  0.00    +0.303 C 
ATOM     25  O   UNL     1       9.285  -0.530  -0.796  0.00  0.00    -0.253 OA
ATOM     26  N   UNL     1      10.661   1.213  -0.776  0.00  0.00    -0.313 N 
ATOM     27  H   UNL     1       8.483   2.556  -0.438  0.00  0.00    +0.159 HD
ATOM     28  H   UNL     1      11.537   0.565  -0.921  0.00  0.00    +0.146 HD
ATOM     29  H   UNL     1      10.790   2.302  -0.691  0.00  0.00    +0.146 HD
ENDBRANCH  20  21
ENDBRANCH   1  20
TORSDOF 5
