REMARK  Name = ZINC63147531
REMARK  6 active torsions:
REMARK  status: ('A' for Active; 'I' for Inactive)
REMARK    1  A    between atoms: C_5  and  C_6
REMARK    2  A    between atoms: C_6  and  N_7
REMARK    3  A    between atoms: N_7  and  S_8
REMARK    4  A    between atoms: S_8  and  C_11
REMARK    5  A    between atoms: C_12  and  N_19
REMARK    6  A    between atoms: N_19  and  N_20
REMARK                            x       y       z     vdW  Elec       q    Type
REMARK                         _______ _______ _______ _____ _____    ______ ____
ROOT
ATOM      1  C   UNL     1      -4.374  -1.606  -0.937  0.00  0.00    +0.222 A 
ATOM      2  C   UNL     1      -4.785  -1.867   0.321  0.00  0.00    +0.179 A 
ATOM      3  N   UNL     1      -5.970  -1.261   0.512  0.00  0.00    -0.203 NA
ATOM      4  C   UNL     1      -6.307  -0.635  -0.581  0.00  0.00    +0.181 A 
ATOM      5  N   UNL     1      -5.345  -0.802  -1.540  0.00  0.00    -0.276 N 
ATOM      6  C   UNL     1      -5.561  -0.188  -2.755  0.00  0.00    +0.102 A 
ATOM      7  C   UNL     1      -6.661   0.533  -2.968  0.00  0.00    +0.067 A 
ATOM      8  S   UNL     1      -7.510   0.382  -1.404  0.00  0.00    -0.058 S 
ENDROOT
BRANCH   1   9
ATOM      9  S   UNL     1      -2.880  -2.169  -1.681  0.00  0.00    +0.078 S 
ATOM     10  O   UNL     1      -3.095  -2.154  -3.086  0.00  0.00    -0.151 OA
ATOM     11  O   UNL     1      -2.496  -3.346  -0.982  0.00  0.00    -0.151 OA
BRANCH   9  12
ATOM     12  N   UNL     1      -1.717  -1.032  -1.368  0.00  0.00    -0.184 NA
ATOM     13  H   UNL     1      -1.321  -0.530  -2.097  0.00  0.00    +0.148 HD
BRANCH  12  14
ATOM     14  C   UNL     1      -1.286  -0.786   0.011  0.00  0.00    +0.141 C 
BRANCH  14  19
ATOM     15  C   UNL     1      -0.017   1.378   0.010  0.00  0.00    +0.012 A 
ATOM     16  C   UNL     1       1.160   2.051   0.002  0.00  0.00    +0.045 A 
ATOM     17  S   UNL     1       2.348   0.719  -0.017  0.00  0.00    -0.105 S 
ATOM     18  C   UNL     1       1.196  -0.645  -0.013  0.00  0.00    +0.050 A 
ATOM     19  C   UNL     1       0.002  -0.004   0.002  0.00  0.00    -0.025 A 
ENDBRANCH  14  19
ENDBRANCH  12  14
ENDBRANCH   9  12
ENDBRANCH   1   9
BRANCH   2  20
ATOM     20  N   UNL     1      -4.095  -2.638   1.268  0.00  0.00    -0.265 N 
ATOM     21  H   UNL     1      -3.241  -3.038   1.039  0.00  0.00    +0.168 HD
BRANCH  20  22
ATOM     22  N   UNL     1      -4.625  -2.826   2.514  0.00  0.00    -0.255 NA
ATOM     23  H   UNL     1      -4.019  -3.399   3.082  0.00  0.00    +0.140 HD
ATOM     24  H   UNL     1      -4.813  -1.943   2.963  0.00  0.00    +0.140 HD
ENDBRANCH  20  22
ENDBRANCH   2  20
TORSDOF 6
