REMARK  Name = ZINC64985956
REMARK  7 active torsions:
REMARK  status: ('A' for Active; 'I' for Inactive)
REMARK    1  A    between atoms: C_1  and  C_2
REMARK    2  A    between atoms: C_5  and  S_8
REMARK    3  A    between atoms: S_8  and  N_11
REMARK    4  A    between atoms: C_13  and  C_23
REMARK    5  A    between atoms: C_20  and  C_22
REMARK    6  A    between atoms: N_25  and  C_26
REMARK    7  A    between atoms: C_31  and  C_32
REMARK                            x       y       z     vdW  Elec       q    Type
REMARK                         _______ _______ _______ _____ _____    ______ ____
ROOT
ATOM      1  N   UNL     1       1.581  -4.933  -0.074  0.00  0.00    -0.195 N 
ATOM      2  C   UNL     1       2.271  -5.253  -1.336  0.00  0.00    +0.186 C 
ATOM      3  C   UNL     1       3.709  -4.726  -1.225  0.00  0.00    +0.278 C 
ATOM      4  O   UNL     1       4.337  -5.336  -0.095  0.00  0.00    -0.476 OA
ATOM      5  C   UNL     1       3.667  -5.322   1.087  0.00  0.00    +0.144 A 
ATOM      6  C   UNL     1       2.290  -5.118   1.123  0.00  0.00    +0.093 A 
ATOM      7  C   UNL     1       1.621  -5.104   2.336  0.00  0.00    +0.029 A 
ATOM      8  C   UNL     1       2.325  -5.285   3.513  0.00  0.00    +0.005 A 
ATOM      9  C   UNL     1       3.693  -5.479   3.479  0.00  0.00    -0.047 A 
ATOM     10  C   UNL     1       4.361  -5.506   2.272  0.00  0.00    +0.051 A 
ATOM     11  C   UNL     1       4.455  -5.674   4.764  0.00  0.00    +0.044 C 
ENDROOT
BRANCH   3  12
ATOM     12  C   UNL     1       4.471  -5.071  -2.478  0.00  0.00    +0.260 C 
ATOM     13  O   UNL     1       5.411  -5.836  -2.425  0.00  0.00    -0.271 OA
ATOM     14  N   UNL     1       4.109  -4.530  -3.658  0.00  0.00    -0.282 N 
ATOM     15  H   UNL     1       3.397  -3.871  -3.691  0.00  0.00    +0.155 HD
BRANCH  14  16
ATOM     16  C   UNL     1       4.759  -4.918  -4.835  0.00  0.00    +0.036 A 
ATOM     17  C   UNL     1       6.078  -5.352  -4.791  0.00  0.00    +0.023 A 
ATOM     18  C   UNL     1       6.716  -5.734  -5.954  0.00  0.00    +0.002 A 
ATOM     19  C   UNL     1       6.044  -5.685  -7.162  0.00  0.00    +0.000 A 
ATOM     20  C   UNL     1       4.731  -5.253  -7.209  0.00  0.00    +0.005 A 
ATOM     21  C   UNL     1       4.085  -4.876  -6.048  0.00  0.00    -0.029 A 
ATOM     22  C   UNL     1       2.652  -4.412  -6.099  0.00  0.00    +0.045 C 
ENDBRANCH  14  16
ENDBRANCH   3  12
BRANCH   1  23
ATOM     23  S   UNL     1       0.025  -4.366  -0.069  0.00  0.00    +0.075 S 
ATOM     24  O   UNL     1      -0.234  -3.877  -1.378  0.00  0.00    -0.150 OA
ATOM     25  O   UNL     1      -0.107  -3.552   1.088  0.00  0.00    -0.150 OA
BRANCH  23  30
ATOM     26  C   UNL     1      -3.604  -9.117   0.745  0.00  0.00    +0.044 C 
ATOM     27  C   UNL     1      -2.697  -7.931   0.542  0.00  0.00    -0.050 A 
ATOM     28  C   UNL     1      -2.220  -7.230   1.634  0.00  0.00    +0.005 A 
ATOM     29  C   UNL     1      -1.388  -6.142   1.447  0.00  0.00    +0.029 A 
ATOM     30  C   UNL     1      -1.034  -5.754   0.169  0.00  0.00    +0.109 A 
ATOM     31  C   UNL     1      -1.511  -6.455  -0.923  0.00  0.00    +0.029 A 
ATOM     32  C   UNL     1      -2.339  -7.546  -0.736  0.00  0.00    +0.005 A 
ENDBRANCH  23  30
ENDBRANCH   1  23
TORSDOF 4
