REMARK  Name = ZINC50676077
REMARK  11 active torsions:
REMARK  status: ('A' for Active; 'I' for Inactive)
REMARK    1  A    between atoms: C_1  and  C_2
REMARK    2  A    between atoms: C_2  and  C_4
REMARK    3  A    between atoms: C_2  and  N_8
REMARK    4  A    between atoms: C_4  and  C_5
REMARK    5  A    between atoms: C_5  and  C_6
REMARK    6  A    between atoms: C_5  and  C_7
REMARK    7  A    between atoms: N_8  and  C_9
REMARK    8  A    between atoms: N_8  and  S_10
REMARK    9  A    between atoms: S_10  and  C_13
REMARK   10  A    between atoms: C_15  and  N_20
REMARK   11  A    between atoms: C_18  and  N_19
REMARK                            x       y       z     vdW  Elec       q    Type
REMARK                         _______ _______ _______ _____ _____    ______ ____
ROOT
ATOM      1  C   UNL     1      -1.810  -2.822  -0.506  0.00  0.00    +0.128 A 
ATOM      2  C   UNL     1      -2.875  -3.661  -0.245  0.00  0.00    +0.063 A 
ATOM      3  C   UNL     1      -2.650  -4.937   0.239  0.00  0.00    +0.128 A 
ATOM      4  C   UNL     1      -1.358  -5.377   0.462  0.00  0.00    +0.034 A 
ATOM      5  C   UNL     1      -0.288  -4.543   0.203  0.00  0.00    +0.027 A 
ATOM      6  C   UNL     1      -0.511  -3.263  -0.288  0.00  0.00    +0.051 A 
ENDROOT
BRANCH   1   7
ATOM      7  S   UNL     1      -2.098  -1.196  -1.122  0.00  0.00    +0.063 S 
ATOM      8  O   UNL     1      -3.504  -1.065  -1.279  0.00  0.00    -0.153 OA
ATOM      9  O   UNL     1      -1.189  -1.003  -2.197  0.00  0.00    -0.153 OA
BRANCH   7  10
ATOM     10  N   UNL     1      -1.654  -0.135   0.070  0.00  0.00    -0.177 NA
ATOM     11  C   UNL     1      -2.580   0.168   1.163  0.00  0.00    +0.132 C 
BRANCH  10  13
ATOM     12  C   UNL     1      -0.500   2.021   0.028  0.00  0.00    +0.026 C 
ATOM     13  C   UNL     1      -0.334   0.500   0.030  0.00  0.00    +0.077 C 
BRANCH  13  14
ATOM     14  C   UNL     1       0.472   0.076   1.260  0.00  0.00    +0.023 C 
BRANCH  14  15
ATOM     15  C   UNL     1       1.888   0.648   1.163  0.00  0.00    -0.016 C 
ATOM     16  C   UNL     1       2.648   0.352   2.457  0.00  0.00    +0.007 C 
ATOM     17  C   UNL     1       2.619   0.003  -0.017  0.00  0.00    +0.007 C 
ENDBRANCH  14  15
ENDBRANCH  13  14
ENDBRANCH  10  13
ENDBRANCH   7  10
ENDBRANCH   1   7
BRANCH   6  18
ATOM     18  N   UNL     1       0.569  -2.419  -0.556  0.00  0.00    -0.356 N 
ATOM     19  H   UNL     1       0.411  -1.506  -0.846  0.00  0.00    +0.142 HD
ATOM     20  H   UNL     1       1.477  -2.745  -0.453  0.00  0.00    +0.142 HD
ENDBRANCH   6  18
BRANCH   3  21
ATOM     21  N   UNL     1      -3.794  -5.833   0.518  0.00  0.00    +0.056 N 
ATOM     22  O   UNL     1      -4.924  -5.450   0.323  0.00  0.00    -0.126 OA
ATOM     23  O   UNL     1      -3.599  -6.949   0.941  0.00  0.00    -0.126 OA
ENDBRANCH   3  21
TORSDOF 7
