REMARK  Name = ZINC54472117
REMARK  7 active torsions:
REMARK  status: ('A' for Active; 'I' for Inactive)
REMARK    1  A    between atoms: C_1  and  C_2
REMARK    2  A    between atoms: C_2  and  C_3
REMARK    3  A    between atoms: C_3  and  C_5
REMARK    4  A    between atoms: C_3  and  C_6
REMARK    5  A    between atoms: C_6  and  N_7
REMARK    6  A    between atoms: C_8  and  C_10
REMARK    7  A    between atoms: C_12  and  N_18
REMARK                            x       y       z     vdW  Elec       q    Type
REMARK                         _______ _______ _______ _____ _____    ______ ____
ROOT
ATOM      1  C   UNL     1       2.682  -4.263  -3.667  0.00  0.00    +0.040 A 
ATOM      2  C   UNL     1       2.934  -5.625  -3.840  0.00  0.00    +0.047 A 
ATOM      3  C   UNL     1       3.677  -6.054  -4.920  0.00  0.00    +0.147 A 
ATOM      4  C   UNL     1       4.173  -5.137  -5.831  0.00  0.00    +0.089 A 
ATOM      5  C   UNL     1       3.927  -3.784  -5.664  0.00  0.00    +0.062 A 
ATOM      6  C   UNL     1       3.179  -3.343  -4.591  0.00  0.00    +0.034 A 
ATOM      7 CL   UNL     1       4.553  -2.641  -6.811  0.00  0.00    -0.082 Cl
ATOM      8 CL   UNL     1       5.108  -5.685  -7.188  0.00  0.00    -0.080 Cl
ENDROOT
BRANCH   1  10
ATOM      9  N   UNL     1       1.639  -2.482  -2.350  0.00  0.00    -0.311 N 
ATOM     10  C   UNL     1       1.885  -3.797  -2.512  0.00  0.00    +0.244 C 
ATOM     11  O   UNL     1       1.453  -4.601  -1.708  0.00  0.00    -0.270 OA
ATOM     12  H   UNL     1       1.984  -1.842  -2.991  0.00  0.00    +0.149 HD
BRANCH   9  13
ATOM     13  C   UNL     1       0.849  -2.021  -1.205  0.00  0.00    +0.107 C 
BRANCH  13  14
ATOM     14  C   UNL     1       0.718  -0.497  -1.257  0.00  0.00    +0.003 C 
ATOM     15  C   UNL     1      -0.089  -0.097  -2.493  0.00  0.00    +0.009 C 
BRANCH  14  17
ATOM     16  C   UNL     1      -0.019   1.526   0.010  0.00  0.00    +0.004 C 
ATOM     17  C   UNL     1       0.002  -0.004   0.002  0.00  0.00    +0.001 C 
ENDBRANCH  14  17
ENDBRANCH  13  14
ENDBRANCH   9  13
ENDBRANCH   1  10
BRANCH   3  18
ATOM     18  N   UNL     1       3.945  -7.498  -5.104  0.00  0.00    +0.058 N 
ATOM     19  O   UNL     1       3.513  -8.300  -4.309  0.00  0.00    -0.126 OA
ATOM     20  O   UNL     1       4.596  -7.876  -6.050  0.00  0.00    -0.126 OA
ENDBRANCH   3  18
TORSDOF 5
