REMARK  Name = ZINC66782964
REMARK  10 active torsions:
REMARK  status: ('A' for Active; 'I' for Inactive)
REMARK    1  A    between atoms: C_1  and  C_2
REMARK    2  A    between atoms: C_3  and  C_23
REMARK    3  A    between atoms: C_4  and  C_22
REMARK    4  A    between atoms: C_7  and  C_8
REMARK    5  A    between atoms: N_10  and  N_11
REMARK    6  A    between atoms: C_12  and  C_14
REMARK    7  A    between atoms: C_14  and  C_15
REMARK    8  A    between atoms: C_15  and  C_16
REMARK    9  A    between atoms: C_23  and  O_25
REMARK   10  A    between atoms: O_25  and  C_26
REMARK                            x       y       z     vdW  Elec       q    Type
REMARK                         _______ _______ _______ _____ _____    ______ ____
ROOT
ATOM      1  C   UNL     1       0.033  -0.383   2.495  0.00  0.00    +0.277 C 
ATOM      2  O   UNL     1       0.020   0.804   2.761  0.00  0.00    -0.267 OA
ATOM      3  N   UNL     1       0.055  -1.296   3.486  0.00  0.00    -0.229 N 
ATOM      4  H   UNL     1       0.065  -2.242   3.273  0.00  0.00    +0.173 HD
ENDROOT
BRANCH   1  11
ATOM      5  C   UNL     1      -0.018   1.503   0.010  0.00  0.00    +0.047 C 
ATOM      6  C   UNL     1       0.002  -0.004   0.002  0.00  0.00    -0.006 A 
ATOM      7  C   UNL     1       0.008  -0.839  -1.139  0.00  0.00    +0.083 A 
ATOM      8  C   UNL     1       0.028  -2.145  -0.686  0.00  0.00    +0.028 A 
ATOM      9  N   UNL     1       0.034  -2.127   0.656  0.00  0.00    -0.354 N 
ATOM     10  H   UNL     1       0.047  -2.911   1.228  0.00  0.00    +0.166 HD
ATOM     11  C   UNL     1       0.024  -0.821   1.093  0.00  0.00    +0.107 A 
ATOM     12  C   UNL     1       0.041  -3.378  -1.552  0.00  0.00    +0.064 C 
BRANCH   7  13
ATOM     13  C   UNL     1      -0.004  -0.400  -2.544  0.00  0.00    +0.341 C 
ATOM     14  O   UNL     1       1.043  -0.204  -3.129  0.00  0.00    -0.245 OA
BRANCH  13  15
ATOM     15  O   UNL     1      -1.177  -0.215  -3.182  0.00  0.00    -0.464 OA
ATOM     16  C   UNL     1      -1.114   0.211  -4.545  0.00  0.00    +0.280 C 
ENDBRANCH  13  15
ENDBRANCH   7  13
ENDBRANCH   1  11
BRANCH   3  17
ATOM     17  N   UNL     1       0.063  -0.878   4.823  0.00  0.00    -0.234 N 
ATOM     18  C   UNL     1       0.085  -1.791   5.814  0.00  0.00    +0.229 C 
ATOM     19  O   UNL     1       0.098  -2.974   5.549  0.00  0.00    -0.274 OA
ATOM     20  H   UNL     1       0.053   0.069   5.036  0.00  0.00    +0.173 HD
BRANCH  18  21
ATOM     21  C   UNL     1       0.094  -1.341   7.253  0.00  0.00    +0.097 C 
BRANCH  21  22
ATOM     22  C   UNL     1       0.120  -2.566   8.169  0.00  0.00    +0.013 C 
BRANCH  22  23
ATOM     23  C   UNL     1       0.129  -2.110   9.630  0.00  0.00    -0.011 C 
ATOM     24  C   UNL     1      -1.185  -1.393   9.948  0.00  0.00    +0.003 C 
ATOM     25  C   UNL     1      -1.176  -0.936  11.409  0.00  0.00    +0.000 C 
ATOM     26  C   UNL     1      -1.024  -2.154  12.323  0.00  0.00    +0.000 C 
ATOM     27  C   UNL     1       0.289  -2.871  12.004  0.00  0.00    +0.000 C 
ATOM     28  C   UNL     1       0.280  -3.327  10.544  0.00  0.00    +0.003 C 
ENDBRANCH  22  23
ENDBRANCH  21  22
ENDBRANCH  18  21
ENDBRANCH   3  17
TORSDOF 7
