REMARK  Name = ZINC15085256
REMARK  6 active torsions:
REMARK  status: ('A' for Active; 'I' for Inactive)
REMARK    1  A    between atoms: C_1  and  O_2
REMARK    2  A    between atoms: O_2  and  C_3
REMARK    3  A    between atoms: C_5  and  C_14
REMARK    4  A    between atoms: C_8  and  O_9
REMARK    5  A    between atoms: O_9  and  C_10
REMARK    6  A    between atoms: C_10  and  C_11
REMARK                            x       y       z     vdW  Elec       q    Type
REMARK                         _______ _______ _______ _____ _____    ______ ____
ROOT
ATOM      1  C   UNL     1       0.606  -0.608  -1.056  0.00  0.00    +0.162 A 
ATOM      2  C   UNL     1       1.173   0.159  -2.062  0.00  0.00    +0.053 A 
ATOM      3  C   UNL     1       1.787  -0.456  -3.137  0.00  0.00    -0.036 A 
ATOM      4  C   UNL     1       1.837  -1.836  -3.212  0.00  0.00    +0.008 A 
ATOM      5  C   UNL     1       1.273  -2.606  -2.212  0.00  0.00    +0.050 A 
ATOM      6  C   UNL     1       0.662  -1.996  -1.129  0.00  0.00    +0.163 A 
ENDROOT
BRANCH   3   7
ATOM      7  C   UNL     1       2.403   0.379  -4.230  0.00  0.00    +0.063 C 
ATOM      8  C   UNL     1       1.737   0.049  -5.569  0.00  0.00    +0.109 C 
ATOM      9  C   UNL     1       2.222  -1.263  -6.115  0.00  0.00    +0.219 C 
ATOM     10  O   UNL     1       1.438  -1.977  -6.704  0.00  0.00    -0.275 OA
ATOM     11  N   UNL     1       3.500  -1.675  -5.973  0.00  0.00    -0.270 N 
ATOM     12  C   UNL     1       4.351  -0.909  -5.176  0.00  0.00    +0.124 A 
ATOM     13  C   UNL     1       3.873   0.067  -4.340  0.00  0.00    +0.020 A 
ATOM     14  C   UNL     1       4.954   0.640  -3.688  0.00  0.00    +0.140 A 
ATOM     15  N   UNL     1       6.046   0.043  -4.106  0.00  0.00    -0.180 NA
ATOM     16  N   UNL     1       5.685  -0.937  -5.048  0.00  0.00    -0.264 N 
ATOM     17  H   UNL     1       6.293  -1.528  -5.519  0.00  0.00    +0.190 HD
ATOM     18  H   UNL     1       3.816  -2.481  -6.411  0.00  0.00    +0.156 HD
ENDBRANCH   3   7
BRANCH   1  20
ATOM     19  C   UNL     1      -0.017   1.425   0.010  0.00  0.00    +0.277 C 
ATOM     20  O   UNL     1       0.002  -0.004   0.002  0.00  0.00    -0.491 OA
ENDBRANCH   1  20
BRANCH   6  21
ATOM     21  O   UNL     1       0.112  -2.753  -0.142  0.00  0.00    -0.479 OA
BRANCH  21  22
ATOM     22  C   UNL     1       0.206  -4.171  -0.283  0.00  0.00    +0.324 C 
BRANCH  22  23
ATOM     23  C   UNL     1      -0.453  -4.838   0.897  0.00  0.00    +0.248 C 
ATOM     24  O   UNL     1      -0.954  -4.165   1.772  0.00  0.00    -0.272 OA
ATOM     25  N   UNL     1      -0.485  -6.183   0.979  0.00  0.00    -0.327 N 
ATOM     26  H   UNL     1      -0.084  -6.722   0.279  0.00  0.00    +0.145 HD
ATOM     27  H   UNL     1      -0.910  -6.613   1.738  0.00  0.00    +0.145 HD
ENDBRANCH  22  23
ENDBRANCH  21  22
ENDBRANCH   6  21
TORSDOF 5
