REMARK  Name = ZINC36607132
REMARK  19 active torsions:
REMARK  status: ('A' for Active; 'I' for Inactive)
REMARK    1  A    between atoms: C_1  and  C_2
REMARK    2  A    between atoms: C_2  and  C_3
REMARK    3  A    between atoms: C_3  and  C_5
REMARK    4  A    between atoms: C_3  and  C_11
REMARK    5  A    between atoms: N_13  and  C_14
REMARK    6  A    between atoms: N_13  and  C_20
REMARK    7  A    between atoms: C_20  and  C_22
REMARK    8  A    between atoms: C_20  and  C_31
REMARK    9  A    between atoms: C_23  and  O_30
REMARK   10  A    between atoms: C_25  and  O_29
REMARK   11  A    between atoms: C_27  and  O_28
REMARK   12  A    between atoms: N_33  and  C_34
REMARK   13  A    between atoms: C_34  and  C_35
REMARK   14  A    between atoms: C_34  and  C_36
REMARK   15  A    between atoms: C_34  and  C_37
REMARK   16  A    between atoms: C_37  and  C_38
REMARK   17  A    between atoms: C_38  and  C_39
REMARK   18  A    between atoms: C_38  and  C_40
REMARK   19  A    between atoms: C_38  and  C_41
REMARK                            x       y       z     vdW  Elec       q    Type
REMARK                         _______ _______ _______ _____ _____    ______ ____
ROOT
ATOM      1  C   UNL     1      -0.208  -4.697  -0.649  0.00  0.00    +0.204 C 
ENDROOT
BRANCH   1   2
ATOM      2  C   UNL     1      -0.831  -3.704   0.298  0.00  0.00    +0.065 A 
ATOM      3  C   UNL     1      -0.138  -2.557   0.656  0.00  0.00    +0.129 A 
ATOM      4  C   UNL     1      -0.711  -1.643   1.527  0.00  0.00    +0.091 A 
ATOM      5  C   UNL     1      -1.979  -1.876   2.039  0.00  0.00    +0.124 A 
ATOM      6  C   UNL     1      -2.673  -3.022   1.681  0.00  0.00    +0.091 A 
ATOM      7  C   UNL     1      -2.101  -3.933   0.806  0.00  0.00    +0.129 A 
BRANCH   7   8
ATOM      8  O   UNL     1      -2.783  -5.054   0.451  0.00  0.00    -0.506 OA
ATOM      9  H   UNL     1      -2.627  -5.810   1.034  0.00  0.00    +0.292 HD
ENDBRANCH   7   8
BRANCH   5  10
ATOM     10  O   UNL     1      -2.541  -0.981   2.894  0.00  0.00    -0.507 OA
ATOM     11  H   UNL     1      -3.059  -0.291   2.456  0.00  0.00    +0.292 HD
ENDBRANCH   5  10
BRANCH   3  12
ATOM     12  O   UNL     1       1.104  -2.330   0.153  0.00  0.00    -0.506 OA
ATOM     13  H   UNL     1       1.114  -1.761  -0.628  0.00  0.00    +0.292 HD
ENDBRANCH   3  12
ENDBRANCH   1   2
BRANCH   1  14
ATOM     14  C   UNL     1       1.010  -5.307  -0.005  0.00  0.00    +0.239 C 
ATOM     15  O   UNL     1       2.118  -4.936  -0.330  0.00  0.00    -0.273 OA
ATOM     16  N   UNL     1       0.869  -6.267   0.930  0.00  0.00    -0.308 N 
ATOM     17  H   UNL     1      -0.017  -6.564   1.190  0.00  0.00    +0.149 HD
BRANCH  16  18
ATOM     18  C   UNL     1       2.053  -6.860   1.556  0.00  0.00    +0.030 C 
ATOM     19  C   UNL     1       2.812  -7.694   0.522  0.00  0.00    +0.031 C 
ATOM     20  C   UNL     1       2.964  -5.749   2.082  0.00  0.00    +0.031 C 
BRANCH  18  21
ATOM     21  C   UNL     1       1.621  -7.758   2.717  0.00  0.00    +0.031 C 
BRANCH  21  22
ATOM     22  C   UNL     1       0.561  -7.037   3.552  0.00  0.00    -0.036 C 
ATOM     23  C   UNL     1      -0.789  -7.110   2.836  0.00  0.00    +0.010 C 
ATOM     24  C   UNL     1       0.449  -7.707   4.923  0.00  0.00    +0.010 C 
ATOM     25  C   UNL     1       0.964  -5.572   3.732  0.00  0.00    +0.010 C 
ENDBRANCH  21  22
ENDBRANCH  18  21
ENDBRANCH  16  18
ENDBRANCH   1  14
BRANCH   1  28
ATOM     26  C   UNL     1      -0.660  -3.137  -2.466  0.00  0.00    +0.228 C 
ATOM     27  O   UNL     1      -1.721  -2.877  -1.940  0.00  0.00    -0.275 OA
ATOM     28  N   UNL     1       0.183  -4.014  -1.885  0.00  0.00    -0.255 N 
BRANCH  28  29
ATOM     29  C   UNL     1       1.431  -4.273  -2.462  0.00  0.00    +0.037 A 
ATOM     30  C   UNL     1       1.702  -5.524  -3.002  0.00  0.00    +0.023 A 
ATOM     31  C   UNL     1       2.935  -5.776  -3.572  0.00  0.00    +0.002 A 
ATOM     32  C   UNL     1       3.898  -4.785  -3.605  0.00  0.00    +0.000 A 
ATOM     33  C   UNL     1       3.632  -3.539  -3.068  0.00  0.00    +0.002 A 
ATOM     34  C   UNL     1       2.399  -3.278  -2.502  0.00  0.00    +0.023 A 
ENDBRANCH  28  29
BRANCH  26  35
ATOM     35  C   UNL     1      -0.283  -2.481  -3.769  0.00  0.00    +0.105 C 
BRANCH  35  36
ATOM     36  C   UNL     1      -1.278  -1.396  -4.091  0.00  0.00    -0.036 A 
ATOM     37  C   UNL     1      -2.617  -1.708  -4.243  0.00  0.00    +0.004 A 
ATOM     38  C   UNL     1      -3.529  -0.713  -4.538  0.00  0.00    +0.000 A 
ATOM     39  C   UNL     1      -3.104   0.595  -4.680  0.00  0.00    +0.000 A 
ATOM     40  C   UNL     1      -1.766   0.907  -4.527  0.00  0.00    +0.000 A 
ATOM     41  C   UNL     1      -0.854  -0.088  -4.228  0.00  0.00    +0.004 A 
ENDBRANCH  35  36
BRANCH  35  43
ATOM     42  C   UNL     1       0.232  -2.894  -6.179  0.00  0.00    +0.005 C 
ATOM     43  C   UNL     1      -0.289  -3.526  -4.887  0.00  0.00    +0.014 C 
ENDBRANCH  35  43
ENDBRANCH  26  35
ENDBRANCH   1  28
TORSDOF 13
