REMARK  Name = ZINC36970060
REMARK  2 active torsions:
REMARK  status: ('A' for Active; 'I' for Inactive)
REMARK    1  A    between atoms: C_2  and  N_11
REMARK    2  A    between atoms: N_11  and  C_12
REMARK                            x       y       z     vdW  Elec       q    Type
REMARK                         _______ _______ _______ _____ _____    ______ ____
ROOT
ATOM      1  N   UNL     1       1.158   3.491   0.009  0.00  0.00    -0.340 N 
ATOM      2  H   UNL     1       1.991   3.987   0.004  0.00  0.00    +0.146 HD
ENDROOT
BRANCH   1   4
ATOM      3  C   UNL     1      -0.017   1.381   0.010  0.00  0.00    +0.074 A 
ATOM      4  C   UNL     1       1.176   2.091   0.002  0.00  0.00    +0.050 A 
ATOM      5  C   UNL     1       2.388   1.412  -0.013  0.00  0.00    +0.065 A 
ATOM      6  C   UNL     1       2.407   0.029  -0.021  0.00  0.00    +0.071 A 
ATOM      7  C   UNL     1       1.219  -0.682  -0.013  0.00  0.00    +0.168 A 
ATOM      8  C   UNL     1       0.002  -0.004   0.002  0.00  0.00    +0.168 A 
ATOM      9  O   UNL     1      -1.009  -0.922   0.006  0.00  0.00    -0.453 OA
ATOM     10  C   UNL     1      -0.407  -2.159  -0.419  0.00  0.00    +0.466 C 
ATOM     11  O   UNL     1       0.969  -2.026  -0.018  0.00  0.00    -0.453 OA
ATOM     12 CL   UNL     1       3.880   2.300  -0.023  0.00  0.00    -0.082 Cl
ENDBRANCH   1   4
BRANCH   1  13
ATOM     13  C   UNL     1      -0.121   4.206   0.025  0.00  0.00    +0.071 C 
ATOM     14  C   UNL     1      -0.641   4.352  -1.407  0.00  0.00    +0.027 C 
ATOM     15  C   UNL     1      -1.978   5.096  -1.390  0.00  0.00    +0.067 C 
ATOM     16  C   UNL     1      -1.782   6.480  -0.770  0.00  0.00    +0.170 C 
ATOM     17  C   UNL     1      -1.257   6.339   0.659  0.00  0.00    +0.067 C 
ATOM     18  C   UNL     1       0.079   5.593   0.639  0.00  0.00    +0.027 C 
ATOM     19  O   UNL     1      -3.038   7.178  -0.751  0.00  0.00    -0.346 OA
ATOM     20  C   UNL     1      -2.696   8.562  -1.007  0.00  0.00    +0.191 C 
ATOM     21  C   UNL     1      -1.528   8.417  -2.014  0.00  0.00    +0.191 C 
ATOM     22  O   UNL     1      -0.847   7.231  -1.554  0.00  0.00    -0.346 OA
ENDBRANCH   1  13
TORSDOF 2
