REMARK  Name = ZINC39677684
REMARK  8 active torsions:
REMARK  status: ('A' for Active; 'I' for Inactive)
REMARK    1  A    between atoms: C_1  and  N_2
REMARK    2  A    between atoms: N_2  and  C_3
REMARK    3  A    between atoms: N_2  and  C_4
REMARK    4  A    between atoms: C_8  and  C_10
REMARK    5  A    between atoms: C_14  and  C_23
REMARK    6  A    between atoms: N_25  and  C_26
REMARK    7  A    between atoms: C_26  and  C_27
REMARK    8  A    between atoms: C_30  and  C_32
REMARK                            x       y       z     vdW  Elec       q    Type
REMARK                         _______ _______ _______ _____ _____    ______ ____
ROOT
ATOM      1  C   UNL     1      -0.035   0.045  -4.897  0.00  0.00    +0.247 C 
ATOM      2  O   UNL     1      -0.154   1.254  -4.899  0.00  0.00    -0.270 OA
ATOM      3  N   UNL     1       0.066  -0.625  -6.062  0.00  0.00    -0.296 N 
ATOM      4  C   UNL     1       0.088  -2.092  -6.268  0.00  0.00    +0.121 C 
ATOM      5  C   UNL     1      -0.754  -2.320  -7.543  0.00  0.00    +0.100 C 
ATOM      6  C   UNL     1      -0.690  -0.984  -8.301  0.00  0.00    -0.004 C 
ATOM      7  C   UNL     1       0.171  -0.059  -7.429  0.00  0.00    +0.115 C 
ATOM      8  C   UNL     1      -2.090  -0.397  -8.457  0.00  0.00    -0.010 C 
ATOM      9  C   UNL     1      -2.007   0.902  -9.263  0.00  0.00    -0.082 C 
ATOM     10  N   UNL     1      -1.419   0.627 -10.580  0.00  0.00    +0.379 N 
ATOM     11  C   UNL     1      -0.040   0.151 -10.423  0.00  0.00    -0.082 C 
ATOM     12  C   UNL     1      -0.040  -1.181  -9.666  0.00  0.00    -0.010 C 
ATOM     13  H   UNL     1      -1.966  -0.079 -11.050  0.00  0.00    -0.086 HD
ATOM     14  H   UNL     1      -1.421   1.472 -11.131  0.00  0.00    -0.086 HD
ENDROOT
BRANCH   1  19
ATOM     15  C   UNL     1      -0.553  -0.843  -1.279  0.00  0.00    +0.030 A 
ATOM     16  C   UNL     1       0.073  -2.083  -1.216  0.00  0.00    +0.023 A 
ATOM     17  C   UNL     1       0.659  -2.624  -2.344  0.00  0.00    +0.003 A 
ATOM     18  C   UNL     1       0.626  -1.938  -3.541  0.00  0.00    +0.013 A 
ATOM     19  C   UNL     1       0.001  -0.693  -3.615  0.00  0.00    +0.039 A 
ATOM     20  C   UNL     1      -0.596  -0.148  -2.478  0.00  0.00    +0.036 A 
BRANCH  15  22
ATOM     21  C   UNL     1      -1.810   1.004  -0.204  0.00  0.00    +0.129 C 
ATOM     22  N   UNL     1      -1.145  -0.300  -0.136  0.00  0.00    -0.336 N 
ATOM     23  C   UNL     1      -1.100  -1.034   1.131  0.00  0.00    +0.129 C 
ENDBRANCH  15  22
ENDBRANCH   1  19
BRANCH   5  24
ATOM     24  C   UNL     1      -0.158  -3.427  -8.375  0.00  0.00    +0.218 C 
ATOM     25  O   UNL     1       1.024  -3.683  -8.285  0.00  0.00    -0.275 OA
ATOM     26  N   UNL     1      -0.938  -4.131  -9.218  0.00  0.00    -0.310 N 
ATOM     27  H   UNL     1      -1.884  -3.926  -9.290  0.00  0.00    +0.149 HD
BRANCH  26  28
ATOM     28  C   UNL     1      -0.359  -5.206 -10.027  0.00  0.00    +0.146 C 
BRANCH  28  29
ATOM     29  C   UNL     1      -1.435  -5.830 -10.878  0.00  0.00    +0.007 A 
ATOM     30  C   UNL     1      -1.831  -5.495 -12.134  0.00  0.00    +0.013 A 
ATOM     31  C   UNL     1      -2.847  -6.209 -12.729  0.00  0.00    +0.018 A 
ATOM     32  C   UNL     1      -3.425  -7.238 -12.033  0.00  0.00    +0.038 A 
ATOM     33  S   UNL     1      -2.510  -7.204 -10.500  0.00  0.00    -0.090 S 
BRANCH  32  34
ATOM     34  C   UNL     1      -4.517  -8.142 -12.445  0.00  0.00    +0.078 A 
ATOM     35  C   UNL     1      -4.965  -9.132 -11.568  0.00  0.00    +0.029 A 
ATOM     36  C   UNL     1      -5.989  -9.971 -11.969  0.00  0.00    +0.004 A 
ATOM     37  C   UNL     1      -6.534  -9.795 -13.234  0.00  0.00    +0.020 A 
ATOM     38  C   UNL     1      -6.043  -8.795 -14.051  0.00  0.00    +0.111 A 
ATOM     39  N   UNL     1      -5.070  -8.004 -13.645  0.00  0.00    -0.254 NA
ENDBRANCH  32  34
ENDBRANCH  28  29
ENDBRANCH  26  28
ENDBRANCH   5  24
TORSDOF 6
