REMARK  Name = ZINC00261070
REMARK  5 active torsions:
REMARK  status: ('A' for Active; 'I' for Inactive)
REMARK    1  A    between atoms: C_1  and  C_2
REMARK    2  A    between atoms: C_5  and  C_23
REMARK    3  A    between atoms: C_11  and  C_12
REMARK    4  A    between atoms: C_15  and  C_20
REMARK    5  A    between atoms: C_20  and  C_21
REMARK                            x       y       z     vdW  Elec       q    Type
REMARK                         _______ _______ _______ _____ _____    ______ ____
ROOT
ATOM      1  C   UNL     1       1.095   7.650   0.030  0.00  0.00    +0.044 C 
ATOM      2  C   UNL     1       1.097   6.143   0.022  0.00  0.00    -0.047 A 
ATOM      3  C   UNL     1      -0.088   5.470   0.031  0.00  0.00    +0.015 A 
ATOM      4  C   UNL     1      -0.086   4.068   0.024  0.00  0.00    +0.022 A 
ATOM      5  C   UNL     1      -1.278   3.319   0.031  0.00  0.00    +0.051 A 
ATOM      6  N   UNL     1      -1.194   2.006   0.019  0.00  0.00    -0.219 NA
ATOM      7  C   UNL     1      -0.017   1.383   0.010  0.00  0.00    +0.222 A 
ATOM      8  N   UNL     1       1.131   2.031   0.002  0.00  0.00    -0.214 NA
ATOM      9  C   UNL     1       1.149   3.369   0.009  0.00  0.00    +0.077 A 
ATOM     10  C   UNL     1       2.348   4.096   0.001  0.00  0.00    +0.032 A 
ATOM     11  C   UNL     1       2.309   5.458   0.007  0.00  0.00    -0.045 A 
ATOM     12  C   UNL     1       3.600   6.236  -0.002  0.00  0.00    +0.044 C 
ATOM     13  N   UNL     1       0.002  -0.004   0.002  0.00  0.00    -0.258 N 
ATOM     14  C   UNL     1      -1.182  -0.709   0.009  0.00  0.00    +0.167 C 
ATOM     15  C   UNL     1      -3.358  -1.221   0.028  0.00  0.00    +0.179 C 
ATOM     16  C   UNL     1      -2.534  -2.494   0.013  0.00  0.00    +0.242 C 
ATOM     17  O   UNL     1      -2.941  -3.636   0.011  0.00  0.00    -0.273 OA
ATOM     18  N   UNL     1      -1.249  -2.080   0.003  0.00  0.00    -0.258 N 
ATOM     19  C   UNL     1      -2.620   4.005   0.047  0.00  0.00    +0.066 C 
ATOM     20  H   UNL     1       0.849  -0.478  -0.009  0.00  0.00    +0.158 HD
ATOM     21  H   UNL     1      -0.479  -2.671  -0.009  0.00  0.00    +0.157 HD
ATOM     22  N   UNL     1      -2.349  -0.161   0.029  0.00  0.00    -0.349 N 
ATOM     23  H   UNL     1      -2.538   0.848   0.043  0.00  0.00    +0.163 HD
ENDROOT
BRANCH  15  24
ATOM     24  C   UNL     1      -4.240  -1.138  -1.219  0.00  0.00    +0.159 C 
BRANCH  24  25
ATOM     25  C   UNL     1      -5.136   0.070  -1.121  0.00  0.00    +0.358 C 
ATOM     26  O   UNL     1      -5.075   0.790  -0.153  0.00  0.00    -0.246 OA
ATOM     27  O   UNL     1      -6.002   0.345  -2.109  0.00  0.00    -0.246 OA
ENDBRANCH  24  25
ENDBRANCH  15  24
TORSDOF 2
