REMARK  Name = ZINC21971016
REMARK  5 active torsions:
REMARK  status: ('A' for Active; 'I' for Inactive)
REMARK    1  A    between atoms: C_1  and  C_2
REMARK    2  A    between atoms: C_6  and  C_16
REMARK    3  A    between atoms: N_8  and  C_9
REMARK    4  A    between atoms: N_18  and  N_19
REMARK    5  A    between atoms: C_20  and  C_22
REMARK                            x       y       z     vdW  Elec       q    Type
REMARK                         _______ _______ _______ _____ _____    ______ ____
ROOT
ATOM      1  C   UNL     1       5.874   3.059   0.245  0.00  0.00    +0.284 C 
ATOM      2  O   UNL     1       6.949   3.597   0.063  0.00  0.00    -0.267 OA
ATOM      3  N   UNL     1       5.820   1.750   0.561  0.00  0.00    -0.229 N 
ATOM      4  H   UNL     1       4.847   1.264   0.727  0.00  0.00    +0.173 HD
ENDROOT
BRANCH   1  10
ATOM      5  C   UNL     1       0.958   5.920  -0.203  0.00  0.00    +0.066 C 
ATOM      6  C   UNL     1       2.298   5.239  -0.101  0.00  0.00    +0.044 A 
ATOM      7  C   UNL     1       3.429   5.951  -0.322  0.00  0.00    +0.076 A 
ATOM      8  C   UNL     1       4.670   5.271  -0.222  0.00  0.00    +0.213 A 
ATOM      9  O   UNL     1       5.729   5.848  -0.413  0.00  0.00    -0.285 OA
ATOM     10  C   UNL     1       4.627   3.841   0.121  0.00  0.00    +0.194 A 
ATOM     11  N   UNL     1       3.456   3.271   0.316  0.00  0.00    -0.158 NA
ATOM     12  N   UNL     1       2.357   3.922   0.216  0.00  0.00    -0.235 N 
BRANCH  12  13
ATOM     13  C   UNL     1       1.157   3.238   0.440  0.00  0.00    +0.084 A 
ATOM     14  C   UNL     1       0.270   3.688   1.409  0.00  0.00    +0.029 A 
ATOM     15  C   UNL     1      -0.914   3.011   1.627  0.00  0.00    +0.002 A 
ATOM     16  C   UNL     1      -1.215   1.883   0.886  0.00  0.00    +0.002 A 
ATOM     17  C   UNL     1      -0.337   1.435  -0.084  0.00  0.00    +0.022 A 
ATOM     18  C   UNL     1       0.850   2.107  -0.307  0.00  0.00    +0.066 A 
ATOM     19 CL   UNL     1       1.955   1.540  -1.521  0.00  0.00    -0.081 Cl
ENDBRANCH  12  13
ENDBRANCH   1  10
BRANCH   3  20
ATOM     20  N   UNL     1       7.003   1.009   0.679  0.00  0.00    -0.230 N 
ATOM     21  C   UNL     1       6.949  -0.301   0.995  0.00  0.00    +0.267 C 
ATOM     22  O   UNL     1       5.873  -0.839   1.178  0.00  0.00    -0.268 OA
ATOM     23  H   UNL     1       7.976   1.495   0.514  0.00  0.00    +0.173 HD
BRANCH  21  24
ATOM     24  C   UNL     1       8.187  -1.076   1.118  0.00  0.00    +0.076 A 
ATOM     25  C   UNL     1       8.351  -2.414   1.430  0.00  0.00    +0.024 A 
ATOM     26  C   UNL     1       9.645  -2.920   1.478  0.00  0.00    -0.036 A 
ATOM     27  C   UNL     1      10.647  -2.043   1.242  0.00  0.00    -0.006 A 
ATOM     28  S   UNL     1       9.877  -0.544   0.898  0.00  0.00    -0.088 S 
ATOM     29  C   UNL     1      12.130  -2.333   1.289  0.00  0.00    +0.043 C 
ATOM     30  C   UNL     1      12.449  -3.264   0.106  0.00  0.00    +0.005 C 
ATOM     31  C   UNL     1      12.054  -4.684   0.435  0.00  0.00    +0.001 C 
ATOM     32  C   UNL     1      10.577  -4.977   0.481  0.00  0.00    +0.005 C 
ATOM     33  C   UNL     1       9.916  -4.407   1.737  0.00  0.00    +0.036 C 
ENDBRANCH  21  24
ENDBRANCH   3  20
TORSDOF 4
