REMARK  Name = ZINC39672971
REMARK  6 active torsions:
REMARK  status: ('A' for Active; 'I' for Inactive)
REMARK    1  A    between atoms: C_1  and  N_2
REMARK    2  A    between atoms: C_6  and  C_7
REMARK    3  A    between atoms: C_11  and  C_20
REMARK    4  A    between atoms: N_22  and  C_23
REMARK    5  A    between atoms: C_23  and  C_24
REMARK    6  A    between atoms: C_24  and  N_30
REMARK                            x       y       z     vdW  Elec       q    Type
REMARK                         _______ _______ _______ _____ _____    ______ ____
ROOT
ATOM      1  C   UNL     1      -1.003  -1.295   4.389  0.00  0.00    +0.265 C 
ATOM      2  O   UNL     1      -1.032  -1.765   5.511  0.00  0.00    -0.268 OA
ATOM      3  N   UNL     1      -0.797   0.026   4.218  0.00  0.00    -0.295 N 
ATOM      4  C   UNL     1      -0.813   0.790   2.948  0.00  0.00    +0.121 C 
ATOM      5  C   UNL     1      -1.512   2.122   3.303  0.00  0.00    +0.100 C 
ATOM      6  C   UNL     1      -1.305   2.283   4.818  0.00  0.00    -0.004 C 
ATOM      7  C   UNL     1      -0.511   1.044   5.257  0.00  0.00    +0.115 C 
ATOM      8  C   UNL     1      -0.510   3.552   5.111  0.00  0.00    -0.010 C 
ATOM      9  C   UNL     1      -0.367   3.721   6.626  0.00  0.00    -0.082 C 
ATOM     10  N   UNL     1      -1.698   3.801   7.239  0.00  0.00    +0.379 N 
ATOM     11  C   UNL     1      -2.421   2.540   7.032  0.00  0.00    -0.082 C 
ATOM     12  C   UNL     1      -2.651   2.321   5.534  0.00  0.00    -0.010 C 
ATOM     13  H   UNL     1      -1.601   3.973   8.229  0.00  0.00    -0.086 HD
ATOM     14  H   UNL     1      -2.216   4.557   6.818  0.00  0.00    -0.086 HD
ENDROOT
BRANCH   1  20
ATOM     15  C   UNL     1       0.798  -1.418   1.829  0.00  0.00    +0.150 C 
ATOM     16  N   UNL     1      -0.399  -2.221   2.094  0.00  0.00    -0.330 N 
ATOM     17  C   UNL     1      -0.929  -3.155   1.284  0.00  0.00    +0.199 A 
ATOM     18  N   UNL     1      -1.994  -3.662   1.853  0.00  0.00    -0.243 NA
ATOM     19  C   UNL     1      -2.189  -3.081   3.037  0.00  0.00    +0.143 A 
ATOM     20  C   UNL     1      -1.192  -2.166   3.223  0.00  0.00    +0.124 A 
ENDBRANCH   1  20
BRANCH   5  21
ATOM     21  C   UNL     1      -2.982   2.046   2.977  0.00  0.00    +0.218 C 
ATOM     22  O   UNL     1      -3.548   0.973   2.975  0.00  0.00    -0.275 OA
ATOM     23  N   UNL     1      -3.667   3.170   2.687  0.00  0.00    -0.313 N 
ATOM     24  H   UNL     1      -3.201   4.017   2.617  0.00  0.00    +0.149 HD
BRANCH  23  25
ATOM     25  C   UNL     1      -5.116   3.111   2.478  0.00  0.00    +0.126 C 
BRANCH  25  26
ATOM     26  C   UNL     1      -5.623   4.484   2.033  0.00  0.00    +0.038 C 
ATOM     27  C   UNL     1      -5.104   5.556   2.994  0.00  0.00    +0.024 C 
ATOM     28  C   UNL     1      -5.607   5.260   4.408  0.00  0.00    +0.002 C 
ATOM     29  C   UNL     1      -7.137   5.266   4.416  0.00  0.00    +0.000 C 
ATOM     30  C   UNL     1      -7.656   4.194   3.456  0.00  0.00    +0.002 C 
ATOM     31  C   UNL     1      -7.153   4.490   2.041  0.00  0.00    +0.024 C 
BRANCH  26  32
ATOM     32  N   UNL     1      -5.139   4.768   0.675  0.00  0.00    -0.291 NA
ATOM     33  C   UNL     1      -5.550   3.712  -0.262  0.00  0.00    +0.113 C 
ATOM     34  C   UNL     1      -5.078   4.077  -1.671  0.00  0.00    +0.175 C 
ATOM     35  O   UNL     1      -3.661   4.269  -1.660  0.00  0.00    -0.377 OA
ATOM     36  C   UNL     1      -3.226   5.291  -0.758  0.00  0.00    +0.175 C 
ATOM     37  C   UNL     1      -3.679   4.939   0.661  0.00  0.00    +0.113 C 
ENDBRANCH  26  32
ENDBRANCH  25  26
ENDBRANCH  23  25
ENDBRANCH   5  21
TORSDOF 5
