REMARK  Name = ZINC08213975
REMARK  7 active torsions:
REMARK  status: ('A' for Active; 'I' for Inactive)
REMARK    1  A    between atoms: C_1  and  C_2
REMARK    2  A    between atoms: C_2  and  C_4
REMARK    3  A    between atoms: C_2  and  N_57
REMARK    4  A    between atoms: C_11  and  C_13
REMARK    5  A    between atoms: C_11  and  C_14
REMARK    6  A    between atoms: C_11  and  N_57
REMARK    7  A    between atoms: N_19  and  C_20
REMARK                            x       y       z     vdW  Elec       q    Type
REMARK                         _______ _______ _______ _____ _____    ______ ____
ROOT
ATOM      1  C   UNL     1      -7.142   0.795   2.023  0.00  0.00    +0.206 C 
ATOM      2  O   UNL     1      -6.720   1.609   2.816  0.00  0.00    -0.277 OA
ATOM      3  N   UNL     1      -6.324   0.281   1.084  0.00  0.00    -0.242 N 
ATOM      4  C   UNL     1      -5.035   0.672   1.026  0.00  0.00    +0.306 C 
ATOM      5  O   UNL     1      -4.611   1.487   1.821  0.00  0.00    -0.252 OA
ATOM      6  N   UNL     1      -4.217   0.157   0.087  0.00  0.00    -0.294 N 
ATOM      7  H   UNL     1      -6.662  -0.370   0.450  0.00  0.00    +0.159 HD
ATOM      8  H   UNL     1      -4.555  -0.494  -0.547  0.00  0.00    +0.151 HD
ENDROOT
BRANCH   6   9
ATOM      9  C   UNL     1      -2.816   0.582   0.024  0.00  0.00    +0.037 C 
ATOM     10  C   UNL     1      -2.113  -0.147  -1.123  0.00  0.00    +0.029 C 
ATOM     11  C   UNL     1      -0.650   0.296  -1.188  0.00  0.00    -0.008 C 
ATOM     12  C   UNL     1       0.045  -0.042   0.133  0.00  0.00    +0.007 C 
ATOM     13  C   UNL     1      -0.658   0.688   1.280  0.00  0.00    -0.008 C 
ATOM     14  C   UNL     1      -2.121   0.244   1.345  0.00  0.00    +0.029 C 
ATOM     15  C   UNL     1      -0.593   2.197   1.040  0.00  0.00    +0.007 C 
ATOM     16  C   UNL     1      -1.288   2.535  -0.281  0.00  0.00    -0.008 C 
ATOM     17  C   UNL     1      -0.585   1.806  -1.427  0.00  0.00    +0.007 C 
ATOM     18  C   UNL     1      -2.751   2.091  -0.215  0.00  0.00    +0.029 C 
ENDBRANCH   6   9
BRANCH   1  19
ATOM     19  C   UNL     1      -8.583   0.359   2.088  0.00  0.00    +0.014 C 
ATOM     20  C   UNL     1      -9.278   0.696   0.767  0.00  0.00    -0.004 C 
BRANCH  19  21
ATOM     21  N   UNL     1      -9.255   1.068   3.193  0.00  0.00    +0.391 N 
ATOM     22  H   UNL     1      -8.604   1.160   3.982  0.00  0.00    -0.084 HD
ATOM     23  H   UNL     1      -9.539   2.001   2.873  0.00  0.00    -0.084 HD
BRANCH  21  25
ATOM     24  C   UNL     1     -11.379   1.263   4.396  0.00  0.00    -0.009 C 
ATOM     25  C   UNL     1     -10.448   0.320   3.632  0.00  0.00    -0.042 C 
BRANCH  25  26
ATOM     26  C   UNL     1     -10.029  -0.812   4.534  0.00  0.00    -0.043 A 
ATOM     27  C   UNL     1      -8.854  -0.721   5.258  0.00  0.00    +0.003 A 
ATOM     28  C   UNL     1      -8.469  -1.760   6.085  0.00  0.00    +0.000 A 
ATOM     29  C   UNL     1      -9.259  -2.890   6.190  0.00  0.00    +0.001 A 
ATOM     30  C   UNL     1     -10.434  -2.982   5.468  0.00  0.00    +0.020 A 
ATOM     31  C   UNL     1     -10.822  -1.940   4.643  0.00  0.00    +0.043 A 
ATOM     32 CL   UNL     1     -12.301  -2.052   3.741  0.00  0.00    -0.083 Cl
ENDBRANCH  25  26
ENDBRANCH  21  25
ENDBRANCH  19  21
ENDBRANCH   1  19
TORSDOF 5
