REMARK  Name = ZINC60526437
REMARK  3 active torsions:
REMARK  status: ('A' for Active; 'I' for Inactive)
REMARK    1  A    between atoms: C_2  and  C_12
REMARK    2  A    between atoms: N_14  and  C_15
REMARK    3  A    between atoms: C_16  and  C_23
REMARK                            x       y       z     vdW  Elec       q    Type
REMARK                         _______ _______ _______ _____ _____    ______ ____
ROOT
ATOM      1  C   UNL     1       1.167   3.568   0.010  0.00  0.00    +0.249 C 
ATOM      2  O   UNL     1       0.107   4.164   0.023  0.00  0.00    -0.270 OA
ATOM      3  N   UNL     1       2.326   4.256   0.003  0.00  0.00    -0.275 N 
ATOM      4  H   UNL     1       3.172   3.780  -0.008  0.00  0.00    +0.156 HD
ENDROOT
BRANCH   1   6
ATOM      5  C   UNL     1      -0.017   1.379   0.010  0.00  0.00    +0.062 A 
ATOM      6  C   UNL     1       1.184   2.093   0.002  0.00  0.00    +0.042 A 
ATOM      7  C   UNL     1       2.401   1.407  -0.014  0.00  0.00    +0.037 A 
ATOM      8  C   UNL     1       2.413   0.028  -0.023  0.00  0.00    +0.087 A 
ATOM      9  C   UNL     1       1.218  -0.683  -0.016  0.00  0.00    +0.180 A 
ATOM     10  C   UNL     1       0.002  -0.004   0.002  0.00  0.00    +0.164 A 
ATOM     11  O   UNL     1      -1.176  -0.686   0.017  0.00  0.00    -0.485 OA
ATOM     12  C   UNL     1      -1.127  -2.064  -0.367  0.00  0.00    +0.270 C 
ATOM     13  C   UNL     1       0.055  -2.723   0.358  0.00  0.00    +0.270 C 
ATOM     14  O   UNL     1       1.254  -2.043  -0.029  0.00  0.00    -0.483 OA
ATOM     15 CL   UNL     1       3.925  -0.823  -0.044  0.00  0.00    -0.080 Cl
ENDBRANCH   1   6
BRANCH   3  16
ATOM     16  C   UNL     1       2.311   5.643   0.010  0.00  0.00    +0.090 A 
ATOM     17  C   UNL     1       3.390   6.505  -0.001  0.00  0.00    +0.084 A 
ATOM     18  C   UNL     1       3.104   7.938   0.011  0.00  0.00    -0.018 A 
ATOM     19  C   UNL     1       1.792   8.235   0.033  0.00  0.00    -0.004 A 
ATOM     20  S   UNL     1       0.976   6.659   0.028  0.00  0.00    -0.077 S 
ATOM     21  C   UNL     1       1.553   9.720   0.048  0.00  0.00    +0.043 C 
ATOM     22  C   UNL     1       2.910  10.329   0.466  0.00  0.00    +0.010 C 
ATOM     23  C   UNL     1       3.900   9.241   0.002  0.00  0.00    +0.037 C 
BRANCH  17  24
ATOM     24  C   UNL     1       4.736   6.014  -0.023  0.00  0.00    +0.102 C 
ATOM     25  N   UNL     1       5.803   5.625  -0.041  0.00  0.00    -0.191 NA
ENDBRANCH  17  24
ENDBRANCH   3  16
TORSDOF 3
