REMARK  Name = ZINC41681043
REMARK  12 active torsions:
REMARK  status: ('A' for Active; 'I' for Inactive)
REMARK    1  A    between atoms: C_1  and  C_2
REMARK    2  A    between atoms: C_2  and  N_3
REMARK    3  A    between atoms: N_3  and  C_4
REMARK    4  A    between atoms: N_3  and  C_6
REMARK    5  A    between atoms: C_4  and  C_5
REMARK    6  A    between atoms: C_6  and  C_7
REMARK    7  A    between atoms: C_7  and  C_9
REMARK    8  A    between atoms: C_7  and  N_10
REMARK    9  A    between atoms: N_10  and  S_11
REMARK   10  A    between atoms: S_11  and  C_14
REMARK   11  A    between atoms: C_18  and  C_20
REMARK   12  A    between atoms: C_20  and  N_22
REMARK                            x       y       z     vdW  Elec       q    Type
REMARK                         _______ _______ _______ _____ _____    ______ ____
ROOT
ATOM      1  S   UNL     1       0.918  -1.595   3.141  0.00  0.00    +0.059 S 
ATOM      2  O   UNL     1       2.271  -1.203   2.954  0.00  0.00    -0.153 OA
ATOM      3  O   UNL     1      -0.032  -0.766   3.797  0.00  0.00    -0.153 OA
ENDROOT
BRANCH   1   4
ATOM      4  C   UNL     1       0.953  -3.119   4.027  0.00  0.00    +0.106 A 
ATOM      5  C   UNL     1      -0.144  -3.508   4.775  0.00  0.00    +0.028 A 
ATOM      6  C   UNL     1      -0.125  -4.702   5.473  0.00  0.00    +0.003 A 
ATOM      7  C   UNL     1       0.990  -5.513   5.428  0.00  0.00    +0.010 A 
ATOM      8  C   UNL     1       2.100  -5.127   4.675  0.00  0.00    +0.005 A 
ATOM      9  C   UNL     1       2.072  -3.923   3.968  0.00  0.00    +0.038 A 
BRANCH   8  10
ATOM     10  C   UNL     1       3.297  -5.989   4.622  0.00  0.00    +0.077 C 
ATOM     11  S   UNL     1       4.217  -6.091   3.182  0.00  0.00    -0.035 S 
BRANCH  10  12
ATOM     12  N   UNL     1       3.666  -6.697   5.708  0.00  0.00    -0.352 N 
ATOM     13  H   UNL     1       3.145  -6.640   6.524  0.00  0.00    +0.143 HD
ATOM     14  H   UNL     1       4.452  -7.264   5.674  0.00  0.00    +0.143 HD
ENDBRANCH  10  12
ENDBRANCH   8  10
ENDBRANCH   1   4
BRANCH   1  15
ATOM     15  N   UNL     1       0.306  -1.918   1.637  0.00  0.00    -0.189 NA
ATOM     16  H   UNL     1       0.864  -1.803   0.851  0.00  0.00    +0.148 HD
BRANCH  15  17
ATOM     17  C   UNL     1      -1.078  -2.376   1.491  0.00  0.00    +0.057 C 
ATOM     18  C   UNL     1      -1.101  -3.902   1.376  0.00  0.00    +0.024 C 
BRANCH  17  19
ATOM     19  C   UNL     1      -1.690  -1.761   0.231  0.00  0.00    -0.059 C 
BRANCH  19  20
ATOM     20  N   UNL     1      -1.790  -0.305   0.397  0.00  0.00    +0.380 N 
ATOM     21  H   UNL     1      -2.256  -0.096   1.267  0.00  0.00    -0.082 HD
BRANCH  20  23
ATOM     22  C   UNL     1       0.314  -0.150  -0.848  0.00  0.00    -0.017 C 
ATOM     23  C   UNL     1      -0.443   0.281   0.410  0.00  0.00    -0.082 C 
ENDBRANCH  20  23
BRANCH  20  24
ATOM     24  C   UNL     1      -2.559   0.263  -0.719  0.00  0.00    -0.082 C 
ATOM     25  C   UNL     1      -2.790   1.755  -0.472  0.00  0.00    -0.017 C 
ENDBRANCH  20  24
ENDBRANCH  19  20
ENDBRANCH  17  19
ENDBRANCH  15  17
ENDBRANCH   1  15
TORSDOF 9
