REMARK  Name = ZINC09292657
REMARK  9 active torsions:
REMARK  status: ('A' for Active; 'I' for Inactive)
REMARK    1  A    between atoms: C_1  and  C_2
REMARK    2  A    between atoms: C_2  and  O_3
REMARK    3  A    between atoms: O_3  and  C_4
REMARK    4  A    between atoms: C_7  and  C_12
REMARK    5  A    between atoms: C_9  and  O_10
REMARK    6  A    between atoms: O_10  and  C_11
REMARK    7  A    between atoms: C_19  and  N_35
REMARK    8  A    between atoms: C_20  and  C_33
REMARK    9  A    between atoms: C_21  and  C_23
REMARK                            x       y       z     vdW  Elec       q    Type
REMARK                         _______ _______ _______ _____ _____    ______ ____
ROOT
ATOM      1  C   UNL     1       1.106  -6.021  -1.840  0.00  0.00    +0.074 A 
ATOM      2  C   UNL     1       1.454  -6.919  -0.887  0.00  0.00    +0.054 A 
ATOM      3  C   UNL     1       1.440  -8.202  -1.469  0.00  0.00    +0.245 A 
ATOM      4  N   UNL     1       1.097  -8.081  -2.720  0.00  0.00    -0.135 NA
ATOM      5  N   UNL     1       0.873  -6.722  -2.990  0.00  0.00    -0.273 N 
ATOM      6  H   UNL     1       0.602  -6.347  -3.843  0.00  0.00    +0.189 HD
ATOM      7  O   UNL     1       1.746  -9.319  -0.755  0.00  0.00    -0.421 OA
ATOM      8  C   UNL     1       1.801  -9.205   0.586  0.00  0.00    +0.201 C 
ATOM      9  C   UNL     1       1.832  -8.032   1.253  0.00  0.00    +0.098 C 
ATOM     10  C   UNL     1       1.813  -6.693   0.559  0.00  0.00    +0.102 C 
ENDROOT
BRANCH  10  11
ATOM     11  C   UNL     1       3.174  -6.052   0.652  0.00  0.00    -0.034 A 
ATOM     12  C   UNL     1       4.281  -6.713   0.123  0.00  0.00    +0.005 A 
ATOM     13  C   UNL     1       5.524  -6.163   0.191  0.00  0.00    +0.009 A 
ATOM     14  C   UNL     1       5.697  -4.910   0.802  0.00  0.00    -0.018 A 
ATOM     15  C   UNL     1       6.965  -4.309   0.891  0.00  0.00    +0.008 A 
ATOM     16  C   UNL     1       7.094  -3.094   1.490  0.00  0.00    +0.001 A 
ATOM     17  C   UNL     1       5.987  -2.433   2.019  0.00  0.00    +0.001 A 
ATOM     18  C   UNL     1       4.744  -2.984   1.952  0.00  0.00    +0.008 A 
ATOM     19  C   UNL     1       4.571  -4.237   1.340  0.00  0.00    -0.018 A 
ATOM     20  C   UNL     1       3.302  -4.835   1.247  0.00  0.00    +0.013 A 
ENDBRANCH  10  11
BRANCH   1  24
ATOM     21  C   UNL     1       0.777  -1.811  -1.336  0.00  0.00    +0.162 A 
ATOM     22  C   UNL     1       0.242  -2.667  -0.385  0.00  0.00    +0.050 A 
ATOM     23  C   UNL     1       0.347  -4.033  -0.546  0.00  0.00    +0.014 A 
ATOM     24  C   UNL     1       0.992  -4.556  -1.667  0.00  0.00    +0.004 A 
ATOM     25  C   UNL     1       1.530  -3.695  -2.624  0.00  0.00    +0.059 A 
ATOM     26  C   UNL     1       1.417  -2.327  -2.460  0.00  0.00    +0.162 A 
BRANCH  26  27
ATOM     27  O   UNL     1       1.936  -1.485  -3.394  0.00  0.00    -0.491 OA
ATOM     28  C   UNL     1       2.579  -2.083  -4.521  0.00  0.00    +0.277 C 
ENDBRANCH  26  27
BRANCH  21  29
ATOM     29  O   UNL     1       0.671  -0.465  -1.174  0.00  0.00    -0.489 OA
BRANCH  29  31
ATOM     30  C   UNL     1      -0.019   1.526   0.010  0.00  0.00    +0.048 C 
ATOM     31  C   UNL     1       0.002  -0.004   0.002  0.00  0.00    +0.226 C 
ENDBRANCH  29  31
ENDBRANCH  21  29
ENDBRANCH   1  24
BRANCH   8  32
ATOM     32  N   UNL     1       1.827 -10.361   1.326  0.00  0.00    -0.328 N 
ATOM     33  H   UNL     1       1.806 -11.222   0.880  0.00  0.00    +0.145 HD
ATOM     34  H   UNL     1       1.867 -10.316   2.294  0.00  0.00    +0.145 HD
ENDBRANCH   8  32
BRANCH   9  35
ATOM     35  C   UNL     1       1.885  -8.060   2.683  0.00  0.00    +0.101 C 
ATOM     36  N   UNL     1       1.928  -8.082   3.818  0.00  0.00    -0.191 NA
ENDBRANCH   9  35
TORSDOF 7
