REMARK  Name = ZINC36743937
REMARK  5 active torsions:
REMARK  status: ('A' for Active; 'I' for Inactive)
REMARK    1  A    between atoms: C_1  and  C_2
REMARK    2  A    between atoms: C_8  and  C_10
REMARK    3  A    between atoms: C_10  and  S_11
REMARK    4  A    between atoms: S_11  and  C_12
REMARK    5  A    between atoms: C_15  and  C_18
REMARK                            x       y       z     vdW  Elec       q    Type
REMARK                         _______ _______ _______ _____ _____    ______ ____
ROOT
ATOM      1  C   UNL     1       0.131  -7.856   4.002  0.00  0.00    +0.185 A 
ATOM      2  N   UNL     1       0.130  -7.398   5.234  0.00  0.00    -0.201 NA
ATOM      3  H   UNL     1       0.145  -9.818   3.304  0.00  0.00    +0.191 HD
ATOM      4  C   UNL     1       0.148  -8.424   6.097  0.00  0.00    +0.185 A 
ATOM      5  N   UNL     1       0.161  -9.550   5.418  0.00  0.00    -0.151 NA
ATOM      6  N   UNL     1       0.145  -9.207   4.057  0.00  0.00    -0.253 N 
ENDROOT
BRANCH   4   7
ATOM      7  C   UNL     1       0.153  -8.309   7.576  0.00  0.00    +0.056 A 
ATOM      8  C   UNL     1       0.132  -7.053   8.179  0.00  0.00    +0.014 A 
ATOM      9  C   UNL     1       0.137  -6.950   9.555  0.00  0.00    +0.001 A 
ATOM     10  C   UNL     1       0.162  -8.091  10.337  0.00  0.00    +0.003 A 
ATOM     11  C   UNL     1       0.183  -9.341   9.746  0.00  0.00    +0.039 A 
ATOM     12  C   UNL     1       0.173  -9.457   8.368  0.00  0.00    +0.134 A 
ATOM     13  F   UNL     1       0.187 -10.678   7.791  0.00  0.00    -0.205 F 
ENDBRANCH   4   7
BRANCH   1  14
ATOM     14  S   UNL     1       0.110  -6.881   2.534  0.00  0.00    -0.077 S 
BRANCH  14  15
ATOM     15  C   UNL     1       0.089  -5.172   3.144  0.00  0.00    +0.173 C 
BRANCH  15  23
ATOM     16  C   UNL     1      -0.018   1.503   0.010  0.00  0.00    +0.066 C 
ATOM     17  C   UNL     1       0.002  -0.004   0.002  0.00  0.00    +0.047 A 
ATOM     18  C   UNL     1       0.006  -0.706  -1.158  0.00  0.00    +0.071 A 
ATOM     19  S   UNL     1       0.032  -2.379  -0.535  0.00  0.00    -0.060 S 
ATOM     20  C   UNL     1       0.036  -2.015   1.108  0.00  0.00    +0.165 A 
ATOM     21  N   UNL     1       0.023  -0.700   1.124  0.00  0.00    -0.230 NA
ATOM     22  N   UNL     1       0.053  -2.891   2.187  0.00  0.00    -0.264 N 
ATOM     23  C   UNL     1       0.071  -4.222   1.974  0.00  0.00    +0.229 C 
ATOM     24  O   UNL     1       0.071  -4.655   0.841  0.00  0.00    -0.275 OA
ATOM     25  H   UNL     1       0.053  -2.545   3.093  0.00  0.00    +0.157 HD
ENDBRANCH  15  23
ENDBRANCH  14  15
ENDBRANCH   1  14
TORSDOF 4
