REMARK  Name = ZINC23471007
REMARK  5 active torsions:
REMARK  status: ('A' for Active; 'I' for Inactive)
REMARK    1  A    between atoms: C_1  and  C_2
REMARK    2  A    between atoms: C_2  and  C_4
REMARK    3  A    between atoms: C_2  and  N_7
REMARK    4  A    between atoms: N_10  and  C_13
REMARK    5  A    between atoms: C_13  and  C_14
REMARK                            x       y       z     vdW  Elec       q    Type
REMARK                         _______ _______ _______ _____ _____    ______ ____
ROOT
ATOM      1  C   UNL     1       3.215  -0.907  -4.538  0.00  0.00    -0.003 C 
ENDROOT
BRANCH   1   2
ATOM      2  C   UNL     1       3.127  -2.266  -5.184  0.00  0.00    +0.094 A 
ATOM      3  N   UNL     1       3.666  -2.455  -6.416  0.00  0.00    -0.312 N 
ATOM      4  H   UNL     1       4.100  -1.712  -6.863  0.00  0.00    +0.170 HD
ATOM      5  C   UNL     1       3.611  -3.652  -7.029  0.00  0.00    +0.260 A 
ATOM      6  O   UNL     1       4.100  -3.805  -8.135  0.00  0.00    -0.267 OA
ATOM      7  C   UNL     1       2.967  -4.744  -6.359  0.00  0.00    +0.075 A 
ATOM      8  C   UNL     1       2.789  -6.118  -6.826  0.00  0.00    -0.023 A 
ATOM      9  C   UNL     1       2.142  -6.966  -6.000  0.00  0.00    -0.004 A 
ATOM     10  S   UNL     1       1.739  -5.998  -4.571  0.00  0.00    -0.073 S 
ATOM     11  C   UNL     1       2.442  -4.453  -5.090  0.00  0.00    +0.116 A 
ATOM     12  N   UNL     1       2.540  -3.243  -4.546  0.00  0.00    -0.229 NA
ATOM     13  C   UNL     1       1.833  -8.412  -6.243  0.00  0.00    +0.043 C 
ATOM     14  C   UNL     1       2.033  -8.705  -7.737  0.00  0.00    +0.005 C 
ATOM     15  C   UNL     1       3.378  -8.119  -8.176  0.00  0.00    +0.005 C 
ATOM     16  C   UNL     1       3.302  -6.592  -8.183  0.00  0.00    +0.037 C 
ENDBRANCH   1   2
BRANCH   1  20
ATOM     17  N   UNL     1       0.676  -0.003  -1.303  0.00  0.00    -0.295 NA
ATOM     18  C   UNL     1       2.110   0.287  -1.155  0.00  0.00    +0.066 C 
ATOM     19  C   UNL     1       2.762   0.338  -2.539  0.00  0.00    -0.063 C 
ATOM     20  N   UNL     1       2.573  -0.951  -3.217  0.00  0.00    +0.386 N 
ATOM     21  C   UNL     1       1.137  -1.214  -3.380  0.00  0.00    -0.063 C 
ATOM     22  C   UNL     1       0.471  -1.278  -2.003  0.00  0.00    +0.066 C 
ATOM     23  H   UNL     1       2.989  -1.686  -2.666  0.00  0.00    -0.081 HD
BRANCH  17  25
ATOM     24  C   UNL     1       0.337  -1.297   0.748  0.00  0.00    +0.034 C 
ATOM     25  C   UNL     1       0.002  -0.004   0.002  0.00  0.00    +0.140 C 
BRANCH  25  26
ATOM     26  C   UNL     1      -1.488   0.086  -0.202  0.00  0.00    +0.227 C 
ATOM     27  O   UNL     1      -1.964  -0.125  -1.298  0.00  0.00    -0.274 OA
ATOM     28  N   UNL     1      -2.292   0.402   0.832  0.00  0.00    -0.328 N 
ATOM     29  H   UNL     1      -1.912   0.571   1.708  0.00  0.00    +0.145 HD
ATOM     30  H   UNL     1      -3.252   0.460   0.701  0.00  0.00    +0.145 HD
ENDBRANCH  25  26
ENDBRANCH  17  25
ENDBRANCH   1  20
TORSDOF 4
