REMARK  Name = ZINC08765513
REMARK  8 active torsions:
REMARK  status: ('A' for Active; 'I' for Inactive)
REMARK    1  A    between atoms: C_1  and  C_2
REMARK    2  A    between atoms: C_3  and  C_29
REMARK    3  A    between atoms: C_9  and  C_28
REMARK    4  A    between atoms: C_10  and  C_16
REMARK    5  A    between atoms: C_16  and  C_17
REMARK    6  A    between atoms: N_19  and  C_20
REMARK    7  A    between atoms: C_20  and  C_21
REMARK    8  A    between atoms: C_21  and  C_22
REMARK                            x       y       z     vdW  Elec       q    Type
REMARK                         _______ _______ _______ _____ _____    ______ ____
ROOT
ATOM      1  C   UNL     1      -0.018   1.503   0.010  0.00  0.00    +0.048 C 
ATOM      2  C   UNL     1       0.002  -0.004   0.002  0.00  0.00    -0.002 A 
ATOM      3  C   UNL     1       0.009  -0.802  -1.073  0.00  0.00    +0.106 A 
ATOM      4  O   UNL     1       0.028  -2.093  -0.695  0.00  0.00    -0.460 OA
ATOM      5  C   UNL     1       0.035  -2.202   0.649  0.00  0.00    +0.139 A 
ATOM      6  C   UNL     1       0.025  -0.893   1.172  0.00  0.00    +0.024 A 
ATOM      7  C   UNL     1       0.035  -0.683   2.544  0.00  0.00    +0.023 A 
ATOM      8  C   UNL     1       0.058  -1.782   3.403  0.00  0.00    +0.022 A 
ATOM      9  C   UNL     1       0.068  -1.597   4.857  0.00  0.00    -0.029 A 
ATOM     10  C   UNL     1       0.090  -2.703   5.644  0.00  0.00    +0.049 A 
ATOM     11  C   UNL     1       0.102  -3.985   5.054  0.00  0.00    +0.341 A 
ATOM     12  O   UNL     1       0.121  -4.968   5.772  0.00  0.00    -0.245 OA
ATOM     13  O   UNL     1       0.092  -4.149   3.722  0.00  0.00    -0.422 OA
ATOM     14  C   UNL     1       0.071  -3.092   2.879  0.00  0.00    +0.143 A 
ATOM     15  C   UNL     1       0.053  -3.290   1.510  0.00  0.00    +0.093 A 
ATOM     16  C   UNL     1       0.056  -0.217   5.462  0.00  0.00    +0.045 C 
ATOM     17  C   UNL     1      -0.004  -0.323  -2.502  0.00  0.00    +0.086 C 
ENDROOT
BRANCH  10  18
ATOM     18  C   UNL     1       0.102  -2.562   7.144  0.00  0.00    +0.138 C 
BRANCH  18  19
ATOM     19  C   UNL     1      -1.308  -2.658   7.669  0.00  0.00    +0.218 C 
ATOM     20  O   UNL     1      -2.231  -2.823   6.900  0.00  0.00    -0.275 OA
ATOM     21  N   UNL     1      -1.543  -2.558   8.992  0.00  0.00    -0.315 N 
ATOM     22  H   UNL     1      -0.804  -2.426   9.607  0.00  0.00    +0.149 HD
BRANCH  21  23
ATOM     23  C   UNL     1      -2.913  -2.651   9.502  0.00  0.00    +0.110 C 
BRANCH  23  24
ATOM     24  C   UNL     1      -2.901  -2.508  11.026  0.00  0.00    +0.073 C 
BRANCH  24  25
ATOM     25  C   UNL     1      -4.311  -2.603  11.550  0.00  0.00    +0.035 A 
ATOM     26  C   UNL     1      -5.204  -1.599  11.637  0.00  0.00    +0.105 A 
ATOM     27  N   UNL     1      -6.337  -2.096  12.156  0.00  0.00    -0.352 N 
ATOM     28  C   UNL     1      -6.179  -3.369  12.393  0.00  0.00    +0.171 A 
ATOM     29  N   UNL     1      -4.931  -3.727  12.024  0.00  0.00    -0.350 N 
ATOM     30  H   UNL     1      -4.545  -4.615  12.086  0.00  0.00    +0.166 HD
ATOM     31  H   UNL     1      -7.146  -1.589  12.327  0.00  0.00    +0.166 HD
ENDBRANCH  24  25
ENDBRANCH  23  24
ENDBRANCH  21  23
ENDBRANCH  18  19
ENDBRANCH  10  18
TORSDOF 5
