REMARK  Name = ZINC04263342
REMARK  6 active torsions:
REMARK  status: ('A' for Active; 'I' for Inactive)
REMARK    1  A    between atoms: C_3  and  C_10
REMARK    2  A    between atoms: C_5  and  N_7
REMARK    3  A    between atoms: C_12  and  C_24
REMARK    4  A    between atoms: C_14  and  C_19
REMARK    5  A    between atoms: C_14  and  O_23
REMARK    6  A    between atoms: C_24  and  C_26
REMARK                            x       y       z     vdW  Elec       q    Type
REMARK                         _______ _______ _______ _____ _____    ______ ____
ROOT
ATOM      1  C   UNL     1      -3.566  -1.383   0.691  0.00  0.00    +0.120 C 
ATOM      2  C   UNL     1      -2.748  -0.513  -0.269  0.00  0.00    +0.144 C 
ATOM      3  C   UNL     1      -3.307  -0.690  -1.685  0.00  0.00    +0.243 C 
ATOM      4  N   UNL     1      -4.737  -0.378  -1.679  0.00  0.00    -0.264 N 
ATOM      5  C   UNL     1      -5.487  -0.566  -0.583  0.00  0.00    +0.302 C 
ATOM      6  O   UNL     1      -6.673  -0.301  -0.635  0.00  0.00    -0.253 OA
ATOM      7  N   UNL     1      -4.982  -1.034   0.568  0.00  0.00    -0.292 N 
ATOM      8  H   UNL     1      -5.151  -0.029  -2.484  0.00  0.00    +0.153 HD
ATOM      9  H   UNL     1      -5.566  -1.142   1.334  0.00  0.00    +0.151 HD
ENDROOT
BRANCH   1  12
ATOM     10  C   UNL     1      -2.073  -4.843   0.462  0.00  0.00    +0.003 A 
ATOM     11  C   UNL     1      -2.250  -3.510   0.783  0.00  0.00    +0.005 A 
ATOM     12  C   UNL     1      -3.373  -2.836   0.342  0.00  0.00    -0.024 A 
ATOM     13  C   UNL     1      -4.323  -3.497  -0.416  0.00  0.00    +0.038 A 
ATOM     14  C   UNL     1      -4.144  -4.828  -0.740  0.00  0.00    +0.127 A 
ATOM     15  C   UNL     1      -3.020  -5.502  -0.299  0.00  0.00    +0.033 A 
BRANCH  14  16
ATOM     16  N   UNL     1      -5.158  -5.534  -1.556  0.00  0.00    +0.056 N 
ATOM     17  O   UNL     1      -5.002  -6.708  -1.839  0.00  0.00    -0.126 OA
ATOM     18  O   UNL     1      -6.148  -4.940  -1.944  0.00  0.00    -0.126 OA
ENDBRANCH  14  16
ENDBRANCH   1  12
BRANCH   3  19
ATOM     19  C   UNL     1      -2.582   0.256  -2.644  0.00  0.00    +0.436 C 
ATOM     20  F   UNL     1      -1.200   0.068  -2.529  0.00  0.00    -0.166 F 
ATOM     21  F   UNL     1      -2.981  -0.015  -3.957  0.00  0.00    -0.166 F 
ATOM     22  F   UNL     1      -2.900   1.580  -2.323  0.00  0.00    -0.166 F 
ENDBRANCH   3  19
BRANCH   3  23
ATOM     23  O   UNL     1      -3.115  -2.041  -2.109  0.00  0.00    -0.364 OA
ATOM     24  H   UNL     1      -3.446  -2.226  -2.998  0.00  0.00    +0.212 HD
ENDBRANCH   3  23
BRANCH   2  25
ATOM     25  C   UNL     1      -2.857   0.933   0.140  0.00  0.00    +0.174 C 
ATOM     26  O   UNL     1      -3.897   1.535  -0.029  0.00  0.00    -0.291 OA
BRANCH  25  27
ATOM     27  C   UNL     1      -1.703   1.616   0.746  0.00  0.00    +0.036 A 
ATOM     28  C   UNL     1      -1.771   2.979   1.074  0.00  0.00    +0.014 A 
ATOM     29  C   UNL     1      -0.655   3.573   1.636  0.00  0.00    +0.020 A 
ATOM     30  C   UNL     1       0.479   2.812   1.859  0.00  0.00    +0.111 A 
ATOM     31  N   UNL     1       0.513   1.531   1.545  0.00  0.00    -0.263 NA
ATOM     32  C   UNL     1      -0.521   0.918   1.009  0.00  0.00    +0.122 A 
ENDBRANCH  25  27
ENDBRANCH   2  25
TORSDOF 6
