REMARK  Name = ZINC40301966
REMARK  6 active torsions:
REMARK  status: ('A' for Active; 'I' for Inactive)
REMARK    1  A    between atoms: C_1  and  N_2
REMARK    2  A    between atoms: N_2  and  C_3
REMARK    3  A    between atoms: N_2  and  C_4
REMARK    4  A    between atoms: C_7  and  N_21
REMARK    5  A    between atoms: C_9  and  C_10
REMARK    6  A    between atoms: C_16  and  C_18
REMARK                            x       y       z     vdW  Elec       q    Type
REMARK                         _______ _______ _______ _____ _____    ______ ____
ROOT
ATOM      1  C   UNL     1      -0.009  -0.923  -1.106  0.00  0.00    +0.042 A 
ATOM      2  C   UNL     1       1.190  -1.253  -1.725  0.00  0.00    +0.025 A 
ATOM      3  C   UNL     1       1.197  -1.705  -3.028  0.00  0.00    +0.024 A 
ATOM      4  C   UNL     1       0.004  -1.833  -3.733  0.00  0.00    +0.025 A 
ATOM      5  C   UNL     1      -1.199  -1.508  -3.131  0.00  0.00    +0.037 A 
ATOM      6  C   UNL     1      -1.215  -1.056  -1.809  0.00  0.00    +0.060 A 
ENDROOT
BRANCH   6   7
ATOM      7  C   UNL     1      -2.494  -0.714  -1.159  0.00  0.00    +0.249 C 
ATOM      8  O   UNL     1      -2.552   0.226  -0.390  0.00  0.00    -0.270 OA
ATOM      9  N   UNL     1      -3.597  -1.444  -1.417  0.00  0.00    -0.286 N 
ATOM     10  C   UNL     1      -3.645  -2.670  -2.233  0.00  0.00    +0.109 C 
ATOM     11  C   UNL     1      -4.896  -3.433  -1.731  0.00  0.00    +0.021 C 
ATOM     12  C   UNL     1      -5.880  -2.266  -1.452  0.00  0.00    +0.033 C 
ATOM     13  C   UNL     1      -4.952  -1.152  -0.925  0.00  0.00    +0.162 C 
BRANCH  13  14
ATOM     14  C   UNL     1      -4.959  -1.144   0.582  0.00  0.00    +0.231 C 
ATOM     15  O   UNL     1      -3.935  -1.361   1.195  0.00  0.00    -0.274 OA
ATOM     16  N   UNL     1      -6.104  -0.896   1.249  0.00  0.00    -0.328 N 
ATOM     17  H   UNL     1      -6.923  -0.723   0.759  0.00  0.00    +0.145 HD
ATOM     18  H   UNL     1      -6.109  -0.891   2.219  0.00  0.00    +0.145 HD
ENDBRANCH  13  14
ENDBRANCH   6   7
BRANCH   1  20
ATOM     19  C   UNL     1       0.093   0.967   0.487  0.00  0.00    +0.129 C 
ATOM     20  N   UNL     1      -0.014  -0.467   0.208  0.00  0.00    -0.335 N 
ATOM     21  C   UNL     1      -0.126  -1.421   1.314  0.00  0.00    +0.129 C 
ENDBRANCH   1  20
BRANCH   4  22
ATOM     22  N   UNL     1       0.021  -2.292  -5.056  0.00  0.00    -0.358 N 
ATOM     23  H   UNL     1       0.864  -2.520  -5.479  0.00  0.00    +0.142 HD
ATOM     24  H   UNL     1      -0.809  -2.382  -5.549  0.00  0.00    +0.142 HD
ENDBRANCH   4  22
TORSDOF 4
