REMARK  Name = ZINC54084475
REMARK  6 active torsions:
REMARK  status: ('A' for Active; 'I' for Inactive)
REMARK    1  A    between atoms: C_1  and  C_2
REMARK    2  A    between atoms: C_2  and  C_3
REMARK    3  A    between atoms: C_3  and  C_5
REMARK    4  A    between atoms: C_3  and  N_10
REMARK    5  A    between atoms: N_10  and  C_11
REMARK    6  A    between atoms: C_16  and  N_17
REMARK                            x       y       z     vdW  Elec       q    Type
REMARK                         _______ _______ _______ _____ _____    ______ ____
ROOT
ATOM      1  C   UNL     1       0.274   1.238   2.841  0.00  0.00    +0.055 A 
ATOM      2  C   UNL     1       1.091   2.135   2.168  0.00  0.00    +0.045 A 
ATOM      3  C   UNL     1       1.235   3.427   2.641  0.00  0.00    +0.043 A 
ATOM      4  C   UNL     1       0.566   3.828   3.785  0.00  0.00    +0.022 A 
ATOM      5  C   UNL     1      -0.250   2.939   4.460  0.00  0.00    +0.031 A 
ATOM      6  C   UNL     1      -0.404   1.644   3.990  0.00  0.00    +0.088 A 
ATOM      7 CL   UNL     1       2.258   4.548   1.799  0.00  0.00    -0.083 Cl
ENDROOT
BRANCH   6   8
ATOM      8  N   UNL     1      -1.236   0.743   4.672  0.00  0.00    -0.219 N 
ATOM      9  C   UNL     1      -2.041   1.018   5.716  0.00  0.00    +0.225 A 
ATOM     10  N   UNL     1      -2.648  -0.088   6.062  0.00  0.00    -0.222 NA
ATOM     11  C   UNL     1      -2.260  -1.085   5.268  0.00  0.00    +0.245 A 
ATOM     12  N   UNL     1      -1.400  -0.625   4.397  0.00  0.00    -0.153 NA
ENDBRANCH   6   8
BRANCH   1  13
ATOM     13  N   UNL     1       0.127  -0.068   2.365  0.00  0.00    -0.332 N 
ATOM     14  H   UNL     1      -0.371  -0.720   2.884  0.00  0.00    +0.147 HD
BRANCH  13  15
ATOM     15  C   UNL     1       0.723  -0.453   1.084  0.00  0.00    +0.136 C 
BRANCH  15  16
ATOM     16  C   UNL     1       2.134  -0.931   1.310  0.00  0.00    +0.125 A 
ATOM     17  C   UNL     1       3.192  -0.660   0.524  0.00  0.00    +0.046 A 
ATOM     18  C   UNL     1       4.309  -1.303   1.105  0.00  0.00    +0.041 A 
ATOM     19  C   UNL     1       3.867  -1.929   2.211  0.00  0.00    +0.195 A 
ATOM     20  O   UNL     1       2.550  -1.695   2.333  0.00  0.00    -0.466 OA
ENDBRANCH  15  16
BRANCH  15  22
ATOM     21  C   UNL     1      -1.496  -1.053   0.106  0.00  0.00    +0.006 C 
ATOM     22  C   UNL     1      -0.102  -1.577   0.454  0.00  0.00    +0.027 C 
ENDBRANCH  15  22
ENDBRANCH  13  15
ENDBRANCH   1  13
TORSDOF 5
