REMARK  Name = ZINC66086032
REMARK  12 active torsions:
REMARK  status: ('A' for Active; 'I' for Inactive)
REMARK    1  A    between atoms: C_1  and  C_2
REMARK    2  A    between atoms: C_4  and  S_8
REMARK    3  A    between atoms: N_6  and  C_7
REMARK    4  A    between atoms: S_8  and  N_11
REMARK    5  A    between atoms: N_11  and  C_12
REMARK    6  A    between atoms: C_12  and  C_13
REMARK    7  A    between atoms: C_12  and  C_14
REMARK    8  A    between atoms: C_12  and  C_15
REMARK    9  A    between atoms: C_15  and  C_16
REMARK   10  A    between atoms: C_16  and  C_17
REMARK   11  A    between atoms: C_16  and  C_18
REMARK   12  A    between atoms: C_16  and  C_19
REMARK                            x       y       z     vdW  Elec       q    Type
REMARK                         _______ _______ _______ _____ _____    ______ ____
ROOT
ATOM      1  S   UNL     1      -0.776  -3.248  -2.644  0.00  0.00    +0.078 S 
ATOM      2  O   UNL     1      -0.964  -4.650  -2.777  0.00  0.00    -0.152 OA
ATOM      3  O   UNL     1      -1.162  -2.535  -1.476  0.00  0.00    -0.152 OA
ENDROOT
BRANCH   1   7
ATOM      4  C   UNL     1       3.889  -2.414  -4.909  0.00  0.00    +0.086 C 
ATOM      5  C   UNL     1       2.842  -2.606  -3.842  0.00  0.00    +0.109 A 
ATOM      6  N   UNL     1       1.573  -2.825  -4.052  0.00  0.00    -0.213 NA
ATOM      7  C   UNL     1       0.944  -2.946  -2.873  0.00  0.00    +0.211 A 
ATOM      8  C   UNL     1       1.859  -2.796  -1.896  0.00  0.00    +0.135 A 
ATOM      9  N   UNL     1       3.064  -2.586  -2.510  0.00  0.00    -0.336 N 
ATOM     10  C   UNL     1       4.353  -2.375  -1.846  0.00  0.00    +0.150 C 
ENDBRANCH   1   7
BRANCH   1  11
ATOM     11  N   UNL     1      -1.571  -2.541  -3.913  0.00  0.00    -0.183 NA
ATOM     12  H   UNL     1      -2.005  -3.093  -4.582  0.00  0.00    +0.149 HD
BRANCH  11  13
ATOM     13  C   UNL     1      -1.617  -1.081  -4.027  0.00  0.00    +0.035 C 
ATOM     14  C   UNL     1      -2.675  -0.528  -3.070  0.00  0.00    +0.029 C 
ATOM     15  C   UNL     1      -0.250  -0.497  -3.667  0.00  0.00    +0.029 C 
BRANCH  13  16
ATOM     16  C   UNL     1      -1.976  -0.692  -5.463  0.00  0.00    +0.029 C 
BRANCH  16  17
ATOM     17  C   UNL     1      -1.575  -1.823  -6.412  0.00  0.00    -0.036 C 
ATOM     18  C   UNL     1      -2.594  -2.960  -6.310  0.00  0.00    +0.010 C 
ATOM     19  C   UNL     1      -1.542  -1.295  -7.848  0.00  0.00    +0.010 C 
ATOM     20  C   UNL     1      -0.189  -2.344  -6.029  0.00  0.00    +0.010 C 
ENDBRANCH  16  17
ENDBRANCH  13  16
ENDBRANCH  11  13
ENDBRANCH   1  11
TORSDOF 5
