REMARK  Name = ZINC28361259
REMARK  11 active torsions:
REMARK  status: ('A' for Active; 'I' for Inactive)
REMARK    1  A    between atoms: C_1  and  C_2
REMARK    2  A    between atoms: C_4  and  N_11
REMARK    3  A    between atoms: C_5  and  O_9
REMARK    4  A    between atoms: O_9  and  C_10
REMARK    5  A    between atoms: C_12  and  C_14
REMARK    6  A    between atoms: C_14  and  C_16
REMARK    7  A    between atoms: C_14  and  N_17
REMARK    8  A    between atoms: N_17  and  C_18
REMARK    9  A    between atoms: C_21  and  O_24
REMARK   10  A    between atoms: O_24  and  C_25
REMARK   11  A    between atoms: C_25  and  C_26
REMARK                            x       y       z     vdW  Elec       q    Type
REMARK                         _______ _______ _______ _____ _____    ______ ____
ROOT
ATOM      1  C   UNL     1      -2.482   0.988   0.131  0.00  0.00    +0.154 C 
ATOM      2  C   UNL     1      -2.659   0.034  -1.052  0.00  0.00    +0.038 C 
ENDROOT
BRANCH   1   4
ATOM      3  N   UNL     1      -0.011   0.966   0.007  0.00  0.00    -0.281 N 
ATOM      4  C   UNL     1      -1.150   1.686   0.018  0.00  0.00    +0.237 C 
ATOM      5  O   UNL     1      -1.104   2.895  -0.063  0.00  0.00    -0.273 OA
ATOM      6  H   UNL     1      -0.055  -0.133  -0.009  0.00  0.00    +0.155 HD
BRANCH   3  10
ATOM      7  C   UNL     1       2.679   4.930   1.115  0.00  0.00    +0.045 C 
ATOM      8  C   UNL     1       2.563   3.539   0.548  0.00  0.00    -0.030 A 
ATOM      9  C   UNL     1       1.339   2.898   0.539  0.00  0.00    +0.031 A 
ATOM     10  C   UNL     1       1.230   1.617   0.017  0.00  0.00    +0.076 A 
ATOM     11  C   UNL     1       2.358   0.978  -0.492  0.00  0.00    +0.143 A 
ATOM     12  C   UNL     1       3.581   1.629  -0.485  0.00  0.00    +0.067 A 
ATOM     13  C   UNL     1       3.682   2.906   0.037  0.00  0.00    +0.047 A 
ATOM     14 CL   UNL     1       5.217   3.717   0.051  0.00  0.00    -0.083 Cl
BRANCH  11  15
ATOM     15  O   UNL     1       2.258  -0.279  -1.000  0.00  0.00    -0.493 OA
ATOM     16  C   UNL     1       3.456  -0.872  -1.505  0.00  0.00    +0.277 C 
ENDBRANCH  11  15
ENDBRANCH   3  10
ENDBRANCH   1   4
BRANCH   1  17
ATOM     17  N   UNL     1      -3.557   1.983   0.120  0.00  0.00    -0.333 N 
ATOM     18  H   UNL     1      -3.396   2.962  -0.355  0.00  0.00    +0.147 HD
BRANCH  17  19
ATOM     19  C   UNL     1      -4.788   1.689   0.716  0.00  0.00    +0.028 A 
ATOM     20  C   UNL     1      -4.994   0.452   1.311  0.00  0.00    +0.026 A 
ATOM     21  C   UNL     1      -6.208   0.164   1.905  0.00  0.00    +0.047 A 
ATOM     22  C   UNL     1      -7.225   1.107   1.894  0.00  0.00    +0.121 A 
ATOM     23  C   UNL     1      -7.023   2.340   1.294  0.00  0.00    +0.047 A 
ATOM     24  C   UNL     1      -5.808   2.632   0.706  0.00  0.00    +0.026 A 
BRANCH  22  25
ATOM     25  O   UNL     1      -8.422   0.821   2.473  0.00  0.00    -0.483 OA
BRANCH  25  26
ATOM     26  C   UNL     1      -8.561  -0.469   3.073  0.00  0.00    +0.324 C 
BRANCH  26  27
ATOM     27  C   UNL     1      -9.943  -0.605   3.658  0.00  0.00    +0.248 C 
ATOM     28  O   UNL     1     -10.731   0.313   3.571  0.00  0.00    -0.272 OA
ATOM     29  N   UNL     1     -10.303  -1.745   4.279  0.00  0.00    -0.327 N 
ATOM     30  H   UNL     1     -11.312  -1.844   4.707  0.00  0.00    +0.145 HD
ATOM     31  H   UNL     1      -9.588  -2.577   4.359  0.00  0.00    +0.145 HD
ENDBRANCH  26  27
ENDBRANCH  25  26
ENDBRANCH  22  25
ENDBRANCH  17  19
ENDBRANCH   1  17
TORSDOF 8
