REMARK  Name = ZINC00182388
REMARK  4 active torsions:
REMARK  status: ('A' for Active; 'I' for Inactive)
REMARK    1  A    between atoms: C_4  and  N_10
REMARK    2  A    between atoms: C_5  and  C_7
REMARK    3  A    between atoms: C_11  and  C_13
REMARK    4  A    between atoms: C_14  and  C_15
REMARK                            x       y       z     vdW  Elec       q    Type
REMARK                         _______ _______ _______ _____ _____    ______ ____
ROOT
ATOM      1  N   UNL     1      -1.135  -0.707  -0.004  0.00  0.00    -0.281 N 
ATOM      2  C   UNL     1      -1.085  -2.052   0.072  0.00  0.00    +0.241 C 
ATOM      3  O   UNL     1      -0.017  -2.614   0.230  0.00  0.00    -0.270 OA
ATOM      4  H   UNL     1      -1.992  -0.255  -0.053  0.00  0.00    +0.155 HD
ENDROOT
BRANCH   1   8
ATOM      5  C   UNL     1       2.396   1.510  -0.030  0.00  0.00    +0.001 A 
ATOM      6  C   UNL     1       2.344   0.271  -0.649  0.00  0.00    +0.002 A 
ATOM      7  C   UNL     1       1.177  -0.465  -0.642  0.00  0.00    +0.024 A 
ATOM      8  C   UNL     1       0.044   0.033  -0.012  0.00  0.00    +0.046 A 
ATOM      9  C   UNL     1       0.093   1.287   0.616  0.00  0.00    +0.058 A 
ATOM     10  C   UNL     1       1.282   2.020   0.601  0.00  0.00    +0.015 A 
BRANCH   9  11
ATOM     11  C   UNL     1      -1.105   1.830   1.284  0.00  0.00    +0.243 C 
ATOM     12  O   UNL     1      -2.163   1.234   1.214  0.00  0.00    -0.270 OA
ATOM     13  N   UNL     1      -1.027   2.987   1.971  0.00  0.00    -0.325 N 
ATOM     14  H   UNL     1      -0.183   3.462   2.026  0.00  0.00    +0.145 HD
ATOM     15  H   UNL     1      -1.815   3.344   2.409  0.00  0.00    +0.145 HD
ENDBRANCH   9  11
ENDBRANCH   1   8
BRANCH   2  16
ATOM     16  C   UNL     1      -2.315  -2.836  -0.036  0.00  0.00    +0.068 C 
ATOM     17  C   UNL     1      -2.265  -4.183   0.040  0.00  0.00    +0.013 C 
BRANCH  17  18
ATOM     18  C   UNL     1      -3.501  -4.971  -0.069  0.00  0.00    -0.021 A 
ATOM     19  C   UNL     1      -4.731  -4.327  -0.250  0.00  0.00    +0.012 A 
ATOM     20  C   UNL     1      -5.887  -5.068  -0.352  0.00  0.00    +0.050 A 
ATOM     21  C   UNL     1      -5.839  -6.454  -0.274  0.00  0.00    +0.166 A 
ATOM     22  C   UNL     1      -4.616  -7.103  -0.093  0.00  0.00    +0.167 A 
ATOM     23  C   UNL     1      -3.452  -6.368   0.004  0.00  0.00    +0.057 A 
ATOM     24  O   UNL     1      -4.840  -8.449  -0.050  0.00  0.00    -0.453 OA
ATOM     25  C   UNL     1      -6.151  -8.639  -0.615  0.00  0.00    +0.466 C 
ATOM     26  O   UNL     1      -6.824  -7.395  -0.344  0.00  0.00    -0.453 OA
ENDBRANCH  17  18
ENDBRANCH   2  16
TORSDOF 4
