REMARK  Name = ZINC39578088
REMARK  8 active torsions:
REMARK  status: ('A' for Active; 'I' for Inactive)
REMARK    1  A    between atoms: C_1  and  C_2
REMARK    2  A    between atoms: N_11  and  C_15
REMARK    3  A    between atoms: C_15  and  C_16
REMARK    4  A    between atoms: C_16  and  O_18
REMARK    5  A    between atoms: O_18  and  C_19
REMARK    6  A    between atoms: C_19  and  C_20
REMARK    7  A    between atoms: N_22  and  C_23
REMARK    8  A    between atoms: C_24  and  C_32
REMARK                            x       y       z     vdW  Elec       q    Type
REMARK                         _______ _______ _______ _____ _____    ______ ____
ROOT
ATOM      1  C   UNL     1       4.136   5.139   2.125  0.00  0.00    +0.328 C 
ENDROOT
BRANCH   1   2
ATOM      2  C   UNL     1       5.311   5.972   2.567  0.00  0.00    +0.255 C 
ATOM      3  O   UNL     1       6.164   5.488   3.280  0.00  0.00    -0.272 OA
ATOM      4  N   UNL     1       5.414   7.256   2.169  0.00  0.00    -0.277 N 
ATOM      5  H   UNL     1       4.732   7.643   1.598  0.00  0.00    +0.155 HD
BRANCH   4   6
ATOM      6  C   UNL     1       6.496   8.023   2.575  0.00  0.00    +0.084 A 
ATOM      7  C   UNL     1       6.762   9.348   2.271  0.00  0.00    +0.068 A 
ATOM      8  C   UNL     1       7.974   9.926   2.826  0.00  0.00    -0.023 A 
ATOM      9  C   UNL     1       8.697   9.072   3.582  0.00  0.00    -0.004 A 
ATOM     10  S   UNL     1       7.780   7.560   3.553  0.00  0.00    -0.077 S 
ATOM     11  C   UNL     1       9.987   9.364   4.285  0.00  0.00    +0.043 C 
ATOM     12  C   UNL     1      10.563  10.668   3.713  0.00  0.00    +0.005 C 
ATOM     13  C   UNL     1       9.456  11.725   3.674  0.00  0.00    +0.005 C 
ATOM     14  C   UNL     1       8.426  11.362   2.602  0.00  0.00    +0.037 C 
BRANCH   7  15
ATOM     15  C   UNL     1       5.859  10.135   1.425  0.00  0.00    +0.244 C 
ATOM     16  O   UNL     1       4.948  10.765   1.929  0.00  0.00    -0.270 OA
ATOM     17  N   UNL     1       6.037  10.159   0.090  0.00  0.00    -0.325 N 
ATOM     18  H   UNL     1       6.764   9.657  -0.312  0.00  0.00    +0.145 HD
ATOM     19  H   UNL     1       5.440  10.680  -0.470  0.00  0.00    +0.145 HD
ENDBRANCH   7  15
ENDBRANCH   4   6
ENDBRANCH   1   2
BRANCH   1  20
ATOM     20  O   UNL     1       4.252   3.824   2.673  0.00  0.00    -0.454 OA
BRANCH  20  21
ATOM     21  C   UNL     1       3.277   2.951   2.373  0.00  0.00    +0.326 C 
ATOM     22  O   UNL     1       2.357   3.291   1.669  0.00  0.00    -0.249 OA
BRANCH  21  23
ATOM     23  C   UNL     1       3.332   1.546   2.915  0.00  0.00    +0.238 C 
BRANCH  23  33
ATOM     24  C   UNL     1      -0.019   1.526   0.010  0.00  0.00    +0.010 C 
ATOM     25  C   UNL     1       0.002  -0.004   0.002  0.00  0.00    +0.018 C 
ATOM     26  C   UNL     1       0.718  -0.497  -1.258  0.00  0.00    +0.006 C 
ATOM     27  C   UNL     1       0.756  -2.027  -1.256  0.00  0.00    +0.000 C 
ATOM     28  C   UNL     1       1.519  -2.517  -0.023  0.00  0.00    +0.003 C 
ATOM     29  C   UNL     1       0.807  -2.032   1.242  0.00  0.00    +0.035 C 
ATOM     30  C   UNL     1       0.739  -0.509   1.238  0.00  0.00    +0.115 C 
ATOM     31  C   UNL     1       2.128   0.083   1.303  0.00  0.00    +0.247 C 
ATOM     32  O   UNL     1       3.022  -0.055   0.496  0.00  0.00    -0.273 OA
ATOM     33  N   UNL     1       2.163   0.796   2.447  0.00  0.00    -0.213 N 
ATOM     34  C   UNL     1       0.998   0.734   3.103  0.00  0.00    +0.310 C 
ATOM     35  O   UNL     1       0.786   1.296   4.159  0.00  0.00    -0.252 OA
ATOM     36  N   UNL     1       0.086  -0.021   2.460  0.00  0.00    -0.285 N 
ATOM     37  H   UNL     1      -0.822  -0.205   2.747  0.00  0.00    +0.151 HD
ENDBRANCH  23  33
ENDBRANCH  21  23
ENDBRANCH  20  21
ENDBRANCH   1  20
TORSDOF 7
