REMARK  Name = ZINC36001544
REMARK  12 active torsions:
REMARK  status: ('A' for Active; 'I' for Inactive)
REMARK    1  A    between atoms: C_1  and  C_2
REMARK    2  A    between atoms: C_2  and  N_3
REMARK    3  A    between atoms: C_4  and  C_22
REMARK    4  A    between atoms: C_5  and  C_17
REMARK    5  A    between atoms: C_6  and  C_11
REMARK    6  A    between atoms: C_17  and  O_19
REMARK    7  A    between atoms: O_19  and  C_20
REMARK    8  A    between atoms: C_20  and  C_21
REMARK    9  A    between atoms: C_22  and  N_23
REMARK   10  A    between atoms: N_31  and  C_32
REMARK   11  A    between atoms: C_32  and  C_33
REMARK   12  A    between atoms: C_32  and  C_34
REMARK                            x       y       z     vdW  Elec       q    Type
REMARK                         _______ _______ _______ _____ _____    ______ ____
ROOT
ATOM      1  N   UNL     1       0.997  -0.208  -1.482  0.00  0.00    -0.258 N 
ATOM      2  C   UNL     1       0.058  -0.787  -2.287  0.00  0.00    +0.041 C 
ATOM      3  C   UNL     1       0.416  -1.622  -3.286  0.00  0.00    +0.080 C 
ATOM      4  C   UNL     1       1.894  -1.893  -3.483  0.00  0.00    +0.144 C 
ATOM      5  N   UNL     1       2.825  -1.219  -2.563  0.00  0.00    -0.288 N 
ATOM      6  C   UNL     1       2.314  -0.408  -1.615  0.00  0.00    +0.307 C 
ATOM      7  O   UNL     1       3.075   0.156  -0.852  0.00  0.00    -0.252 OA
ATOM      8  H   UNL     1       3.783  -1.353  -2.639  0.00  0.00    +0.151 HD
ENDROOT
BRANCH   4   9
ATOM      9  C   UNL     1       2.114  -3.379  -3.360  0.00  0.00    -0.022 A 
ATOM     10  C   UNL     1       2.184  -3.966  -2.110  0.00  0.00    +0.006 A 
ATOM     11  C   UNL     1       2.386  -5.329  -1.997  0.00  0.00    +0.000 A 
ATOM     12  C   UNL     1       2.518  -6.105  -3.133  0.00  0.00    +0.000 A 
ATOM     13  C   UNL     1       2.448  -5.518  -4.383  0.00  0.00    +0.000 A 
ATOM     14  C   UNL     1       2.241  -4.156  -4.496  0.00  0.00    +0.006 A 
ENDBRANCH   4   9
BRANCH   1  16
ATOM     15  C   UNL     1       0.423   2.112  -0.964  0.00  0.00    +0.025 C 
ATOM     16  C   UNL     1       0.538   0.688  -0.418  0.00  0.00    +0.111 C 
ENDBRANCH   1  16
BRANCH   3  17
ATOM     17  C   UNL     1      -0.555  -2.224  -4.120  0.00  0.00    +0.339 C 
ATOM     18  O   UNL     1      -1.735  -1.976  -3.956  0.00  0.00    -0.245 OA
BRANCH  17  19
ATOM     19  O   UNL     1      -0.173  -3.073  -5.097  0.00  0.00    -0.462 OA
BRANCH  19  20
ATOM     20  C   UNL     1      -1.208  -3.644  -5.901  0.00  0.00    +0.229 C 
ATOM     21  C   UNL     1      -0.587  -4.572  -6.947  0.00  0.00    +0.048 C 
ENDBRANCH  19  20
ENDBRANCH  17  19
ENDBRANCH   3  17
BRANCH   2  22
ATOM     22  C   UNL     1      -1.401  -0.490  -2.056  0.00  0.00    +0.136 C 
BRANCH  22  23
ATOM     23  N   UNL     1      -2.017  -1.603  -1.321  0.00  0.00    -0.294 NA
ATOM     24  C   UNL     1      -1.404  -1.761   0.004  0.00  0.00    +0.104 C 
ATOM     25  C   UNL     1      -1.943  -3.035   0.664  0.00  0.00    +0.124 C 
ATOM     26  N   UNL     1      -3.413  -2.977   0.661  0.00  0.00    -0.283 N 
ATOM     27  C   UNL     1      -4.095  -2.685  -0.609  0.00  0.00    +0.124 C 
ATOM     28  C   UNL     1      -3.471  -1.425  -1.218  0.00  0.00    +0.104 C 
ATOM     29  C   UNL     1      -4.115  -3.186   1.792  0.00  0.00    +0.302 C 
ATOM     30  O   UNL     1      -3.534  -3.342   2.849  0.00  0.00    -0.253 OA
ATOM     31  N   UNL     1      -5.462  -3.222   1.752  0.00  0.00    -0.297 N 
ATOM     32  H   UNL     1      -5.923  -3.168   0.900  0.00  0.00    +0.150 HD
BRANCH  31  33
ATOM     33  C   UNL     1      -6.229  -3.342   2.994  0.00  0.00    +0.068 C 
ATOM     34  C   UNL     1      -7.627  -2.755   2.789  0.00  0.00    +0.027 C 
ATOM     35  C   UNL     1      -6.348  -4.818   3.379  0.00  0.00    +0.027 C 
ENDBRANCH  31  33
ENDBRANCH  22  23
ENDBRANCH   2  22
TORSDOF 8
