REMARK  Name = ZINC21875383
REMARK  9 active torsions:
REMARK  status: ('A' for Active; 'I' for Inactive)
REMARK    1  A    between atoms: C_1  and  C_2
REMARK    2  A    between atoms: C_5  and  C_8
REMARK    3  A    between atoms: C_8  and  C_9
REMARK    4  A    between atoms: C_9  and  N_10
REMARK    5  A    between atoms: C_11  and  C_13
REMARK    6  A    between atoms: C_19  and  C_24
REMARK    7  A    between atoms: C_19  and  C_25
REMARK    8  A    between atoms: N_20  and  C_23
REMARK    9  A    between atoms: N_27  and  C_28
REMARK                            x       y       z     vdW  Elec       q    Type
REMARK                         _______ _______ _______ _____ _____    ______ ____
ROOT
ATOM      1  C   UNL     1      -0.016  -0.164   0.114  0.00  0.00    +0.148 A 
ATOM      2  C   UNL     1      -0.051   1.241   0.264  0.00  0.00    +0.067 A 
ATOM      3  C   UNL     1       1.242   1.635   0.215  0.00  0.00    +0.124 A 
ATOM      4  N   UNL     1       2.012   0.504   0.041  0.00  0.00    -0.256 N 
ATOM      5  N   UNL     1       1.253  -0.520  -0.013  0.00  0.00    -0.166 NA
ATOM      6  C   UNL     1       3.474   0.592  -0.053  0.00  0.00    +0.179 C 
ATOM      7  C   UNL     1       3.859   1.936  -0.670  0.00  0.00    +0.130 C 
ATOM      8  N   UNL     1       3.159   3.058  -0.058  0.00  0.00    -0.284 N 
ATOM      9  C   UNL     1       1.858   2.969   0.314  0.00  0.00    +0.265 C 
ATOM     10  O   UNL     1       1.234   3.937   0.706  0.00  0.00    -0.268 OA
ATOM     11  C   UNL     1       3.879   4.314   0.163  0.00  0.00    +0.133 C 
ATOM     12  C   UNL     1       3.531   1.905  -2.164  0.00  0.00    +0.044 C 
ENDROOT
BRANCH   1  14
ATOM     13  N   UNL     1      -1.003  -2.398  -0.052  0.00  0.00    -0.310 N 
ATOM     14  C   UNL     1      -1.182  -1.071   0.100  0.00  0.00    +0.264 C 
ATOM     15  O   UNL     1      -2.304  -0.619   0.225  0.00  0.00    -0.268 OA
ATOM     16  H   UNL     1       0.012  -2.806  -0.166  0.00  0.00    +0.149 HD
BRANCH  13  17
ATOM     17  C   UNL     1      -2.160  -3.296  -0.066  0.00  0.00    +0.109 C 
BRANCH  17  18
ATOM     18  C   UNL     1      -1.683  -4.738  -0.251  0.00  0.00    +0.054 C 
BRANCH  18  23
ATOM     19  C   UNL     1      -6.245  -8.285  -0.306  0.00  0.00    +0.044 C 
ATOM     20  C   UNL     1      -5.055  -7.360  -0.292  0.00  0.00    -0.050 A 
ATOM     21  C   UNL     1      -4.593  -6.811  -1.473  0.00  0.00    +0.003 A 
ATOM     22  C   UNL     1      -3.501  -5.962  -1.460  0.00  0.00    +0.004 A 
ATOM     23  C   UNL     1      -2.873  -5.663  -0.265  0.00  0.00    -0.046 A 
ATOM     24  C   UNL     1      -3.332  -6.216   0.915  0.00  0.00    +0.004 A 
ATOM     25  C   UNL     1      -4.426  -7.061   0.902  0.00  0.00    +0.003 A 
ENDBRANCH  18  23
ENDBRANCH  17  18
ENDBRANCH  13  17
ENDBRANCH   1  14
BRANCH   7  26
ATOM     26  C   UNL     1       5.342   2.141  -0.503  0.00  0.00    +0.238 C 
ATOM     27  O   UNL     1       6.085   2.002  -1.452  0.00  0.00    -0.273 OA
ATOM     28  N   UNL     1       5.844   2.479   0.701  0.00  0.00    -0.311 N 
ATOM     29  H   UNL     1       5.184   2.522   1.580  0.00  0.00    +0.149 HD
BRANCH  28  30
ATOM     30  C   UNL     1       7.269   2.789   0.840  0.00  0.00    +0.073 C 
ATOM     31  C   UNL     1       8.058   1.470   0.967  0.00  0.00    +0.022 C 
ATOM     32  C   UNL     1       9.493   1.733   0.600  0.00  0.00    +0.002 C 
ATOM     33  C   UNL     1      10.369   2.042   1.829  0.00  0.00    +0.000 C 
ATOM     34  C   UNL     1       9.671   2.969   2.843  0.00  0.00    +0.000 C 
ATOM     35  C   UNL     1       8.922   4.090   2.176  0.00  0.00    +0.002 C 
ATOM     36  C   UNL     1       7.453   3.658   1.993  0.00  0.00    +0.022 C 
ENDBRANCH  28  30
ENDBRANCH   7  26
TORSDOF 6
