REMARK  Name = ZINC10244994
REMARK  8 active torsions:
REMARK  status: ('A' for Active; 'I' for Inactive)
REMARK    1  A    between atoms: C_1  and  C_2
REMARK    2  A    between atoms: C_7  and  N_8
REMARK    3  A    between atoms: C_9  and  C_11
REMARK    4  A    between atoms: C_11  and  C_13
REMARK    5  A    between atoms: C_11  and  S_14
REMARK    6  A    between atoms: S_14  and  C_15
REMARK    7  A    between atoms: N_19  and  C_20
REMARK    8  A    between atoms: C_25  and  C_26
REMARK                            x       y       z     vdW  Elec       q    Type
REMARK                         _______ _______ _______ _____ _____    ______ ____
ROOT
ATOM      1  C   UNL     1       1.280   1.980  -0.015  0.00  0.00    +0.137 C 
ATOM      2  C   UNL     1       1.568   2.456  -1.440  0.00  0.00    +0.029 C 
ENDROOT
BRANCH   1   4
ATOM      3  N   UNL     1      -1.191   1.867   0.018  0.00  0.00    -0.284 N 
ATOM      4  C   UNL     1      -0.014   1.209   0.005  0.00  0.00    +0.230 C 
ATOM      5  O   UNL     1       0.003  -0.004   0.005  0.00  0.00    -0.274 OA
ATOM      6  H   UNL     1      -1.205   2.833   0.099  0.00  0.00    +0.155 HD
BRANCH   3  13
ATOM      7  C   UNL     1      -3.551   3.051   1.078  0.00  0.00    +0.045 C 
ATOM      8  C   UNL     1      -3.566   1.696   0.418  0.00  0.00    -0.029 A 
ATOM      9  C   UNL     1      -4.750   0.992   0.314  0.00  0.00    +0.005 A 
ATOM     10  C   UNL     1      -4.765  -0.251  -0.292  0.00  0.00    +0.000 A 
ATOM     11  C   UNL     1      -3.596  -0.793  -0.796  0.00  0.00    +0.002 A 
ATOM     12  C   UNL     1      -2.411  -0.091  -0.699  0.00  0.00    +0.023 A 
ATOM     13  C   UNL     1      -2.391   1.155  -0.086  0.00  0.00    +0.036 A 
ENDBRANCH   3  13
ENDBRANCH   1   4
BRANCH   1  14
ATOM     14  S   UNL     1       2.628   0.912   0.548  0.00  0.00    -0.073 S 
BRANCH  14  15
ATOM     15  C   UNL     1       3.951   2.075   0.572  0.00  0.00    +0.197 A 
ATOM     16  N   UNL     1       3.881   3.345   0.245  0.00  0.00    -0.122 NA
ATOM     17  N   UNL     1       5.033   3.897   0.382  0.00  0.00    -0.137 NA
ATOM     18  C   UNL     1       5.905   3.019   0.791  0.00  0.00    +0.230 A 
ATOM     19  N   UNL     1       5.248   1.825   0.927  0.00  0.00    -0.277 N 
BRANCH  19  20
ATOM     20  C   UNL     1       5.792   0.601   1.343  0.00  0.00    +0.053 A 
ATOM     21  C   UNL     1       6.286   0.463   2.634  0.00  0.00    +0.026 A 
ATOM     22  C   UNL     1       6.817  -0.745   3.042  0.00  0.00    +0.002 A 
ATOM     23  C   UNL     1       6.867  -1.813   2.164  0.00  0.00    +0.000 A 
ATOM     24  C   UNL     1       6.380  -1.676   0.877  0.00  0.00    +0.005 A 
ATOM     25  C   UNL     1       5.843  -0.472   0.465  0.00  0.00    -0.027 A 
ATOM     26  C   UNL     1       5.312  -0.324  -0.938  0.00  0.00    +0.046 C 
ENDBRANCH  19  20
ENDBRANCH  14  15
ENDBRANCH   1  14
TORSDOF 5
