REMARK  Name = ZINC08579539
REMARK  6 active torsions:
REMARK  status: ('A' for Active; 'I' for Inactive)
REMARK    1  A    between atoms: C_1  and  C_2
REMARK    2  A    between atoms: C_5  and  C_7
REMARK    3  A    between atoms: N_17  and  N_18
REMARK    4  A    between atoms: N_22  and  O_26
REMARK    5  A    between atoms: C_23  and  C_24
REMARK    6  A    between atoms: C_23  and  C_25
REMARK                            x       y       z     vdW  Elec       q    Type
REMARK                         _______ _______ _______ _____ _____    ______ ____
ROOT
ATOM      1  C   UNL     1       1.679  -3.211  -0.041  0.00  0.00    +0.124 C 
ATOM      2  N   UNL     1       1.298  -4.452  -0.065  0.00  0.00    -0.135 N 
ATOM      3  O   UNL     1      -0.063  -4.826  -0.137  0.00  0.00    -0.166 OA
ATOM      4  C   UNL     1       2.462  -5.357   0.003  0.00  0.00    +0.197 C 
ATOM      5  C   UNL     1       2.296  -6.444  -1.088  0.00  0.00    +0.056 C 
ATOM      6  C   UNL     1       1.684  -7.774  -0.559  0.00  0.00    +0.004 C 
ATOM      7  C   UNL     1       0.536  -7.562   0.385  0.00  0.00    +0.000 C 
ATOM      8  C   UNL     1       1.166  -7.590   1.783  0.00  0.00    +0.006 C 
ATOM      9  C   UNL     1       1.544  -6.264   2.278  0.00  0.00    +0.057 C 
ATOM     10  C   UNL     1       2.720  -5.820   1.382  0.00  0.00    +0.084 C 
ATOM     11  N   UNL     1       3.919  -5.868   1.836  0.00  0.00    -0.177 NA
ATOM     12  N   UNL     1       3.618  -4.510  -0.421  0.00  0.00    -0.145 NA
ATOM     13  C   UNL     1       3.187  -3.142  -0.051  0.00  0.00    +0.091 C 
ATOM     14  C   UNL     1       3.724  -2.741   1.322  0.00  0.00    +0.037 C 
ATOM     15  C   UNL     1       3.659  -2.139  -1.111  0.00  0.00    +0.037 C 
ENDROOT
BRANCH  11  16
ATOM     16  N   UNL     1       4.149  -6.215   3.174  0.00  0.00    -0.258 N 
ATOM     17  C   UNL     1       5.416  -6.159   3.687  0.00  0.00    +0.156 C 
ATOM     18  N   UNL     1       6.458  -5.763   2.895  0.00  0.00    -0.338 N 
ATOM     19  S   UNL     1       5.688  -6.570   5.272  0.00  0.00    -0.015 SA
ATOM     20  H   UNL     1       6.298  -5.523   1.969  0.00  0.00    +0.144 HD
ATOM     21  H   UNL     1       7.356  -5.723   3.259  0.00  0.00    +0.144 HD
ATOM     22  H   UNL     1       3.410  -6.495   3.736  0.00  0.00    +0.191 HD
ENDBRANCH  11  16
BRANCH   1  27
ATOM     23  C   UNL     1       0.044   1.524  -0.036  0.00  0.00    +0.086 C 
ATOM     24  C   UNL     1       0.051   0.017  -0.034  0.00  0.00    +0.103 A 
ATOM     25  C   UNL     1      -1.042  -0.774  -0.025  0.00  0.00    +0.045 A 
ATOM     26  C   UNL     1      -0.589  -2.105  -0.026  0.00  0.00    +0.051 A 
ATOM     27  C   UNL     1       0.774  -2.055  -0.036  0.00  0.00    +0.152 A 
ATOM     28  O   UNL     1       1.145  -0.759  -0.045  0.00  0.00    -0.459 OA
ENDBRANCH   1  27
BRANCH  12  29
ATOM     29  O   UNL     1       3.836  -4.601  -1.866  0.00  0.00    -0.309 OA
ATOM     30  H   UNL     1       4.576  -4.068  -2.187  0.00  0.00    +0.237 HD
ENDBRANCH  12  29
TORSDOF 3
