REMARK  Name = ZINC19636943
REMARK  7 active torsions:
REMARK  status: ('A' for Active; 'I' for Inactive)
REMARK    1  A    between atoms: C_1  and  C_2
REMARK    2  A    between atoms: C_2  and  C_3
REMARK    3  A    between atoms: C_10  and  N_18
REMARK    4  A    between atoms: C_11  and  C_12
REMARK    5  A    between atoms: N_14  and  C_15
REMARK    6  A    between atoms: C_19  and  C_21
REMARK    7  A    between atoms: C_29  and  C_31
REMARK                            x       y       z     vdW  Elec       q    Type
REMARK                         _______ _______ _______ _____ _____    ______ ____
ROOT
ATOM      1  C   UNL     1       4.688  -2.422  -5.890  0.00  0.00    -0.006 C 
ATOM      2  C   UNL     1       4.414  -2.813  -4.435  0.00  0.00    +0.008 C 
ATOM      3  C   UNL     1       3.558  -1.739  -3.761  0.00  0.00    +0.037 C 
ATOM      4  C   UNL     1       4.220  -0.382  -3.970  0.00  0.00    -0.023 A 
ATOM      5  C   UNL     1       5.144  -0.201  -4.938  0.00  0.00    -0.004 A 
ATOM      6  S   UNL     1       5.617   1.499  -4.799  0.00  0.00    -0.077 S 
ATOM      7  C   UNL     1       4.597   1.967  -3.479  0.00  0.00    +0.084 A 
ATOM      8  C   UNL     1       3.921   0.795  -3.172  0.00  0.00    +0.069 A 
ATOM      9  C   UNL     1       5.649  -1.224  -5.908  0.00  0.00    +0.046 C 
ENDROOT
BRANCH   8  10
ATOM     10  C   UNL     1       2.936   0.747  -2.087  0.00  0.00    +0.247 C 
ATOM     11  O   UNL     1       3.288   0.460  -0.958  0.00  0.00    -0.270 OA
ATOM     12  N   UNL     1       1.641   1.021  -2.339  0.00  0.00    -0.308 N 
ATOM     13  H   UNL     1       1.322   1.280  -3.360  0.00  0.00    +0.149 HD
BRANCH  12  14
ATOM     14  C   UNL     1       0.657   0.973  -1.255  0.00  0.00    +0.073 C 
ATOM     15  C   UNL     1      -0.610   1.817  -1.413  0.00  0.00    +0.024 C 
ATOM     16  C   UNL     1      -0.683   0.294  -1.546  0.00  0.00    +0.024 C 
ENDBRANCH  12  14
ENDBRANCH   8  10
BRANCH   7  17
ATOM     17  N   UNL     1       4.486   3.209  -2.875  0.00  0.00    -0.279 N 
ATOM     18  C   UNL     1       5.232   4.242  -3.314  0.00  0.00    +0.222 C 
ATOM     19  O   UNL     1       6.002   4.084  -4.238  0.00  0.00    -0.275 OA
ATOM     20  H   UNL     1       3.788   3.353  -2.037  0.00  0.00    +0.155 HD
BRANCH  18  21
ATOM     21  C   UNL     1       5.111   5.593  -2.657  0.00  0.00    +0.096 C 
ATOM     22  C   UNL     1       4.616   6.618  -3.685  0.00  0.00    +0.024 C 
ATOM     23  C   UNL     1       5.617   6.658  -4.847  0.00  0.00    +0.009 C 
ATOM     24  C   UNL     1       6.992   7.080  -4.324  0.00  0.00    +0.009 C 
ATOM     25  C   UNL     1       6.913   7.323  -2.811  0.00  0.00    +0.026 C 
ATOM     26  C   UNL     1       6.478   6.024  -2.121  0.00  0.00    +0.121 C 
ATOM     27  C   UNL     1       5.821   8.354  -2.565  0.00  0.00    -0.027 C 
ATOM     28  C   UNL     1       4.609   7.984  -3.015  0.00  0.00    -0.027 C 
BRANCH  26  29
ATOM     29  C   UNL     1       7.496   4.956  -2.426  0.00  0.00    +0.360 C 
ATOM     30  O   UNL     1       8.451   5.212  -3.121  0.00  0.00    -0.246 OA
ATOM     31  O   UNL     1       7.343   3.720  -1.926  0.00  0.00    -0.246 OA
ENDBRANCH  26  29
ENDBRANCH  18  21
ENDBRANCH   7  17
BRANCH   1  33
ATOM     32  C   UNL     1       5.501  -3.248  -8.104  0.00  0.00    +0.004 C 
ATOM     33  C   UNL     1       5.326  -3.602  -6.626  0.00  0.00    +0.000 C 
ENDBRANCH   1  33
TORSDOF 6
