REMARK  Name = ZINC07804350
REMARK  5 active torsions:
REMARK  status: ('A' for Active; 'I' for Inactive)
REMARK    1  A    between atoms: C_11  and  C_13
REMARK    2  A    between atoms: C_13  and  C_14
REMARK    3  A    between atoms: C_14  and  C_15
REMARK    4  A    between atoms: N_17  and  C_18
REMARK    5  A    between atoms: C_18  and  C_19
REMARK                            x       y       z     vdW  Elec       q    Type
REMARK                         _______ _______ _______ _____ _____    ______ ____
ROOT
ATOM      1  C   UNL     1       3.439   6.293   0.000  0.00  0.00    +0.213 C 
ATOM      2  O   UNL     1       4.487   5.682  -0.013  0.00  0.00    -0.276 OA
ATOM      3  N   UNL     1       3.444   7.640   0.007  0.00  0.00    -0.315 N 
ATOM      4  H   UNL     1       2.606   8.128   0.018  0.00  0.00    +0.149 HD
ENDROOT
BRANCH   1   5
ATOM      5  C   UNL     1       2.131   5.544   0.010  0.00  0.00    +0.103 C 
BRANCH   5   6
ATOM      6  C   UNL     1       2.405   4.039  -0.001  0.00  0.00    +0.083 C 
BRANCH   6  17
ATOM      7  C   UNL     1      -3.673   2.064   0.048  0.00  0.00    +0.001 A 
ATOM      8  C   UNL     1      -3.615   3.452   0.055  0.00  0.00    +0.002 A 
ATOM      9  C   UNL     1      -2.405   4.108   0.047  0.00  0.00    +0.028 A 
ATOM     10  C   UNL     1      -1.219   3.371   0.032  0.00  0.00    +0.078 A 
ATOM     11  C   UNL     1      -1.281   1.960   0.019  0.00  0.00    +0.065 A 
ATOM     12  C   UNL     1      -2.517   1.315   0.033  0.00  0.00    +0.015 A 
ATOM     13  C   UNL     1      -0.014   1.213   0.009  0.00  0.00    +0.259 A 
ATOM     14  O   UNL     1       0.002  -0.004   0.002  0.00  0.00    -0.267 OA
ATOM     15  N   UNL     1       1.132   1.932   0.002  0.00  0.00    -0.310 N 
ATOM     16  H   UNL     1       2.013   1.459  -0.009  0.00  0.00    +0.170 HD
ATOM     17  C   UNL     1       1.097   3.290   0.009  0.00  0.00    +0.111 A 
ATOM     18  N   UNL     1      -0.005   3.976   0.023  0.00  0.00    -0.234 NA
ENDBRANCH   6  17
ENDBRANCH   5   6
ENDBRANCH   1   5
BRANCH   3  19
ATOM     19  C   UNL     1       4.715   8.368  -0.002  0.00  0.00    +0.111 C 
BRANCH  19  20
ATOM     20  C   UNL     1       4.441   9.873   0.008  0.00  0.00    -0.013 C 
ATOM     21  C   UNL     1       3.628  10.252  -1.231  0.00  0.00    +0.012 C 
ATOM     22  C   UNL     1       3.354  11.758  -1.221  0.00  0.00    -0.010 C 
ATOM     23  C   UNL     1       4.682  12.518  -1.230  0.00  0.00    +0.007 C 
ATOM     24  C   UNL     1       5.495  12.139   0.009  0.00  0.00    -0.010 C 
ATOM     25  C   UNL     1       5.769  10.633  -0.002  0.00  0.00    +0.012 C 
ATOM     26  C   UNL     1       4.707  12.505   1.268  0.00  0.00    +0.007 C 
ATOM     27  C   UNL     1       3.379  11.745   1.278  0.00  0.00    -0.010 C 
ATOM     28  C   UNL     1       2.566  12.124   0.039  0.00  0.00    +0.007 C 
ATOM     29  C   UNL     1       3.653  10.240   1.267  0.00  0.00    +0.012 C 
ENDBRANCH  19  20
ENDBRANCH   3  19
TORSDOF 5
