REMARK  Name = ZINC40701996
REMARK  5 active torsions:
REMARK  status: ('A' for Active; 'I' for Inactive)
REMARK    1  A    between atoms: C_1  and  C_2
REMARK    2  A    between atoms: C_2  and  N_3
REMARK    3  A    between atoms: N_3  and  C_4
REMARK    4  A    between atoms: C_15  and  N_27
REMARK    5  A    between atoms: C_16  and  N_20
REMARK                            x       y       z     vdW  Elec       q    Type
REMARK                         _______ _______ _______ _____ _____    ______ ____
ROOT
ATOM      1  N   UNL     1       0.629  -0.438  -1.174  0.00  0.00    -0.283 N 
ATOM      2  C   UNL     1      -0.079  -0.790  -2.317  0.00  0.00    +0.151 A 
ATOM      3  C   UNL     1      -0.627  -2.068  -2.447  0.00  0.00    +0.104 A 
ATOM      4  C   UNL     1      -1.330  -2.368  -3.615  0.00  0.00    +0.127 A 
ATOM      5  N   UNL     1      -1.449  -1.432  -4.554  0.00  0.00    -0.333 N 
ATOM      6  C   UNL     1      -0.916  -0.238  -4.392  0.00  0.00    +0.200 A 
ATOM      7  N   UNL     1      -0.250   0.088  -3.303  0.00  0.00    -0.220 NA
ATOM      8  H   UNL     1      -1.935  -1.632  -5.370  0.00  0.00    +0.168 HD
ENDROOT
BRANCH   1   9
ATOM      9  C   UNL     1       2.019  -0.548  -1.154  0.00  0.00    +0.043 A 
ATOM     10  C   UNL     1       2.618  -1.722  -0.748  0.00  0.00    +0.024 A 
ATOM     11  C   UNL     1       4.004  -1.841  -0.724  0.00  0.00    +0.002 A 
ATOM     12  C   UNL     1       4.806  -0.807  -1.099  0.00  0.00    +0.008 A 
ATOM     13  C   UNL     1       4.235   0.407  -1.520  0.00  0.00    -0.016 A 
ATOM     14  C   UNL     1       2.825   0.539  -1.555  0.00  0.00    +0.003 A 
ATOM     15  C   UNL     1       2.256   1.750  -1.980  0.00  0.00    +0.010 A 
ATOM     16  C   UNL     1       3.065   2.777  -2.359  0.00  0.00    +0.001 A 
ATOM     17  C   UNL     1       4.452   2.646  -2.332  0.00  0.00    +0.001 A 
ATOM     18  C   UNL     1       5.038   1.492  -1.913  0.00  0.00    +0.008 A 
ENDBRANCH   1   9
BRANCH   4  19
ATOM     19  N   UNL     1      -1.896  -3.626  -3.796  0.00  0.00    -0.284 N 
ATOM     20  C   UNL     1      -2.709  -3.871  -4.898  0.00  0.00    +0.124 A 
ATOM     21  C   UNL     1      -3.359  -5.096  -5.016  0.00  0.00    +0.044 A 
ATOM     22  C   UNL     1      -4.164  -5.326  -6.117  0.00  0.00    +0.005 A 
ATOM     23  C   UNL     1      -4.292  -4.321  -7.066  0.00  0.00    +0.020 A 
ATOM     24  C   UNL     1      -3.618  -3.130  -6.886  0.00  0.00    +0.113 A 
ATOM     25  N   UNL     1      -2.861  -2.936  -5.823  0.00  0.00    -0.240 NA
ATOM     26  H   UNL     1      -1.723  -4.332  -3.154  0.00  0.00    +0.155 HD
ENDBRANCH   4  19
BRANCH   3  27
ATOM     27  N   UNL     1      -0.476  -3.024  -1.431  0.00  0.00    -0.353 N 
ATOM     28  H   UNL     1      -0.050  -2.780  -0.595  0.00  0.00    +0.143 HD
ATOM     29  H   UNL     1      -0.798  -3.929  -1.565  0.00  0.00    +0.143 HD
ENDBRANCH   3  27
BRANCH   1  31
ATOM     30  C   UNL     1      -0.113   1.577  -0.004  0.00  0.00    +0.025 C 
ATOM     31  C   UNL     1      -0.084   0.047   0.010  0.00  0.00    +0.109 C 
ENDBRANCH   1  31
TORSDOF 4
