REMARK  Name = ZINC05319412
REMARK  6 active torsions:
REMARK  status: ('A' for Active; 'I' for Inactive)
REMARK    1  A    between atoms: C_1  and  C_2
REMARK    2  A    between atoms: C_3  and  C_25
REMARK    3  A    between atoms: N_9  and  C_12
REMARK    4  A    between atoms: C_12  and  C_13
REMARK    5  A    between atoms: N_15  and  C_16
REMARK    6  A    between atoms: C_22  and  C_24
REMARK                            x       y       z     vdW  Elec       q    Type
REMARK                         _______ _______ _______ _____ _____    ______ ____
ROOT
ATOM      1  C   UNL     1       2.869   0.001  -0.025  0.00  0.00    +0.045 C 
ATOM      2  C   UNL     1       2.579   1.479  -0.014  0.00  0.00    -0.026 A 
ATOM      3  C   UNL     1       3.585   2.369  -0.019  0.00  0.00    -0.008 A 
ATOM      4  S   UNL     1       2.746   3.942  -0.002  0.00  0.00    -0.073 S 
ATOM      5  C   UNL     1       1.070   3.359   0.010  0.00  0.00    +0.116 A 
ATOM      6  C   UNL     1       1.210   1.959   0.001  0.00  0.00    +0.075 A 
ATOM      7  C   UNL     1      -0.015   1.215   0.009  0.00  0.00    +0.263 A 
ATOM      8  O   UNL     1       0.002  -0.004   0.002  0.00  0.00    -0.267 OA
ATOM      9  N   UNL     1      -1.183   1.883   0.018  0.00  0.00    -0.290 N 
ATOM     10  C   UNL     1      -1.221   3.240   0.031  0.00  0.00    +0.203 A 
ATOM     11  N   UNL     1      -0.123   3.947   0.025  0.00  0.00    -0.230 NA
ATOM     12  C   UNL     1       5.068   2.101  -0.034  0.00  0.00    +0.052 C 
ENDROOT
BRANCH   9  13
ATOM     13  C   UNL     1      -2.440   1.130   0.019  0.00  0.00    +0.221 C 
BRANCH  13  14
ATOM     14  C   UNL     1      -2.864   0.863   1.440  0.00  0.00    +0.233 C 
ATOM     15  O   UNL     1      -2.184   1.263   2.361  0.00  0.00    -0.274 OA
ATOM     16  N   UNL     1      -4.000   0.181   1.688  0.00  0.00    -0.311 N 
ATOM     17  H   UNL     1      -4.544  -0.139   0.951  0.00  0.00    +0.149 HD
BRANCH  16  18
ATOM     18  C   UNL     1      -4.413  -0.078   3.069  0.00  0.00    +0.076 C 
ATOM     19  C   UNL     1      -3.716  -1.340   3.582  0.00  0.00    +0.022 C 
ATOM     20  C   UNL     1      -4.147  -1.611   5.024  0.00  0.00    +0.002 C 
ATOM     21  C   UNL     1      -5.663  -1.809   5.075  0.00  0.00    +0.000 C 
ATOM     22  C   UNL     1      -6.360  -0.547   4.563  0.00  0.00    +0.005 C 
ATOM     23  C   UNL     1      -5.929  -0.276   3.120  0.00  0.00    +0.006 C 
ATOM     24  C   UNL     1      -6.626   0.986   2.608  0.00  0.00    +0.009 C 
ENDBRANCH  16  18
ENDBRANCH  13  14
ENDBRANCH   9  13
TORSDOF 3
