REMARK  Name = ZINC28361839
REMARK  10 active torsions:
REMARK  status: ('A' for Active; 'I' for Inactive)
REMARK    1  A    between atoms: C_1  and  C_2
REMARK    2  A    between atoms: C_4  and  C_27
REMARK    3  A    between atoms: C_5  and  N_9
REMARK    4  A    between atoms: C_10  and  C_12
REMARK    5  A    between atoms: C_12  and  C_14
REMARK    6  A    between atoms: C_12  and  N_15
REMARK    7  A    between atoms: N_15  and  C_16
REMARK    8  A    between atoms: C_19  and  O_22
REMARK    9  A    between atoms: O_22  and  C_23
REMARK   10  A    between atoms: C_23  and  C_24
REMARK                            x       y       z     vdW  Elec       q    Type
REMARK                         _______ _______ _______ _____ _____    ______ ____
ROOT
ATOM      1  C   UNL     1       0.414  -0.713   1.190  0.00  0.00    +0.154 C 
ATOM      2  C   UNL     1      -0.669  -1.787   1.313  0.00  0.00    +0.038 C 
ENDROOT
BRANCH   1   4
ATOM      3  N   UNL     1       1.531  -1.807  -0.727  0.00  0.00    -0.283 N 
ATOM      4  C   UNL     1       1.629  -1.298   0.517  0.00  0.00    +0.237 C 
ATOM      5  O   UNL     1       2.694  -1.312   1.096  0.00  0.00    -0.273 OA
ATOM      6  H   UNL     1       0.549  -1.870  -1.220  0.00  0.00    +0.155 HD
BRANCH   3  11
ATOM      7  C   UNL     1       6.182  -3.625  -3.421  0.00  0.00    +0.044 C 
ATOM      8  C   UNL     1       4.947  -3.142  -2.706  0.00  0.00    -0.049 A 
ATOM      9  C   UNL     1       4.170  -4.034  -1.990  0.00  0.00    +0.008 A 
ATOM     10  C   UNL     1       3.041  -3.594  -1.328  0.00  0.00    -0.028 A 
ATOM     11  C   UNL     1       2.678  -2.255  -1.392  0.00  0.00    +0.055 A 
ATOM     12  C   UNL     1       3.460  -1.360  -2.112  0.00  0.00    +0.063 A 
ATOM     13  C   UNL     1       4.592  -1.807  -2.767  0.00  0.00    +0.025 A 
ATOM     14 CL   UNL     1       3.014   0.316  -2.190  0.00  0.00    -0.082 Cl
ATOM     15  C   UNL     1       2.199  -4.567  -0.543  0.00  0.00    +0.046 C 
ENDBRANCH   3  11
ENDBRANCH   1   4
BRANCH   1  16
ATOM     16  N   UNL     1       0.778  -0.231   2.524  0.00  0.00    -0.333 N 
ATOM     17  H   UNL     1       1.638  -0.670   3.051  0.00  0.00    +0.147 HD
BRANCH  16  18
ATOM     18  C   UNL     1       0.033   0.787   3.129  0.00  0.00    +0.028 A 
ATOM     19  C   UNL     1      -1.049   1.346   2.461  0.00  0.00    +0.026 A 
ATOM     20  C   UNL     1      -1.788   2.346   3.061  0.00  0.00    +0.047 A 
ATOM     21  C   UNL     1      -1.442   2.802   4.325  0.00  0.00    +0.121 A 
ATOM     22  C   UNL     1      -0.358   2.249   4.989  0.00  0.00    +0.047 A 
ATOM     23  C   UNL     1       0.378   1.244   4.394  0.00  0.00    +0.026 A 
BRANCH  21  24
ATOM     24  O   UNL     1      -2.167   3.792   4.912  0.00  0.00    -0.483 OA
BRANCH  24  25
ATOM     25  C   UNL     1      -3.271   4.315   4.171  0.00  0.00    +0.324 C 
BRANCH  25  26
ATOM     26  C   UNL     1      -3.950   5.394   4.975  0.00  0.00    +0.248 C 
ATOM     27  O   UNL     1      -3.529   5.686   6.074  0.00  0.00    -0.272 OA
ATOM     28  N   UNL     1      -5.023   6.035   4.472  0.00  0.00    -0.327 N 
ATOM     29  H   UNL     1      -5.519   6.822   5.059  0.00  0.00    +0.145 HD
ATOM     30  H   UNL     1      -5.404   5.770   3.474  0.00  0.00    +0.145 HD
ENDBRANCH  25  26
ENDBRANCH  24  25
ENDBRANCH  21  24
ENDBRANCH  16  18
ENDBRANCH   1  16
TORSDOF 7
