REMARK  Name = ZINC15620712
REMARK  10 active torsions:
REMARK  status: ('A' for Active; 'I' for Inactive)
REMARK    1  A    between atoms: C_1  and  C_2
REMARK    2  A    between atoms: C_4  and  C_28
REMARK    3  A    between atoms: C_5  and  N_9
REMARK    4  A    between atoms: C_6  and  C_8
REMARK    5  A    between atoms: C_10  and  C_12
REMARK    6  A    between atoms: C_12  and  N_13
REMARK    7  A    between atoms: C_14  and  C_16
REMARK    8  A    between atoms: C_18  and  S_23
REMARK    9  A    between atoms: S_23  and  N_26
REMARK   10  A    between atoms: N_26  and  C_27
REMARK                            x       y       z     vdW  Elec       q    Type
REMARK                         _______ _______ _______ _____ _____    ______ ____
ROOT
ATOM      1  N   UNL     1      -0.445   1.406   1.605  0.00  0.00    -0.303 N 
ATOM      2  C   UNL     1       0.695   2.109   1.757  0.00  0.00    +0.246 C 
ATOM      3  O   UNL     1       0.864   3.135   1.126  0.00  0.00    -0.270 OA
ATOM      4  H   UNL     1      -0.581   0.588   2.108  0.00  0.00    +0.150 HD
ENDROOT
BRANCH   2   5
ATOM      5  C   UNL     1       1.738   1.634   2.688  0.00  0.00    +0.057 A 
ATOM      6  C   UNL     1       1.544   0.459   3.418  0.00  0.00    +0.043 A 
ATOM      7  C   UNL     1       2.524   0.018   4.283  0.00  0.00    +0.106 A 
ATOM      8  C   UNL     1       3.694   0.742   4.436  0.00  0.00    +0.030 A 
ATOM      9  C   UNL     1       3.892   1.909   3.721  0.00  0.00    +0.022 A 
ATOM     10  C   UNL     1       2.921   2.360   2.848  0.00  0.00    +0.053 A 
ATOM     11 CL   UNL     1       3.170   3.825   1.951  0.00  0.00    -0.083 Cl
BRANCH   7  12
ATOM     12  S   UNL     1       2.284  -1.467   5.199  0.00  0.00    +0.058 S 
ATOM     13  O   UNL     1       1.344  -2.246   4.471  0.00  0.00    -0.153 OA
ATOM     14  O   UNL     1       3.577  -1.952   5.535  0.00  0.00    -0.153 OA
BRANCH  12  15
ATOM     15  N   UNL     1       1.550  -1.050   6.624  0.00  0.00    -0.193 NA
ATOM     16  C   UNL     1       0.198  -0.487   6.614  0.00  0.00    +0.127 C 
ATOM     17  H   UNL     1       2.016  -1.179   7.465  0.00  0.00    +0.148 HD
ENDBRANCH  12  15
ENDBRANCH   7  12
ENDBRANCH   2   5
BRANCH   1  18
ATOM     18  C   UNL     1      -1.477   1.874   0.677  0.00  0.00    +0.200 C 
BRANCH  18  20
ATOM     19  N   UNL     1      -3.711   1.142  -0.093  0.00  0.00    -0.284 N 
ATOM     20  C   UNL     1      -2.638   0.913   0.689  0.00  0.00    +0.234 C 
ATOM     21  O   UNL     1      -2.606  -0.067   1.403  0.00  0.00    -0.274 OA
ATOM     22  H   UNL     1      -3.760   1.952  -0.624  0.00  0.00    +0.155 HD
BRANCH  19  27
ATOM     23  C   UNL     1      -7.943  -2.631  -0.281  0.00  0.00    +0.044 C 
ATOM     24  C   UNL     1      -6.819  -1.629  -0.231  0.00  0.00    -0.050 A 
ATOM     25  C   UNL     1      -7.092  -0.298   0.030  0.00  0.00    +0.008 A 
ATOM     26  C   UNL     1      -6.064   0.623   0.076  0.00  0.00    -0.029 A 
ATOM     27  C   UNL     1      -4.755   0.211  -0.139  0.00  0.00    +0.039 A 
ATOM     28  C   UNL     1      -4.485  -1.124  -0.406  0.00  0.00    -0.029 A 
ATOM     29  C   UNL     1      -5.517  -2.041  -0.447  0.00  0.00    +0.008 A 
ATOM     30  C   UNL     1      -3.066  -1.574  -0.646  0.00  0.00    +0.045 C 
ATOM     31  C   UNL     1      -6.362   2.072   0.361  0.00  0.00    +0.045 C 
ENDBRANCH  19  27
ENDBRANCH  18  20
ENDBRANCH   1  18
TORSDOF 6
