REMARK  Name = ZINC39935222
REMARK  10 active torsions:
REMARK  status: ('A' for Active; 'I' for Inactive)
REMARK    1  A    between atoms: C_1  and  C_2
REMARK    2  A    between atoms: C_3  and  C_30
REMARK    3  A    between atoms: C_4  and  C_29
REMARK    4  A    between atoms: C_7  and  C_8
REMARK    5  A    between atoms: C_8  and  C_10
REMARK    6  A    between atoms: C_10  and  C_12
REMARK    7  A    between atoms: C_10  and  N_13
REMARK    8  A    between atoms: N_16  and  C_19
REMARK    9  A    between atoms: C_19  and  C_20
REMARK   10  A    between atoms: C_30  and  C_32
REMARK                            x       y       z     vdW  Elec       q    Type
REMARK                         _______ _______ _______ _____ _____    ______ ____
ROOT
ATOM      1  N   UNL     1      -0.339  -0.912   4.900  0.00  0.00    -0.290 NA
ATOM      2  C   UNL     1       0.604   0.115   5.364  0.00  0.00    +0.100 C 
ATOM      3  C   UNL     1       0.113   0.692   6.693  0.00  0.00    +0.100 C 
ATOM      4  N   UNL     1      -0.008  -0.391   7.679  0.00  0.00    -0.295 NA
ATOM      5  C   UNL     1      -0.952  -1.418   7.216  0.00  0.00    +0.100 C 
ATOM      6  C   UNL     1      -0.460  -1.995   5.886  0.00  0.00    +0.100 C 
ENDROOT
BRANCH   1   7
ATOM      7  C   UNL     1       0.058  -1.437   3.587  0.00  0.00    +0.127 C 
ATOM      8  C   UNL     1       0.259  -0.275   2.612  0.00  0.00    +0.033 C 
BRANCH   7   9
ATOM      9  C   UNL     1      -1.020  -2.351   3.064  0.00  0.00    +0.196 C 
ATOM     10  O   UNL     1      -2.159  -2.242   3.473  0.00  0.00    -0.289 OA
BRANCH   9  17
ATOM     11  C   UNL     1      -3.064  -4.345   1.838  0.00  0.00    +0.047 C 
ATOM     12  C   UNL     1      -1.592  -4.231   1.538  0.00  0.00    -0.012 A 
ATOM     13  C   UNL     1      -0.855  -5.017   0.623  0.00  0.00    +0.041 A 
ATOM     14  C   UNL     1       0.458  -4.570   0.666  0.00  0.00    +0.024 A 
ATOM     15  N   UNL     1       0.540  -3.568   1.552  0.00  0.00    -0.355 N 
ATOM     16  H   UNL     1       1.349  -3.079   1.772  0.00  0.00    +0.166 HD
ATOM     17  C   UNL     1      -0.707  -3.336   2.097  0.00  0.00    +0.088 A 
ATOM     18  C   UNL     1       1.601  -5.121  -0.147  0.00  0.00    +0.064 C 
BRANCH  13  19
ATOM     19  C   UNL     1      -1.379  -6.101  -0.214  0.00  0.00    +0.162 C 
ATOM     20  O   UNL     1      -1.309  -7.250   0.168  0.00  0.00    -0.292 OA
ATOM     21  C   UNL     1      -2.004  -5.787  -1.549  0.00  0.00    +0.091 C 
ENDBRANCH  13  19
ENDBRANCH   9  17
ENDBRANCH   7   9
ENDBRANCH   1   7
BRANCH   4  22
ATOM     22  C   UNL     1      -0.405   0.135   8.992  0.00  0.00    +0.134 C 
BRANCH  22  23
ATOM     23  C   UNL     1      -0.282  -0.954  10.027  0.00  0.00    +0.026 C 
ATOM     24  N   UNL     1       0.113  -2.163   9.820  0.00  0.00    -0.348 N 
ATOM     25  C   UNL     1       0.123  -2.925  10.947  0.00  0.00    +0.099 C 
ATOM     26  C   UNL     1       0.472  -4.226  11.128  0.00  0.00    +0.041 C 
ATOM     27  C   UNL     1       0.416  -4.877  12.429  0.00  0.00    +0.001 C 
ATOM     28  C   UNL     1       0.013  -4.215  13.517  0.00  0.00    -0.008 C 
ATOM     29  C   UNL     1      -0.386  -2.762  13.365  0.00  0.00    +0.134 C 
ATOM     30  N   UNL     1      -0.306  -2.167  12.031  0.00  0.00    -0.307 N 
ATOM     31  C   UNL     1      -0.594  -0.828  11.504  0.00  0.00    +0.156 C 
ATOM     32  H   UNL     1       0.377  -2.497   8.948  0.00  0.00    +0.167 HD
ENDBRANCH  22  23
ENDBRANCH   4  22
TORSDOF 6
