REMARK  Name = ZINC00664322
REMARK  5 active torsions:
REMARK  status: ('A' for Active; 'I' for Inactive)
REMARK    1  A    between atoms: C_4  and  C_8
REMARK    2  A    between atoms: C_17  and  C_23
REMARK    3  A    between atoms: C_17  and  C_25
REMARK    4  A    between atoms: C_18  and  N_22
REMARK    5  A    between atoms: C_19  and  C_20
REMARK                            x       y       z     vdW  Elec       q    Type
REMARK                         _______ _______ _______ _____ _____    ______ ____
ROOT
ATOM      1  C   UNL     1       1.302   2.135   0.001  0.00  0.00    +0.072 C 
ATOM      2  C   UNL     1       1.153   3.577   0.500  0.00  0.00    +0.044 C 
ATOM      3  C   UNL     1       2.431   4.346   0.195  0.00  0.00    +0.090 C 
ATOM      4  N   UNL     1       2.164   5.776   0.019  0.00  0.00    -0.312 NA
ATOM      5  C   UNL     1       1.290   5.988  -1.147  0.00  0.00    +0.108 C 
ATOM      6  C   UNL     1      -0.001   5.253  -0.908  0.00  0.00    -0.009 C 
ATOM      7  C   UNL     1      -0.052   4.186  -0.166  0.00  0.00    -0.028 C 
ATOM      8  C   UNL     1      -1.391   3.515   0.075  0.00  0.00    +0.202 C 
ATOM      9  C   UNL     1      -1.207   2.025   0.019  0.00  0.00    +0.054 C 
ATOM     10  C   UNL     1      -0.017   1.428   0.010  0.00  0.00    +0.057 C 
ATOM     11  H   UNL     1       1.667   6.169   0.918  0.00  0.00    +0.122 HD
ENDROOT
BRANCH   1  15
ATOM     12  C   UNL     1       4.033   0.045   2.538  0.00  0.00    +0.018 A 
ATOM     13  C   UNL     1       4.323   0.205   1.196  0.00  0.00    +0.040 A 
ATOM     14  C   UNL     1       3.436   0.878   0.372  0.00  0.00    +0.127 A 
ATOM     15  C   UNL     1       2.265   1.399   0.896  0.00  0.00    -0.002 A 
ATOM     16  C   UNL     1       1.977   1.238   2.237  0.00  0.00    +0.022 A 
ATOM     17  C   UNL     1       2.861   0.561   3.059  0.00  0.00    +0.018 A 
ATOM     18 BR   UNL     1       2.466   0.343   4.895  0.00  0.00    -0.050 Br
ATOM     19  F   UNL     1       3.716   1.030  -0.941  0.00  0.00    -0.205 F 
ENDBRANCH   1  15
BRANCH   9  20
ATOM     20  N   UNL     1      -2.327   1.236  -0.019  0.00  0.00    -0.358 N 
ATOM     21  H   UNL     1      -2.227   0.141  -0.061  0.00  0.00    +0.142 HD
ATOM     22  H   UNL     1      -3.325   1.697  -0.009  0.00  0.00    +0.142 HD
ENDBRANCH   9  20
BRANCH  10  23
ATOM     23  C   UNL     1       0.002  -0.004   0.002  0.00  0.00    +0.097 C 
ATOM     24  N   UNL     1       0.018  -1.140  -0.004  0.00  0.00    -0.191 NA
ENDBRANCH  10  23
BRANCH   8  25
ATOM     25  C   UNL     1      -1.905   3.904   1.398  0.00  0.00    +0.095 C 
ATOM     26  N   UNL     1      -2.303   4.203   2.419  0.00  0.00    -0.194 NA
ENDBRANCH   8  25
BRANCH   8  27
ATOM     27  C   UNL     1      -2.344   3.930  -0.968  0.00  0.00    +0.095 C 
ATOM     28  N   UNL     1      -3.079   4.250  -1.772  0.00  0.00    -0.194 NA
ENDBRANCH   8  27
TORSDOF 5
