REMARK  Name = ZINC59384661
REMARK  7 active torsions:
REMARK  status: ('A' for Active; 'I' for Inactive)
REMARK    1  A    between atoms: C_1  and  C_2
REMARK    2  A    between atoms: C_3  and  C_18
REMARK    3  A    between atoms: C_4  and  C_10
REMARK    4  A    between atoms: C_13  and  O_16
REMARK    5  A    between atoms: O_16  and  C_17
REMARK    6  A    between atoms: N_20  and  N_21
REMARK    7  A    between atoms: C_22  and  C_23
REMARK                            x       y       z     vdW  Elec       q    Type
REMARK                         _______ _______ _______ _____ _____    ______ ____
ROOT
ATOM      1  C   UNL     1       0.658   1.368   0.084  0.00  0.00    +0.061 C 
ATOM      2  C   UNL     1       0.360  -0.109   0.047  0.00  0.00    +0.017 C 
ATOM      3  C   UNL     1      -0.922  -0.526  -0.023  0.00  0.00    +0.057 C 
ATOM      4  C   UNL     1      -1.177  -2.019  -0.059  0.00  0.00    +0.139 C 
ATOM      5  N   UNL     1       0.002  -2.899  -0.015  0.00  0.00    -0.315 N 
ATOM      6  C   UNL     1       1.223  -2.332   0.054  0.00  0.00    +0.135 C 
ATOM      7  S   UNL     1       2.604  -3.343   0.106  0.00  0.00    -0.019 S 
ATOM      8  N   UNL     1       1.391  -1.004   0.078  0.00  0.00    -0.300 N 
ATOM      9  H   UNL     1      -0.097  -3.864  -0.034  0.00  0.00    +0.149 HD
ATOM     10  H   UNL     1       2.296  -0.658   0.124  0.00  0.00    +0.154 HD
ENDROOT
BRANCH   4  11
ATOM     11  C   UNL     1      -1.941  -2.329  -1.321  0.00  0.00    -0.022 A 
ATOM     12  C   UNL     1      -1.292  -2.312  -2.541  0.00  0.00    +0.009 A 
ATOM     13  C   UNL     1      -1.990  -2.595  -3.700  0.00  0.00    +0.046 A 
ATOM     14  C   UNL     1      -3.342  -2.899  -3.637  0.00  0.00    +0.120 A 
ATOM     15  C   UNL     1      -3.990  -2.916  -2.411  0.00  0.00    +0.046 A 
ATOM     16  C   UNL     1      -3.287  -2.637  -1.255  0.00  0.00    +0.009 A 
BRANCH  14  17
ATOM     17  O   UNL     1      -4.030  -3.178  -4.775  0.00  0.00    -0.495 OA
ATOM     18  C   UNL     1      -5.420  -3.482  -4.635  0.00  0.00    +0.277 C 
ENDBRANCH  14  17
ENDBRANCH   4  11
BRANCH   3  19
ATOM     19  C   UNL     1      -1.992   0.401  -0.060  0.00  0.00    +0.263 C 
ATOM     20  O   UNL     1      -2.657   0.605   0.940  0.00  0.00    -0.269 OA
ATOM     21  N   UNL     1      -2.275   1.058  -1.202  0.00  0.00    -0.203 N 
ATOM     22  H   UNL     1      -1.795   0.843  -2.017  0.00  0.00    +0.178 HD
BRANCH  21  23
ATOM     23  N   UNL     1      -3.263   2.052  -1.213  0.00  0.00    -0.187 NA
ATOM     24  C   UNL     1      -3.535   2.684  -2.313  0.00  0.00    +0.138 C 
BRANCH  24  25
ATOM     25  C   UNL     1      -4.574   3.730  -2.324  0.00  0.00    -0.005 A 
ATOM     26  C   UNL     1      -5.264   4.046  -1.151  0.00  0.00    +0.012 A 
ATOM     27  C   UNL     1      -6.235   5.025  -1.168  0.00  0.00    +0.039 A 
ATOM     28  C   UNL     1      -6.528   5.694  -2.345  0.00  0.00    +0.123 A 
ATOM     29  C   UNL     1      -5.847   5.385  -3.513  0.00  0.00    +0.039 A 
ATOM     30  C   UNL     1      -4.870   4.413  -3.507  0.00  0.00    +0.012 A 
ATOM     31  F   UNL     1      -7.481   6.652  -2.356  0.00  0.00    -0.205 F 
ENDBRANCH  24  25
ENDBRANCH  21  23
ENDBRANCH   3  19
TORSDOF 5
