REMARK  Name = ZINC06190444
REMARK  15 active torsions:
REMARK  status: ('A' for Active; 'I' for Inactive)
REMARK    1  A    between atoms: C_1  and  C_2
REMARK    2  A    between atoms: C_2  and  C_3
REMARK    3  A    between atoms: C_2  and  C_4
REMARK    4  A    between atoms: C_4  and  C_5
REMARK    5  A    between atoms: C_5  and  C_7
REMARK    6  A    between atoms: C_5  and  N_14
REMARK    7  A    between atoms: N_9  and  C_10
REMARK    8  A    between atoms: C_10  and  C_11
REMARK    9  A    between atoms: C_10  and  C_12
REMARK   10  A    between atoms: C_10  and  C_13
REMARK   11  A    between atoms: N_14  and  C_15
REMARK   12  A    between atoms: C_15  and  C_16
REMARK   13  A    between atoms: C_21  and  C_23
REMARK   14  A    between atoms: C_24  and  N_31
REMARK   15  A    between atoms: C_25  and  C_28
REMARK                            x       y       z     vdW  Elec       q    Type
REMARK                         _______ _______ _______ _____ _____    ______ ____
ROOT
ATOM      1  N   UNL     1      -2.636   1.024   0.202  0.00  0.00    -0.278 N 
ATOM      2  C   UNL     1      -3.560   1.351   1.126  0.00  0.00    +0.258 C 
ATOM      3  O   UNL     1      -3.389   2.320   1.841  0.00  0.00    -0.269 OA
ENDROOT
BRANCH   2   4
ATOM      4  C   UNL     1      -4.771   0.539   1.270  0.00  0.00    +0.115 A 
ATOM      5  C   UNL     1      -5.887   0.752   2.081  0.00  0.00    +0.076 A 
ATOM      6  C   UNL     1      -6.847  -0.251   1.942  0.00  0.00    +0.155 A 
ATOM      7  N   UNL     1      -6.624  -1.243   1.109  0.00  0.00    -0.203 NA
ATOM      8  S   UNL     1      -5.216  -0.978   0.452  0.00  0.00    +0.019 S 
BRANCH   6   9
ATOM      9  C   UNL     1      -8.098  -0.198   2.720  0.00  0.00    +0.262 C 
ATOM     10  O   UNL     1      -8.297   0.723   3.489  0.00  0.00    -0.269 OA
ATOM     11  N   UNL     1      -9.021  -1.170   2.580  0.00  0.00    -0.324 N 
ATOM     12  H   UNL     1      -8.862  -1.904   1.967  0.00  0.00    +0.145 HD
ATOM     13  H   UNL     1      -9.844  -1.135   3.092  0.00  0.00    +0.145 HD
ENDBRANCH   6   9
BRANCH   5  14
ATOM     14  N   UNL     1      -6.026   1.840   2.933  0.00  0.00    -0.355 N 
ATOM     15  H   UNL     1      -5.323   2.506   2.987  0.00  0.00    +0.142 HD
ATOM     16  H   UNL     1      -6.826   1.934   3.473  0.00  0.00    +0.142 HD
ENDBRANCH   5  14
ENDBRANCH   2   4
BRANCH   1  17
ATOM     17  C   UNL     1      -1.384   1.780   0.117  0.00  0.00    +0.163 C 
BRANCH  17  18
ATOM     18  C   UNL     1      -0.224   0.868   0.423  0.00  0.00    +0.234 C 
ATOM     19  O   UNL     1      -0.389  -0.333   0.454  0.00  0.00    -0.274 OA
ATOM     20  N   UNL     1       0.997   1.387   0.658  0.00  0.00    -0.309 N 
ATOM     21  H   UNL     1       1.129   2.348   0.633  0.00  0.00    +0.149 HD
BRANCH  20  22
ATOM     22  C   UNL     1       2.126   0.500   0.949  0.00  0.00    +0.026 C 
ATOM     23  C   UNL     1       2.348  -0.448  -0.231  0.00  0.00    +0.031 C 
ATOM     24  C   UNL     1       3.387   1.337   1.175  0.00  0.00    +0.031 C 
ATOM     25  C   UNL     1       1.823  -0.314   2.208  0.00  0.00    +0.031 C 
ENDBRANCH  20  22
ENDBRANCH  17  18
BRANCH  17  26
ATOM     26  C   UNL     1      -1.227   2.350  -1.294  0.00  0.00    +0.035 C 
BRANCH  26  28
ATOM     27  C   UNL     1      -2.121   4.582  -0.614  0.00  0.00    +0.007 C 
ATOM     28  C   UNL     1      -2.321   3.388  -1.550  0.00  0.00    -0.015 C 
ATOM     29  C   UNL     1      -2.246   3.861  -3.003  0.00  0.00    +0.007 C 
ENDBRANCH  26  28
ENDBRANCH  17  26
ENDBRANCH   1  17
BRANCH   1  30
ATOM     30  C   UNL     1      -2.883  -0.089  -0.719  0.00  0.00    +0.183 C 
BRANCH  30  31
ATOM     31  C   UNL     1      -3.742   0.387  -1.863  0.00  0.00    +0.122 A 
ATOM     32  C   UNL     1      -3.297   0.789  -3.067  0.00  0.00    +0.046 A 
ATOM     33  C   UNL     1      -4.436   1.146  -3.825  0.00  0.00    +0.041 A 
ATOM     34  C   UNL     1      -5.508   0.940  -3.039  0.00  0.00    +0.195 A 
ATOM     35  O   UNL     1      -5.082   0.475  -1.854  0.00  0.00    -0.466 OA
ENDBRANCH  30  31
ENDBRANCH   1  30
TORSDOF 10
