REMARK  Name = ZINC41042179
REMARK  4 active torsions:
REMARK  status: ('A' for Active; 'I' for Inactive)
REMARK    1  A    between atoms: C_1  and  C_2
REMARK    2  A    between atoms: C_5  and  S_8
REMARK    3  A    between atoms: S_8  and  C_9
REMARK    4  A    between atoms: C_16  and  O_18
REMARK                            x       y       z     vdW  Elec       q    Type
REMARK                         _______ _______ _______ _____ _____    ______ ____
ROOT
ATOM      1  C   UNL     1      -5.030   2.422  -1.621  0.00  0.00    +0.105 C 
ATOM      2  C   UNL     1      -4.638   3.422  -0.498  0.00  0.00    +0.183 C 
ATOM      3  S   UNL     1      -6.189   3.383   0.504  0.00  0.00    -0.027 S 
ATOM      4  O   UNL     1      -6.176   2.234   1.340  0.00  0.00    -0.174 OA
ATOM      5  O   UNL     1      -6.409   4.666   1.075  0.00  0.00    -0.174 OA
ATOM      6  C   UNL     1      -7.384   3.118  -0.871  0.00  0.00    +0.198 C 
ATOM      7  C   UNL     1      -6.489   2.627  -2.025  0.00  0.00    +0.150 C 
ENDROOT
BRANCH   7   8
ATOM      8  O   UNL     1      -7.009   1.387  -2.509  0.00  0.00    -0.389 OA
ATOM      9  H   UNL     1      -7.934   1.430  -2.788  0.00  0.00    +0.210 HD
ENDBRANCH   7   8
BRANCH   1  10
ATOM     10  S   UNL     1      -3.964   2.692  -3.064  0.00  0.00    -0.079 S 
BRANCH  10  15
ATOM     11  C   UNL     1      -0.013   1.086   0.008  0.00  0.00    +0.090 C 
ATOM     12  C   UNL     1      -0.742   1.585  -1.213  0.00  0.00    +0.149 A 
ATOM     13  N   UNL     1      -2.051   1.825  -1.287  0.00  0.00    -0.206 NA
ATOM     14  H   UNL     1      -1.127   2.558  -4.147  0.00  0.00    +0.191 HD
ATOM     15  C   UNL     1      -2.356   2.250  -2.495  0.00  0.00    +0.185 A 
ATOM     16  N   UNL     1      -1.218   2.286  -3.221  0.00  0.00    -0.254 N 
ATOM     17  N   UNL     1      -0.191   1.857  -2.365  0.00  0.00    -0.157 NA
ENDBRANCH  10  15
ENDBRANCH   1  10
TORSDOF 3
