REMARK  Name = ZINC33820797
REMARK  9 active torsions:
REMARK  status: ('A' for Active; 'I' for Inactive)
REMARK    1  A    between atoms: C_1  and  C_2
REMARK    2  A    between atoms: C_2  and  C_4
REMARK    3  A    between atoms: C_2  and  C_9
REMARK    4  A    between atoms: C_4  and  C_5
REMARK    5  A    between atoms: C_5  and  C_6
REMARK    6  A    between atoms: C_15  and  C_37
REMARK    7  A    between atoms: C_16  and  O_36
REMARK    8  A    between atoms: C_23  and  O_35
REMARK    9  A    between atoms: C_28  and  C_34
REMARK                            x       y       z     vdW  Elec       q    Type
REMARK                         _______ _______ _______ _____ _____    ______ ____
ROOT
ATOM      1  C   UNL     1       0.606  -0.498  -1.312  0.00  0.00    +0.001 C 
ATOM      2  C   UNL     1       0.460  -2.037  -1.419  0.00  0.00    +0.005 C 
ATOM      3  C   UNL     1      -0.332  -2.312  -2.726  0.00  0.00    +0.005 C 
ATOM      4  C   UNL     1      -0.057  -1.059  -3.565  0.00  0.00    +0.003 C 
ATOM      5  C   UNL     1      -0.169   0.066  -2.498  0.00  0.00    +0.000 C 
ATOM      6  C   UNL     1       0.375   1.337  -3.119  0.00  0.00    +0.121 C 
ATOM      7  C   UNL     1      -0.553   1.709  -4.287  0.00  0.00    +0.036 C 
ATOM      8  C   UNL     1      -0.650   0.577  -5.305  0.00  0.00    +0.003 C 
ATOM      9  C   UNL     1      -1.066  -0.759  -4.657  0.00  0.00    +0.025 C 
ATOM     10  C   UNL     1      -1.052  -1.864  -5.715  0.00  0.00    +0.118 C 
ATOM     11  C   UNL     1      -2.053  -1.518  -6.818  0.00  0.00    +0.036 C 
ATOM     12  C   UNL     1      -1.667  -0.189  -7.473  0.00  0.00    +0.005 C 
ATOM     13  C   UNL     1      -1.657   0.947  -6.396  0.00  0.00    -0.025 C 
ATOM     14  C   UNL     1      -1.222   2.267  -7.040  0.00  0.00    +0.015 C 
ATOM     15  C   UNL     1      -2.262   2.701  -8.076  0.00  0.00    +0.075 C 
ATOM     16  C   UNL     1      -2.453   1.569  -9.061  0.00  0.00    +0.134 C 
ATOM     17  O   UNL     1      -2.369   1.760 -10.251  0.00  0.00    -0.297 OA
ATOM     18  C   UNL     1      -2.707   0.147  -8.549  0.00  0.00    +0.078 C 
ATOM     19  C   UNL     1      -3.045   1.116  -5.774  0.00  0.00    +0.012 C 
ATOM     20  C   UNL     1      -1.635   0.266  -2.110  0.00  0.00    +0.014 C 
ENDROOT
BRANCH   1  22
ATOM     21  C   UNL     1       0.206   1.514   0.114  0.00  0.00    +0.008 C 
ATOM     22  C   UNL     1       0.003   0.001   0.002  0.00  0.00    -0.010 C 
BRANCH  22  23
ATOM     23  C   UNL     1       0.693  -0.695   1.177  0.00  0.00    +0.015 C 
BRANCH  23  24
ATOM     24  C   UNL     1       0.007  -0.290   2.484  0.00  0.00    +0.125 C 
BRANCH  24  25
ATOM     25  C   UNL     1       0.686  -0.975   3.641  0.00  0.00    +0.356 C 
ATOM     26  O   UNL     1       1.631  -1.718   3.440  0.00  0.00    -0.246 OA
ATOM     27  O   UNL     1       0.290  -0.786   4.779  0.00  0.00    -0.246 OA
ENDBRANCH  24  25
ENDBRANCH  23  24
ENDBRANCH  22  23
ENDBRANCH   1  22
BRANCH  10  28
ATOM     28  O   UNL     1       0.258  -1.973  -6.275  0.00  0.00    -0.391 OA
ATOM     29  H   UNL     1       0.340  -2.656  -6.955  0.00  0.00    +0.210 HD
ENDBRANCH  10  28
BRANCH   6  30
ATOM     30  O   UNL     1       1.701   1.113  -3.603  0.00  0.00    -0.391 OA
ATOM     31  H   UNL     1       2.107   1.889  -4.013  0.00  0.00    +0.210 HD
ENDBRANCH   6  30
TORSDOF 6
