REMARK  Name = ZINC50212795
REMARK  5 active torsions:
REMARK  status: ('A' for Active; 'I' for Inactive)
REMARK    1  A    between atoms: C_3  and  S_8
REMARK    2  A    between atoms: S_8  and  C_9
REMARK    3  A    between atoms: C_12  and  N_19
REMARK    4  A    between atoms: C_14  and  C_15
REMARK    5  A    between atoms: N_16  and  O_17
REMARK                            x       y       z     vdW  Elec       q    Type
REMARK                         _______ _______ _______ _____ _____    ______ ____
ROOT
ATOM      1  C   UNL     1       5.140   1.051   0.232  0.00  0.00    +0.023 A 
ATOM      2  C   UNL     1       4.792  -0.294   0.196  0.00  0.00    +0.018 A 
ATOM      3  C   UNL     1       5.775  -1.262   0.162  0.00  0.00    +0.034 A 
ATOM      4  C   UNL     1       7.113  -0.901   0.164  0.00  0.00    +0.127 A 
ATOM      5  C   UNL     1       7.476   0.428   0.201  0.00  0.00    +0.045 A 
ATOM      6  C   UNL     1       6.493   1.418   0.229  0.00  0.00    +0.034 A 
ENDROOT
BRANCH   6   7
ATOM      7  C   UNL     1       6.876   2.845   0.262  0.00  0.00    +0.164 C 
ATOM      8  N   UNL     1       7.655   3.288   1.205  0.00  0.00    -0.071 NA
ATOM      9  N   UNL     1       6.405   3.711  -0.712  0.00  0.00    -0.340 N 
ATOM     10  H   UNL     1       5.825   3.380  -1.415  0.00  0.00    +0.144 HD
ATOM     11  H   UNL     1       6.657   4.647  -0.690  0.00  0.00    +0.144 HD
BRANCH   8  12
ATOM     12  O   UNL     1       8.042   2.432   2.265  0.00  0.00    -0.408 OA
ATOM     13  H   UNL     1       8.557   2.870   2.956  0.00  0.00    +0.328 HD
ENDBRANCH   8  12
ENDBRANCH   6   7
BRANCH   4  14
ATOM     14  N   UNL     1       8.158  -1.950   0.128  0.00  0.00    +0.056 N 
ATOM     15  O   UNL     1       7.843  -3.116   0.096  0.00  0.00    -0.126 OA
ATOM     16  O   UNL     1       9.326  -1.639   0.130  0.00  0.00    -0.126 OA
ENDBRANCH   4  14
BRANCH   1  17
ATOM     17  S   UNL     1       3.887   2.288   0.276  0.00  0.00    -0.089 S 
BRANCH  17  20
ATOM     18  C   UNL     1       0.760   0.252   1.776  0.00  0.00    +0.039 A 
ATOM     19  C   UNL     1       1.935   0.969   1.667  0.00  0.00    +0.018 A 
ATOM     20  C   UNL     1       2.388   1.373   0.418  0.00  0.00    +0.013 A 
ATOM     21  C   UNL     1       1.657   1.055  -0.720  0.00  0.00    +0.018 A 
ATOM     22  C   UNL     1       0.482   0.338  -0.606  0.00  0.00    +0.039 A 
ATOM     23  C   UNL     1       0.033  -0.064   0.640  0.00  0.00    +0.123 A 
ATOM     24  F   UNL     1      -1.117  -0.766   0.749  0.00  0.00    -0.205 F 
ENDBRANCH  17  20
ENDBRANCH   1  17
TORSDOF 5
