REMARK  Name = ZINC44254179
REMARK  5 active torsions:
REMARK  status: ('A' for Active; 'I' for Inactive)
REMARK    1  A    between atoms: C_1  and  C_2
REMARK    2  A    between atoms: C_4  and  C_15
REMARK    3  A    between atoms: C_15  and  C_17
REMARK    4  A    between atoms: C_15  and  N_21
REMARK    5  A    between atoms: C_17  and  C_18
REMARK                            x       y       z     vdW  Elec       q    Type
REMARK                         _______ _______ _______ _____ _____    ______ ____
ROOT
ATOM      1  C   UNL     1      -0.019   1.526   0.010  0.00  0.00    +0.024 C 
ATOM      2  C   UNL     1       0.002  -0.004   0.002  0.00  0.00    +0.074 C 
ATOM      3  C   UNL     1       0.706  -0.489  -1.233  0.00  0.00    -0.052 C 
ATOM      4  C   UNL     1       2.007  -0.618  -1.335  0.00  0.00    +0.048 C 
ATOM      5  C   UNL     1       2.971  -0.316  -0.268  0.00  0.00    +0.008 A 
ATOM      6  C   UNL     1       4.306  -0.054  -0.584  0.00  0.00    +0.030 A 
ATOM      7  C   UNL     1       5.211   0.226   0.420  0.00  0.00    +0.042 A 
ATOM      8  C   UNL     1       4.806   0.251   1.745  0.00  0.00    +0.021 A 
ATOM      9  C   UNL     1       3.489  -0.005   2.074  0.00  0.00    +0.017 A 
ATOM     10  C   UNL     1       2.571  -0.286   1.076  0.00  0.00    +0.017 A 
ATOM     11  S   UNL     1       0.882  -0.607   1.473  0.00  0.00    -0.117 S 
ATOM     12 CL   UNL     1       6.869   0.551   0.020  0.00  0.00    -0.084 Cl
ATOM     13 CL   UNL     1       2.639  -1.189  -2.848  0.00  0.00    -0.083 Cl
ENDROOT
BRANCH   3  14
ATOM     14  C   UNL     1      -0.136  -0.850  -2.430  0.00  0.00    -0.037 C 
BRANCH  14  15
ATOM     15  N   UNL     1      -1.142  -1.845  -2.039  0.00  0.00    +0.383 N 
ATOM     16  H   UNL     1      -1.706  -2.087  -2.841  0.00  0.00    -0.089 HD
ATOM     17  H   UNL     1      -0.680  -2.672  -1.691  0.00  0.00    -0.089 HD
ATOM     18  H   UNL     1      -1.732  -1.461  -1.317  0.00  0.00    -0.089 HD
ENDBRANCH  14  15
BRANCH  14  19
ATOM     19  C   UNL     1      -0.836   0.404  -2.958  0.00  0.00    +0.083 C 
BRANCH  19  20
ATOM     20  C   UNL     1      -1.579   0.069  -4.225  0.00  0.00    +0.209 C 
ATOM     21  O   UNL     1      -1.551  -1.061  -4.664  0.00  0.00    -0.276 OA
ATOM     22  N   UNL     1      -2.275   1.025  -4.872  0.00  0.00    -0.329 N 
ATOM     23  H   UNL     1      -2.297   1.929  -4.521  0.00  0.00    +0.145 HD
ATOM     24  H   UNL     1      -2.753   0.810  -5.688  0.00  0.00    +0.145 HD
ENDBRANCH  19  20
ENDBRANCH  14  19
ENDBRANCH   3  14
TORSDOF 4
