REMARK  Name = ZINC05325032
REMARK  3 active torsions:
REMARK  status: ('A' for Active; 'I' for Inactive)
REMARK    1  A    between atoms: N_5  and  C_12
REMARK    2  A    between atoms: C_7  and  C_8
REMARK    3  A    between atoms: C_12  and  C_13
REMARK                            x       y       z     vdW  Elec       q    Type
REMARK                         _______ _______ _______ _____ _____    ______ ____
ROOT
ATOM      1  C   UNL     1      -0.016   1.360   0.009  0.00  0.00    +0.019 A 
ATOM      2  C   UNL     1       0.002  -0.004   0.002  0.00  0.00    +0.071 A 
ATOM      3  C   UNL     1       1.237  -0.675  -0.013  0.00  0.00    +0.252 A 
ATOM      4  O   UNL     1       1.268  -1.895  -0.021  0.00  0.00    -0.268 OA
ATOM      5  N   UNL     1       2.385   0.027  -0.021  0.00  0.00    -0.306 N 
ATOM      6  C   UNL     1       2.369   1.385  -0.013  0.00  0.00    +0.102 A 
ATOM      7  C   UNL     1       1.197   2.062   0.002  0.00  0.00    +0.071 A 
ENDROOT
BRANCH   7   8
ATOM      8  C   UNL     1       1.197   3.569   0.010  0.00  0.00    +0.419 C 
ATOM      9  F   UNL     1       1.069   4.042  -1.300  0.00  0.00    -0.166 F 
ATOM     10  F   UNL     1       0.123   4.031   0.779  0.00  0.00    -0.166 F 
ATOM     11  F   UNL     1       2.397   4.032   0.558  0.00  0.00    -0.166 F 
ENDBRANCH   7   8
BRANCH   5  12
ATOM     12  C   UNL     1       3.668  -0.681  -0.037  0.00  0.00    +0.220 C 
BRANCH  12  13
ATOM     13  C   UNL     1       4.094  -0.917  -1.463  0.00  0.00    +0.240 C 
ATOM     14  O   UNL     1       3.395  -0.531  -2.376  0.00  0.00    -0.273 OA
ATOM     15  N   UNL     1       5.251  -1.556  -1.724  0.00  0.00    -0.239 N 
ATOM     16  C   UNL     1       5.632  -1.767  -2.999  0.00  0.00    +0.303 C 
ATOM     17  O   UNL     1       4.932  -1.380  -3.914  0.00  0.00    -0.253 OA
ATOM     18  N   UNL     1       6.789  -2.406  -3.260  0.00  0.00    -0.313 N 
ATOM     19  H   UNL     1       5.810  -1.865  -0.993  0.00  0.00    +0.159 HD
ATOM     20  H   UNL     1       7.348  -2.715  -2.530  0.00  0.00    +0.146 HD
ATOM     21  H   UNL     1       7.064  -2.558  -4.178  0.00  0.00    +0.146 HD
ENDBRANCH  12  13
ENDBRANCH   5  12
TORSDOF 3
