REMARK  Name = ZINC45626312
REMARK  5 active torsions:
REMARK  status: ('A' for Active; 'I' for Inactive)
REMARK    1  A    between atoms: C_1  and  C_2
REMARK    2  A    between atoms: C_2  and  C_3
REMARK    3  A    between atoms: C_8  and  N_9
REMARK    4  A    between atoms: C_10  and  C_14
REMARK    5  A    between atoms: C_16  and  N_21
REMARK                            x       y       z     vdW  Elec       q    Type
REMARK                         _______ _______ _______ _____ _____    ______ ____
ROOT
ATOM      1  N   UNL     1      -1.519  -0.280  -2.392  0.00  0.00    -0.192 N 
ATOM      2  C   UNL     1      -2.013  -0.469  -3.649  0.00  0.00    +0.188 A 
ATOM      3  N   UNL     1      -1.093  -0.042  -4.489  0.00  0.00    -0.108 NA
ATOM      4  N   UNL     1      -0.069   0.396  -3.851  0.00  0.00    -0.022 NA
ATOM      5  N   UNL     1      -0.249   0.292  -2.579  0.00  0.00    -0.039 NA
ENDROOT
BRANCH   2   6
ATOM      6  C   UNL     1      -3.330  -1.043  -4.002  0.00  0.00    +0.037 A 
ATOM      7  C   UNL     1      -4.485  -0.584  -3.370  0.00  0.00    +0.035 A 
ATOM      8  C   UNL     1      -5.716  -1.126  -3.706  0.00  0.00    +0.025 A 
ATOM      9  C   UNL     1      -5.796  -2.125  -4.670  0.00  0.00    +0.024 A 
ATOM     10  C   UNL     1      -4.652  -2.580  -5.296  0.00  0.00    +0.018 A 
ATOM     11  C   UNL     1      -3.421  -2.042  -4.972  0.00  0.00    +0.029 A 
ATOM     12 BR   UNL     1      -1.859  -2.665  -5.838  0.00  0.00    -0.050 Br
BRANCH   8  13
ATOM     13  N   UNL     1      -6.876  -0.669  -3.075  0.00  0.00    -0.358 N 
ATOM     14  H   UNL     1      -6.821   0.028  -2.403  0.00  0.00    +0.142 HD
ATOM     15  H   UNL     1      -7.737  -1.048  -3.311  0.00  0.00    +0.142 HD
ENDBRANCH   8  13
ENDBRANCH   2   6
BRANCH   1  21
ATOM     16  C   UNL     1      -2.209   0.368  -0.168  0.00  0.00    -0.022 A 
ATOM     17  C   UNL     1      -2.832   0.067   1.028  0.00  0.00    +0.006 A 
ATOM     18  C   UNL     1      -3.386  -1.185   1.224  0.00  0.00    +0.000 A 
ATOM     19  C   UNL     1      -3.320  -2.138   0.224  0.00  0.00    +0.002 A 
ATOM     20  C   UNL     1      -2.699  -1.842  -0.974  0.00  0.00    +0.028 A 
ATOM     21  C   UNL     1      -2.146  -0.585  -1.175  0.00  0.00    +0.073 A 
BRANCH  16  23
ATOM     22  C   UNL     1      -2.616   2.632  -1.094  0.00  0.00    +0.009 C 
ATOM     23  C   UNL     1      -1.605   1.733  -0.381  0.00  0.00    +0.034 C 
ENDBRANCH  16  23
ENDBRANCH   1  21
TORSDOF 4
