REMARK  Name = ZINC12296868
REMARK  11 active torsions:
REMARK  status: ('A' for Active; 'I' for Inactive)
REMARK    1  A    between atoms: C_1  and  C_2
REMARK    2  A    between atoms: C_2  and  C_4
REMARK    3  A    between atoms: C_2  and  N_19
REMARK    4  A    between atoms: N_6  and  C_7
REMARK    5  A    between atoms: C_7  and  C_8
REMARK    6  A    between atoms: C_8  and  C_9
REMARK    7  A    between atoms: C_20  and  C_22
REMARK    8  A    between atoms: C_30  and  O_34
REMARK    9  A    between atoms: C_31  and  O_32
REMARK   10  A    between atoms: O_32  and  C_33
REMARK   11  A    between atoms: O_34  and  C_35
REMARK                            x       y       z     vdW  Elec       q    Type
REMARK                         _______ _______ _______ _____ _____    ______ ____
ROOT
ATOM      1  C   UNL     1       3.477   5.474   1.434  0.00  0.00    +0.038 C 
ATOM      2  C   UNL     1       3.436   4.957  -0.005  0.00  0.00    +0.156 C 
ENDROOT
BRANCH   2   3
ATOM      3  C   UNL     1       4.808   5.066  -0.618  0.00  0.00    +0.233 C 
ATOM      4  O   UNL     1       5.375   4.072  -1.018  0.00  0.00    -0.274 OA
ATOM      5  N   UNL     1       5.406   6.270  -0.722  0.00  0.00    -0.313 N 
ATOM      6  H   UNL     1       4.952   7.066  -0.402  0.00  0.00    +0.149 HD
BRANCH   5   7
ATOM      7  C   UNL     1       6.740   6.377  -1.317  0.00  0.00    +0.109 C 
BRANCH   7   8
ATOM      8  C   UNL     1       7.184   7.841  -1.314  0.00  0.00    +0.056 C 
BRANCH   8   9
ATOM      9  C   UNL     1       8.556   7.951  -1.927  0.00  0.00    -0.021 A 
ATOM     10  C   UNL     1       9.726   7.971  -1.268  0.00  0.00    +0.087 A 
ATOM     11  N   UNL     1      10.761   8.078  -2.157  0.00  0.00    -0.360 N 
ATOM     12  H   UNL     1      11.700   8.109  -1.918  0.00  0.00    +0.165 HD
ATOM     13  C   UNL     1      10.269   8.139  -3.442  0.00  0.00    +0.047 A 
ATOM     14  C   UNL     1       8.867   8.062  -3.354  0.00  0.00    +0.003 A 
ATOM     15  C   UNL     1       8.093   8.100  -4.516  0.00  0.00    +0.010 A 
ATOM     16  C   UNL     1       8.703   8.212  -5.734  0.00  0.00    +0.001 A 
ATOM     17  C   UNL     1      10.085   8.288  -5.826  0.00  0.00    +0.002 A 
ATOM     18  C   UNL     1      10.868   8.253  -4.692  0.00  0.00    +0.026 A 
ENDBRANCH   8   9
ENDBRANCH   7   8
ENDBRANCH   5   7
ENDBRANCH   2   3
BRANCH   2  19
ATOM     19  N   UNL     1       3.011   3.555  -0.008  0.00  0.00    -0.299 N 
ATOM     20  C   UNL     1       1.698   3.249   0.003  0.00  0.00    +0.261 C 
ATOM     21  O   UNL     1       0.867   4.137   0.015  0.00  0.00    -0.269 OA
ATOM     22  H   UNL     1       3.674   2.847  -0.018  0.00  0.00    +0.150 HD
BRANCH  20  23
ATOM     23  C   UNL     1       1.271   1.843  -0.000  0.00  0.00    +0.103 A 
ATOM     24  C   UNL     1      -0.017   1.410   0.010  0.00  0.00    +0.044 A 
ATOM     25  C   UNL     1       0.002  -0.004   0.002  0.00  0.00    +0.046 A 
ATOM     26  C   UNL     1       1.354  -0.399  -0.013  0.00  0.00    +0.051 A 
ATOM     27  N   UNL     1       2.116   0.749  -0.014  0.00  0.00    -0.350 N 
ATOM     28  H   UNL     1       3.086   0.783  -0.024  0.00  0.00    +0.166 HD
ATOM     29  C   UNL     1       1.676  -1.752  -0.024  0.00  0.00    +0.030 A 
ATOM     30  C   UNL     1       0.677  -2.700  -0.020  0.00  0.00    +0.051 A 
ATOM     31  C   UNL     1      -0.661  -2.321  -0.005  0.00  0.00    +0.162 A 
ATOM     32  C   UNL     1      -1.007  -0.981   0.006  0.00  0.00    +0.171 A 
BRANCH  32  33
ATOM     33  O   UNL     1      -2.315  -0.613   0.020  0.00  0.00    -0.491 OA
ATOM     34  C   UNL     1      -2.951  -0.430  -1.246  0.00  0.00    +0.277 C 
ENDBRANCH  32  33
BRANCH  31  35
ATOM     35  O   UNL     1      -1.635  -3.272  -0.002  0.00  0.00    -0.491 OA
ATOM     36  C   UNL     1      -1.209  -4.636  -0.013  0.00  0.00    +0.277 C 
ENDBRANCH  31  35
ENDBRANCH  20  23
ENDBRANCH   2  19
TORSDOF 8
