REMARK  Name = ZINC17210732
REMARK  8 active torsions:
REMARK  status: ('A' for Active; 'I' for Inactive)
REMARK    1  A    between atoms: C_4  and  C_7
REMARK    2  A    between atoms: C_9  and  C_34
REMARK    3  A    between atoms: N_14  and  N_15
REMARK    4  A    between atoms: N_15  and  C_16
REMARK    5  A    between atoms: C_17  and  C_18
REMARK    6  A    between atoms: C_18  and  C_20
REMARK    7  A    between atoms: C_18  and  S_26
REMARK    8  A    between atoms: S_26  and  C_27
REMARK                            x       y       z     vdW  Elec       q    Type
REMARK                         _______ _______ _______ _____ _____    ______ ____
ROOT
ATOM      1  C   UNL     1      -3.794   1.761   0.150  0.00  0.00    +0.189 C 
ATOM      2  C   UNL     1      -2.526   0.961   0.072  0.00  0.00    +0.095 C 
ATOM      3  N   UNL     1      -2.543  -0.329  -0.026  0.00  0.00    -0.182 NA
ATOM      4  N   UNL     1      -3.766  -1.013  -0.059  0.00  0.00    -0.207 N 
ATOM      5  C   UNL     1      -4.907  -0.371   0.364  0.00  0.00    +0.213 C 
ATOM      6  N   UNL     1      -4.939   0.921   0.473  0.00  0.00    -0.239 NA
ATOM      7  N   UNL     1      -6.026  -1.108   0.677  0.00  0.00    -0.238 N 
ATOM      8  H   UNL     1      -3.806  -2.050  -0.422  0.00  0.00    +0.177 HD
ATOM      9  H   UNL     1      -6.005  -2.204   0.587  0.00  0.00    +0.173 HD
ENDROOT
BRANCH   1  13
ATOM     10  C   UNL     1      -3.365   4.766   3.157  0.00  0.00    +0.000 A 
ATOM     11  C   UNL     1      -3.371   5.121   1.821  0.00  0.00    +0.000 A 
ATOM     12  C   UNL     1      -3.510   4.148   0.848  0.00  0.00    +0.006 A 
ATOM     13  C   UNL     1      -3.642   2.821   1.211  0.00  0.00    -0.017 A 
ATOM     14  C   UNL     1      -3.642   2.467   2.547  0.00  0.00    +0.006 A 
ATOM     15  C   UNL     1      -3.499   3.438   3.520  0.00  0.00    +0.000 A 
ENDBRANCH   1  13
BRANCH   2  16
ATOM     16  C   UNL     1      -1.229   1.663   0.114  0.00  0.00    +0.000 A 
ATOM     17  C   UNL     1      -1.105   2.941  -0.436  0.00  0.00    +0.010 A 
ATOM     18  C   UNL     1       0.110   3.593  -0.389  0.00  0.00    +0.001 A 
ATOM     19  C   UNL     1       1.204   2.982   0.197  0.00  0.00    +0.000 A 
ATOM     20  C   UNL     1       1.090   1.714   0.739  0.00  0.00    +0.001 A 
ATOM     21  C   UNL     1      -0.119   1.050   0.698  0.00  0.00    +0.010 A 
ENDBRANCH   2  16
BRANCH   7  22
ATOM     22  N   UNL     1      -7.192  -0.462   1.109  0.00  0.00    -0.272 N 
ATOM     23  H   UNL     1      -7.212   0.634   1.198  0.00  0.00    +0.169 HD
BRANCH  22  24
ATOM     24  C   UNL     1      -8.322  -1.206   1.424  0.00  0.00    +0.085 C 
ATOM     25  C   UNL     1      -9.420  -0.598   1.831  0.00  0.00    +0.008 C 
BRANCH  25  26
ATOM     26  C   UNL     1     -10.646  -1.405   2.173  0.00  0.00    +0.105 C 
BRANCH  26  27
ATOM     27  C   UNL     1     -11.092  -1.072   3.574  0.00  0.00    -0.030 A 
ATOM     28  C   UNL     1     -11.440   0.226   3.898  0.00  0.00    +0.005 A 
ATOM     29  C   UNL     1     -11.854   0.531   5.181  0.00  0.00    +0.000 A 
ATOM     30  C   UNL     1     -11.910  -0.460   6.143  0.00  0.00    +0.000 A 
ATOM     31  C   UNL     1     -11.557  -1.757   5.820  0.00  0.00    +0.000 A 
ATOM     32  C   UNL     1     -11.148  -2.063   4.536  0.00  0.00    +0.005 A 
ENDBRANCH  26  27
BRANCH  26  33
ATOM     33  S   UNL     1     -11.976  -1.010   1.005  0.00  0.00    -0.113 S 
BRANCH  33  34
ATOM     34  C   UNL     1     -13.269  -2.125   1.438  0.00  0.00    +0.009 A 
ATOM     35  C   UNL     1     -13.090  -3.029   2.478  0.00  0.00    +0.016 A 
ATOM     36  C   UNL     1     -14.108  -3.898   2.818  0.00  0.00    +0.021 A 
ATOM     37  C   UNL     1     -15.301  -3.876   2.118  0.00  0.00    +0.041 A 
ATOM     38  C   UNL     1     -15.481  -2.981   1.079  0.00  0.00    +0.021 A 
ATOM     39  C   UNL     1     -14.469  -2.105   0.737  0.00  0.00    +0.016 A 
ATOM     40 CL   UNL     1     -16.576  -4.974   2.546  0.00  0.00    -0.084 Cl
ENDBRANCH  33  34
ENDBRANCH  26  33
ENDBRANCH  25  26
ENDBRANCH  22  24
ENDBRANCH   7  22
TORSDOF 8
