REMARK  Name = ZINC16667128
REMARK  6 active torsions:
REMARK  status: ('A' for Active; 'I' for Inactive)
REMARK    1  A    between atoms: C_1  and  O_2
REMARK    2  A    between atoms: O_2  and  C_3
REMARK    3  A    between atoms: C_8  and  O_9
REMARK    4  A    between atoms: O_9  and  C_10
REMARK    5  A    between atoms: C_17  and  C_19
REMARK    6  A    between atoms: C_24  and  O_25
REMARK                            x       y       z     vdW  Elec       q    Type
REMARK                         _______ _______ _______ _____ _____    ______ ____
ROOT
ATOM      1  C   UNL     1      -6.756   8.363  -1.047  0.00  0.00    +0.162 A 
ATOM      2  C   UNL     1      -5.613   8.883  -0.462  0.00  0.00    +0.050 A 
ATOM      3  C   UNL     1      -4.678   8.038   0.115  0.00  0.00    +0.010 A 
ATOM      4  C   UNL     1      -4.869   6.687   0.123  0.00  0.00    -0.009 A 
ATOM      5  C   UNL     1      -6.011   6.132  -0.506  0.00  0.00    +0.089 A 
ATOM      6  C   UNL     1      -6.963   6.987  -1.070  0.00  0.00    +0.174 A 
ATOM      7  C   UNL     1      -5.936   4.664  -0.390  0.00  0.00    +0.270 C 
ATOM      8  O   UNL     1      -6.844   3.893  -0.637  0.00  0.00    -0.268 OA
ATOM      9  N   UNL     1      -4.715   4.311   0.031  0.00  0.00    -0.181 N 
ATOM     10  C   UNL     1      -4.103   5.514   0.654  0.00  0.00    +0.138 C 
ATOM     11  C   UNL     1      -2.684   5.399   0.054  0.00  0.00    +0.087 C 
ATOM     12  C   UNL     1      -2.516   3.881   0.045  0.00  0.00    +0.072 C 
ATOM     13  N   UNL     1      -3.704   3.342   0.048  0.00  0.00    -0.180 NA
ENDROOT
BRANCH  12  14
ATOM     14  C   UNL     1      -1.235   3.152   0.029  0.00  0.00    +0.039 A 
ATOM     15  C   UNL     1      -0.028   3.855   0.022  0.00  0.00    +0.013 A 
ATOM     16  C   UNL     1       1.167   3.167   0.007  0.00  0.00    +0.001 A 
ATOM     17  C   UNL     1       1.175   1.782   0.000  0.00  0.00    +0.004 A 
ATOM     18  C   UNL     1      -0.013   1.076   0.008  0.00  0.00    +0.046 A 
ATOM     19  C   UNL     1      -1.222   1.751   0.017  0.00  0.00    +0.126 A 
BRANCH  19  20
ATOM     20  O   UNL     1      -2.390   1.058   0.020  0.00  0.00    -0.506 OA
ATOM     21  H   UNL     1      -2.724   0.853   0.904  0.00  0.00    +0.292 HD
ENDBRANCH  19  20
ENDBRANCH  12  14
BRANCH   1  23
ATOM     22  C   UNL     1      -7.398  10.599  -1.541  0.00  0.00    +0.277 C 
ATOM     23  O   UNL     1      -7.676   9.198  -1.600  0.00  0.00    -0.491 OA
ENDBRANCH   1  23
BRANCH   6  24
ATOM     24  O   UNL     1      -8.086   6.478  -1.637  0.00  0.00    -0.491 OA
ATOM     25  C   UNL     1      -9.222   6.306  -0.786  0.00  0.00    +0.277 C 
ENDBRANCH   6  24
TORSDOF 4
