REMARK  Name = ZINC07793022
REMARK  8 active torsions:
REMARK  status: ('A' for Active; 'I' for Inactive)
REMARK    1  A    between atoms: C_1  and  C_2
REMARK    2  A    between atoms: C_2  and  C_3
REMARK    3  A    between atoms: C_3  and  N_4
REMARK    4  A    between atoms: C_8  and  S_10
REMARK    5  A    between atoms: S_10  and  C_11
REMARK    6  A    between atoms: C_11  and  C_12
REMARK    7  A    between atoms: C_21  and  C_24
REMARK    8  A    between atoms: C_22  and  C_23
REMARK                            x       y       z     vdW  Elec       q    Type
REMARK                         _______ _______ _______ _____ _____    ______ ____
ROOT
ATOM      1  C   UNL     1       4.305  -5.826  -7.507  0.00  0.00    -0.020 A 
ATOM      2  C   UNL     1       3.686  -6.080  -8.687  0.00  0.00    +0.097 A 
ATOM      3  C   UNL     1       4.221  -7.044  -9.568  0.00  0.00    +0.338 A 
ATOM      4  O   UNL     1       3.655  -7.262 -10.624  0.00  0.00    -0.245 OA
ATOM      5  O   UNL     1       5.338  -7.726  -9.271  0.00  0.00    -0.422 OA
ATOM      6  C   UNL     1       6.003  -7.522  -8.114  0.00  0.00    +0.142 A 
ATOM      7  C   UNL     1       5.528  -6.572  -7.192  0.00  0.00    +0.022 A 
ATOM      8  C   UNL     1       6.217  -6.355  -5.996  0.00  0.00    +0.012 A 
ATOM      9  C   UNL     1       7.362  -7.072  -5.731  0.00  0.00    +0.004 A 
ATOM     10  C   UNL     1       7.832  -8.005  -6.643  0.00  0.00    -0.044 A 
ATOM     11  C   UNL     1       7.157  -8.237  -7.823  0.00  0.00    -0.005 A 
ATOM     12  C   UNL     1       7.681  -9.254  -8.804  0.00  0.00    +0.048 C 
ATOM     13  C   UNL     1       9.088  -8.781  -6.337  0.00  0.00    +0.044 C 
ENDROOT
BRANCH   1  14
ATOM     14  C   UNL     1       3.756  -4.801  -6.548  0.00  0.00    +0.112 C 
BRANCH  14  15
ATOM     15  S   UNL     1       2.965  -5.645  -5.150  0.00  0.00    -0.092 S 
BRANCH  15  20
ATOM     16  N   UNL     1       0.738  -1.962  -1.265  0.00  0.00    -0.322 N 
ATOM     17  C   UNL     1       1.339  -2.643  -2.317  0.00  0.00    +0.182 A 
ATOM     18  N   UNL     1       1.945  -2.164  -3.385  0.00  0.00    -0.125 NA
ATOM     19  N   UNL     1       2.478  -3.026  -4.315  0.00  0.00    -0.133 NA
ATOM     20  C   UNL     1       2.381  -4.329  -4.133  0.00  0.00    +0.160 A 
ATOM     21  S   UNL     1       1.506  -4.403  -2.578  0.00  0.00    -0.025 S 
ATOM     22  H   UNL     1       0.332  -2.457  -0.536  0.00  0.00    +0.148 HD
BRANCH  16  23
ATOM     23  C   UNL     1       0.718  -0.497  -1.257  0.00  0.00    +0.103 C 
BRANCH  23  25
ATOM     24  C   UNL     1      -0.019   1.526   0.010  0.00  0.00    +0.005 C 
ATOM     25  C   UNL     1       0.002  -0.004   0.002  0.00  0.00    +0.015 C 
ENDBRANCH  23  25
ENDBRANCH  16  23
ENDBRANCH  15  20
ENDBRANCH  14  15
ENDBRANCH   1  14
TORSDOF 5
