REMARK  Name = ZINC11615966
REMARK  15 active torsions:
REMARK  status: ('A' for Active; 'I' for Inactive)
REMARK    1  A    between atoms: C_1  and  C_2
REMARK    2  A    between atoms: C_2  and  C_3
REMARK    3  A    between atoms: C_3  and  C_4
REMARK    4  A    between atoms: C_7  and  C_11
REMARK    5  A    between atoms: C_10  and  N_61
REMARK    6  A    between atoms: N_13  and  C_14
REMARK    7  A    between atoms: C_14  and  C_16
REMARK    8  A    between atoms: C_14  and  C_34
REMARK    9  A    between atoms: C_18  and  O_33
REMARK   10  A    between atoms: C_20  and  O_32
REMARK   11  A    between atoms: C_22  and  O_29
REMARK   12  A    between atoms: C_24  and  S_27
REMARK   13  A    between atoms: S_27  and  C_28
REMARK   14  A    between atoms: O_29  and  P_30
REMARK   15  A    between atoms: C_34  and  C_36
REMARK                            x       y       z     vdW  Elec       q    Type
REMARK                         _______ _______ _______ _____ _____    ______ ____
ROOT
ATOM      1  C   UNL     1       1.120   3.657   0.011  0.00  0.00    +0.122 C 
ENDROOT
BRANCH   1   2
ATOM      2  C   UNL     1       2.414   4.188  -0.608  0.00  0.00    +0.172 C 
ATOM      3  C   UNL     1       2.533   3.688  -2.050  0.00  0.00    +0.176 C 
ATOM      4  C   UNL     1       1.364   4.239  -2.872  0.00  0.00    +0.178 C 
ATOM      5  C   UNL     1       1.370   5.769  -2.785  0.00  0.00    +0.200 C 
ATOM      6  C   UNL     1       1.296   6.189  -1.315  0.00  0.00    +0.208 C 
ATOM      7  O   UNL     1       2.394   5.617  -0.602  0.00  0.00    -0.356 OA
BRANCH   6   8
ATOM      8  S   UNL     1       1.374   7.997  -1.198  0.00  0.00    -0.130 S 
ATOM      9  C   UNL     1       1.123   8.334   0.566  0.00  0.00    +0.087 C 
ENDBRANCH   6   8
BRANCH   4  10
ATOM     10  O   UNL     1       1.506   3.835  -4.235  0.00  0.00    -0.386 OA
ATOM     11  H   UNL     1       0.799   4.150  -4.815  0.00  0.00    +0.210 HD
ENDBRANCH   4  10
BRANCH   3  12
ATOM     12  O   UNL     1       2.497   2.259  -2.064  0.00  0.00    -0.387 OA
ATOM     13  H   UNL     1       2.567   1.873  -2.947  0.00  0.00    +0.210 HD
ENDBRANCH   3  12
BRANCH   5  14
ATOM     14  O   UNL     1       2.573   6.275  -3.368  0.00  0.00    -0.274 OA
BRANCH  14  15
ATOM     15  P   UNL     1       2.582   7.277  -4.628  0.00  0.00    +0.532 P 
ATOM     16  O   UNL     1       1.753   8.464  -4.321  0.00  0.00    -0.222 OA
ATOM     17  O   UNL     1       4.093   7.743  -4.932  0.00  0.00    -0.115 OA
ATOM     18  O   UNL     1       1.983   6.523  -5.918  0.00  0.00    -0.115 OA
ENDBRANCH  14  15
ENDBRANCH   5  14
ENDBRANCH   1   2
BRANCH   1  21
ATOM     19  C   UNL     1      -0.018   1.503   0.010  0.00  0.00    +0.200 C 
ATOM     20  O   UNL     1      -1.077   2.095   0.018  0.00  0.00    -0.278 OA
ATOM     21  N   UNL     1       1.139   2.192   0.003  0.00  0.00    -0.310 N 
ATOM     22  H   UNL     1       1.986   1.719  -0.008  0.00  0.00    +0.149 HD
BRANCH  19  25
ATOM     23  C   UNL     1      -0.390  -1.966   1.335  0.00  0.00    -0.029 C 
ATOM     24  C   UNL     1       0.236  -0.548   1.433  0.00  0.00    -0.005 C 
ATOM     25  C   UNL     1       0.002  -0.004   0.002  0.00  0.00    +0.019 C 
ATOM     26  C   UNL     1      -1.592  -1.752   0.392  0.00  0.00    -0.075 C 
ATOM     27  C   UNL     1      -1.363  -0.818  -1.835  0.00  0.00    -0.095 C 
ATOM     28  N   UNL     1      -1.326  -0.526  -0.379  0.00  0.00    +0.386 N 
ATOM     29  H   UNL     1      -2.042   0.176  -0.159  0.00  0.00    -0.081 HD
BRANCH  23  30
ATOM     30  C   UNL     1      -0.859  -2.447   2.709  0.00  0.00    +0.001 C 
BRANCH  30  32
ATOM     31  C   UNL     1      -1.935  -4.328   3.954  0.00  0.00    +0.004 C 
ATOM     32  C   UNL     1      -1.466  -3.846   2.579  0.00  0.00    -0.003 C 
ENDBRANCH  30  32
ENDBRANCH  23  30
ENDBRANCH  19  25
ENDBRANCH   1  21
BRANCH   1  33
ATOM     33  C   UNL     1       1.001   4.158   1.452  0.00  0.00    +0.100 C 
ATOM     34  C   UNL     1      -0.228   3.527   2.111  0.00  0.00    +0.026 C 
ATOM     35 CL   UNL     1       2.481   3.696   2.373  0.00  0.00    -0.120 Cl
ENDBRANCH   1  33
TORSDOF 11
