REMARK  Name = ZINC04383613
REMARK  15 active torsions:
REMARK  status: ('A' for Active; 'I' for Inactive)
REMARK    1  A    between atoms: C_1  and  C_2
REMARK    2  A    between atoms: C_2  and  O_3
REMARK    3  A    between atoms: O_3  and  C_4
REMARK    4  A    between atoms: C_9  and  N_10
REMARK    5  A    between atoms: N_10  and  C_11
REMARK    6  A    between atoms: C_11  and  C_13
REMARK    7  A    between atoms: C_11  and  C_18
REMARK    8  A    between atoms: N_20  and  C_21
REMARK    9  A    between atoms: C_21  and  C_22
REMARK   10  A    between atoms: C_22  and  C_23
REMARK   11  A    between atoms: C_23  and  C_24
REMARK   12  A    between atoms: C_23  and  C_25
REMARK   13  A    between atoms: C_26  and  C_28
REMARK   14  A    between atoms: C_29  and  N_36
REMARK   15  A    between atoms: C_30  and  C_33
REMARK                            x       y       z     vdW  Elec       q    Type
REMARK                         _______ _______ _______ _____ _____    ______ ____
ROOT
ATOM      1  N   UNL     1      -3.327   2.232   0.916  0.00  0.00    -0.244 N 
ATOM      2  C   UNL     1      -3.959   1.686   1.974  0.00  0.00    +0.262 C 
ATOM      3  O   UNL     1      -3.870   0.490   2.185  0.00  0.00    -0.269 OA
ENDROOT
BRANCH   1   9
ATOM      4  C   UNL     1      -2.508   4.487   1.239  0.00  0.00    +0.142 A 
ATOM      5  C   UNL     1      -2.611   5.846   0.992  0.00  0.00    +0.047 A 
ATOM      6  C   UNL     1      -3.632   6.328   0.193  0.00  0.00    +0.004 A 
ATOM      7  C   UNL     1      -4.549   5.457  -0.365  0.00  0.00    +0.002 A 
ATOM      8  C   UNL     1      -4.450   4.099  -0.127  0.00  0.00    +0.027 A 
ATOM      9  C   UNL     1      -3.429   3.608   0.673  0.00  0.00    +0.080 A 
BRANCH   4  10
ATOM     10  O   UNL     1      -1.508   4.012   2.028  0.00  0.00    -0.490 OA
BRANCH  10  12
ATOM     11  C   UNL     1       0.448   4.255   3.427  0.00  0.00    +0.048 C 
ATOM     12  C   UNL     1      -0.600   4.972   2.573  0.00  0.00    +0.226 C 
ENDBRANCH  10  12
ENDBRANCH   4  10
ENDBRANCH   1   9
BRANCH   2  13
ATOM     13  C   UNL     1      -4.752   2.531   2.869  0.00  0.00    +0.116 A 
ATOM     14  C   UNL     1      -5.483   2.176   4.004  0.00  0.00    +0.076 A 
ATOM     15  C   UNL     1      -6.109   3.270   4.601  0.00  0.00    +0.155 A 
ATOM     16  N   UNL     1      -5.970   4.462   4.064  0.00  0.00    -0.203 NA
ATOM     17  S   UNL     1      -5.049   4.285   2.797  0.00  0.00    +0.019 S 
BRANCH  15  18
ATOM     18  C   UNL     1      -6.924   3.092   5.816  0.00  0.00    +0.262 C 
ATOM     19  O   UNL     1      -7.049   1.986   6.307  0.00  0.00    -0.269 OA
ATOM     20  N   UNL     1      -7.530   4.153   6.383  0.00  0.00    -0.324 N 
ATOM     21  H   UNL     1      -7.431   5.035   5.991  0.00  0.00    +0.145 HD
ATOM     22  H   UNL     1      -8.066   4.036   7.183  0.00  0.00    +0.145 HD
ENDBRANCH  15  18
BRANCH  14  23
ATOM     23  N   UNL     1      -5.574   0.877   4.488  0.00  0.00    -0.355 N 
ATOM     24  H   UNL     1      -5.113   0.156   4.031  0.00  0.00    +0.142 HD
ATOM     25  H   UNL     1      -6.098   0.692   5.283  0.00  0.00    +0.142 HD
ENDBRANCH  14  23
ENDBRANCH   2  13
BRANCH   1  26
ATOM     26  C   UNL     1      -2.533   1.387   0.021  0.00  0.00    +0.233 C 
BRANCH  26  27
ATOM     27  C   UNL     1      -1.103   1.863   0.017  0.00  0.00    +0.135 A 
ATOM     28  C   UNL     1      -0.013   1.076   0.008  0.00  0.00    +0.047 A 
ATOM     29  C   UNL     1       1.111   1.934   0.002  0.00  0.00    +0.041 A 
ATOM     30  C   UNL     1       0.640   3.193   0.012  0.00  0.00    +0.195 A 
ATOM     31  O   UNL     1      -0.702   3.144   0.024  0.00  0.00    -0.465 OA
ENDBRANCH  26  27
BRANCH  26  32
ATOM     32  C   UNL     1      -3.094   1.469  -1.376  0.00  0.00    +0.242 C 
ATOM     33  O   UNL     1      -4.061   2.165  -1.601  0.00  0.00    -0.273 OA
ATOM     34  N   UNL     1      -2.521   0.769  -2.374  0.00  0.00    -0.313 N 
ATOM     35  H   UNL     1      -1.747   0.212  -2.195  0.00  0.00    +0.149 HD
BRANCH  34  36
ATOM     36  C   UNL     1      -3.066   0.849  -3.732  0.00  0.00    +0.104 C 
BRANCH  36  37
ATOM     37  C   UNL     1      -2.237  -0.034  -4.667  0.00  0.00    +0.022 C 
BRANCH  37  38
ATOM     38  C   UNL     1      -2.807   0.050  -6.085  0.00  0.00    -0.016 C 
ATOM     39  C   UNL     1      -2.639   1.474  -6.619  0.00  0.00    +0.007 C 
ATOM     40  C   UNL     1      -2.057  -0.927  -6.994  0.00  0.00    +0.007 C 
ENDBRANCH  37  38
ENDBRANCH  36  37
ENDBRANCH  34  36
ENDBRANCH  26  32
ENDBRANCH   1  26
TORSDOF 12
