REMARK  Name = ZINC34957340
REMARK  4 active torsions:
REMARK  status: ('A' for Active; 'I' for Inactive)
REMARK    1  A    between atoms: C_3  and  C_10
REMARK    2  A    between atoms: C_5  and  C_7
REMARK    3  A    between atoms: C_10  and  O_11
REMARK    4  A    between atoms: O_11  and  C_12
REMARK                            x       y       z     vdW  Elec       q    Type
REMARK                         _______ _______ _______ _____ _____    ______ ____
ROOT
ATOM      1  C   UNL     1      -0.017   1.375   0.010  0.00  0.00    +0.001 A 
ATOM      2  C   UNL     1       1.170   2.086   0.002  0.00  0.00    +0.007 A 
ATOM      3  C   UNL     1       2.382   1.420  -0.013  0.00  0.00    -0.010 A 
ATOM      4  C   UNL     1       2.415   0.040  -0.021  0.00  0.00    +0.018 A 
ATOM      5  C   UNL     1       1.222  -0.682  -0.014  0.00  0.00    +0.012 A 
ATOM      6  C   UNL     1       0.002  -0.004   0.002  0.00  0.00    +0.011 A 
ENDROOT
BRANCH   5   7
ATOM      7  C   UNL     1       1.249  -2.162  -0.023  0.00  0.00    +0.094 C 
ATOM      8  N   UNL     1       0.108  -2.849  -0.016  0.00  0.00    -0.387 N 
ATOM      9  N   UNL     1       2.414  -2.806  -0.038  0.00  0.00    -0.345 N 
ATOM     10  H   UNL     1      -0.741  -2.379  -0.004  0.00  0.00    +0.157 HD
ATOM     11  H   UNL     1       3.245  -2.305  -0.043  0.00  0.00    +0.144 HD
ATOM     12  H   UNL     1       2.432  -3.776  -0.044  0.00  0.00    +0.144 HD
ATOM     13  H   UNL     1       0.126  -3.818  -0.022  0.00  0.00    +0.157 HD
ENDBRANCH   5   7
BRANCH   3  14
ATOM     14  C   UNL     1       3.671   2.202  -0.021  0.00  0.00    +0.264 C 
BRANCH  14  15
ATOM     15  O   UNL     1       4.090   2.442   1.323  0.00  0.00    -0.485 OA
BRANCH  15  16
ATOM     16  C   UNL     1       5.244   3.141   1.494  0.00  0.00    +0.156 A 
ATOM     17  C   UNL     1       5.954   3.591   0.391  0.00  0.00    +0.050 A 
ATOM     18  C   UNL     1       7.126   4.301   0.567  0.00  0.00    +0.019 A 
ATOM     19  C   UNL     1       7.593   4.564   1.842  0.00  0.00    +0.021 A 
ATOM     20  C   UNL     1       6.888   4.117   2.945  0.00  0.00    +0.057 A 
ATOM     21  C   UNL     1       5.711   3.410   2.775  0.00  0.00    +0.166 A 
ATOM     22  F   UNL     1       5.020   2.978   3.852  0.00  0.00    -0.202 F 
ATOM     23 BR   UNL     1       9.198   5.535   2.077  0.00  0.00    -0.050 Br
ENDBRANCH  15  16
ENDBRANCH  14  15
ENDBRANCH   3  14
TORSDOF 4
