REMARK  Name = ZINC35384610
REMARK  5 active torsions:
REMARK  status: ('A' for Active; 'I' for Inactive)
REMARK    1  A    between atoms: C_1  and  C_2
REMARK    2  A    between atoms: C_2  and  C_28
REMARK    3  A    between atoms: C_7  and  C_10
REMARK    4  A    between atoms: C_15  and  O_16
REMARK    5  A    between atoms: N_19  and  C_22
REMARK                            x       y       z     vdW  Elec       q    Type
REMARK                         _______ _______ _______ _____ _____    ______ ____
ROOT
ATOM      1  C   UNL     1       0.007   1.533  -0.056  0.00  0.00    +0.002 C 
ATOM      2  C   UNL     1       0.027   0.004  -0.079  0.00  0.00    +0.045 C 
ATOM      3  C   UNL     1       0.782  -0.507  -1.302  0.00  0.00    +0.086 C 
ATOM      4  C   UNL     1       2.234  -0.181  -0.786  0.00  0.00    +0.077 C 
ATOM      5  C   UNL     1       2.246  -0.732   0.575  0.00  0.00    -0.023 C 
ATOM      6  N   UNL     1       0.833  -0.533   1.066  0.00  0.00    +0.395 N 
ATOM      7  C   UNL     1       3.004  -0.230  -2.006  0.00  0.00    +0.225 C 
ATOM      8  O   UNL     1       4.151  -0.597  -2.141  0.00  0.00    -0.275 OA
ATOM      9  N   UNL     1       2.153   0.230  -2.980  0.00  0.00    -0.239 N 
ATOM     10  C   UNL     1       0.839   0.294  -2.564  0.00  0.00    +0.225 C 
ATOM     11  O   UNL     1      -0.079   0.878  -3.099  0.00  0.00    -0.275 OA
ATOM     12  H   UNL     1       0.818   0.123   1.832  0.00  0.00    -0.083 HD
ATOM     13  H   UNL     1       0.455  -1.419   1.365  0.00  0.00    -0.083 HD
ENDROOT
BRANCH   5  14
ATOM     14  C   UNL     1       2.618  -2.192   0.548  0.00  0.00    -0.019 A 
ATOM     15  C   UNL     1       1.631  -3.156   0.476  0.00  0.00    +0.005 A 
ATOM     16  C   UNL     1       1.973  -4.495   0.452  0.00  0.00    +0.000 A 
ATOM     17  C   UNL     1       3.302  -4.873   0.499  0.00  0.00    +0.004 A 
ATOM     18  C   UNL     1       4.292  -3.913   0.572  0.00  0.00    +0.045 A 
ATOM     19  C   UNL     1       3.953  -2.568   0.591  0.00  0.00    +0.118 A 
BRANCH  19  20
ATOM     20  O   UNL     1       4.925  -1.621   0.656  0.00  0.00    -0.507 OA
ATOM     21  H   UNL     1       5.172  -1.372   1.557  0.00  0.00    +0.292 HD
ENDBRANCH  19  20
ENDBRANCH   5  14
BRANCH   9  22
ATOM     22  C   UNL     1       2.589   0.603  -4.328  0.00  0.00    +0.084 C 
ATOM     23  C   UNL     1       3.229  -0.607  -5.010  0.00  0.00    +0.023 C 
ATOM     24  C   UNL     1       3.685  -0.218  -6.418  0.00  0.00    +0.002 C 
ATOM     25  C   UNL     1       4.708   0.916  -6.327  0.00  0.00    +0.000 C 
ATOM     26  C   UNL     1       4.068   2.127  -5.644  0.00  0.00    +0.002 C 
ATOM     27  C   UNL     1       3.612   1.737  -4.237  0.00  0.00    +0.023 C 
ENDBRANCH   9  22
BRANCH   2  28
ATOM     28  C   UNL     1      -1.376  -0.546  -0.046  0.00  0.00    +0.346 C 
ATOM     29  O   UNL     1      -2.158  -0.274  -0.941  0.00  0.00    -0.248 OA
ATOM     30  O   UNL     1      -1.728  -1.263   0.875  0.00  0.00    -0.248 OA
ENDBRANCH   2  28
TORSDOF 4
