REMARK  Name = ZINC54095025
REMARK  6 active torsions:
REMARK  status: ('A' for Active; 'I' for Inactive)
REMARK    1  A    between atoms: C_1  and  C_2
REMARK    2  A    between atoms: C_2  and  C_4
REMARK    3  A    between atoms: C_2  and  O_21
REMARK    4  A    between atoms: N_6  and  N_7
REMARK    5  A    between atoms: N_10  and  C_11
REMARK    6  A    between atoms: O_21  and  C_22
REMARK                            x       y       z     vdW  Elec       q    Type
REMARK                         _______ _______ _______ _____ _____    ______ ____
ROOT
ATOM      1  N   UNL     1      -3.674  -0.346  -0.761  0.00  0.00    -0.218 N 
ATOM      2  C   UNL     1      -4.514  -0.088  -1.783  0.00  0.00    +0.316 C 
ATOM      3  O   UNL     1      -5.699  -0.336  -1.673  0.00  0.00    -0.251 OA
ATOM      4  N   UNL     1      -4.040   0.445  -2.926  0.00  0.00    -0.291 N 
ATOM      5  H   UNL     1      -4.016  -0.730   0.062  0.00  0.00    +0.174 HD
ATOM      6  H   UNL     1      -3.094   0.643  -3.013  0.00  0.00    +0.151 HD
ENDROOT
BRANCH   4   7
ATOM      7  C   UNL     1      -4.952   0.726  -4.037  0.00  0.00    +0.105 C 
ATOM      8  C   UNL     1      -4.178   0.754  -5.372  0.00  0.00    +0.032 C 
ATOM      9  C   UNL     1      -3.826   2.250  -5.519  0.00  0.00    +0.037 C 
ATOM     10  C   UNL     1      -4.897   2.987  -4.745  0.00  0.00    -0.042 A 
ATOM     11  C   UNL     1      -5.547   2.110  -3.892  0.00  0.00    -0.024 A 
ATOM     12  C   UNL     1      -6.572   2.566  -3.080  0.00  0.00    +0.006 A 
ATOM     13  C   UNL     1      -6.950   3.894  -3.118  0.00  0.00    +0.000 A 
ATOM     14  C   UNL     1      -6.304   4.771  -3.968  0.00  0.00    +0.000 A 
ATOM     15  C   UNL     1      -5.276   4.318  -4.782  0.00  0.00    +0.004 A 
ENDBRANCH   4   7
BRANCH   1  18
ATOM     16  C   UNL     1      -1.469  -0.319   0.136  0.00  0.00    +0.270 C 
ATOM     17  O   UNL     1      -1.896  -0.799   1.165  0.00  0.00    -0.270 OA
ATOM     18  N   UNL     1      -2.308  -0.061  -0.887  0.00  0.00    -0.230 N 
ATOM     19  H   UNL     1      -1.967   0.323  -1.710  0.00  0.00    +0.173 HD
BRANCH  16  21
ATOM     20  C   UNL     1       0.195   1.500  -0.138  0.00  0.00    +0.062 C 
ATOM     21  C   UNL     1       0.000  -0.012   0.000  0.00  0.00    +0.257 C 
BRANCH  21  22
ATOM     22  O   UNL     1       0.693  -0.477   1.160  0.00  0.00    -0.480 OA
BRANCH  22  23
ATOM     23  C   UNL     1       2.014  -0.764   1.016  0.00  0.00    +0.122 A 
ATOM     24  C   UNL     1       2.720  -1.330   2.067  0.00  0.00    +0.048 A 
ATOM     25  C   UNL     1       4.063  -1.621   1.919  0.00  0.00    +0.042 A 
ATOM     26  C   UNL     1       4.704  -1.347   0.723  0.00  0.00    +0.124 A 
ATOM     27  C   UNL     1       4.000  -0.781  -0.327  0.00  0.00    +0.042 A 
ATOM     28  C   UNL     1       2.656  -0.496  -0.184  0.00  0.00    +0.048 A 
ATOM     29  F   UNL     1       6.017  -1.631   0.580  0.00  0.00    -0.205 F 
ENDBRANCH  22  23
ENDBRANCH  21  22
ENDBRANCH  16  21
ENDBRANCH   1  18
TORSDOF 5
