REMARK  Name = ZINC39688707
REMARK  8 active torsions:
REMARK  status: ('A' for Active; 'I' for Inactive)
REMARK    1  A    between atoms: C_1  and  C_2
REMARK    2  A    between atoms: C_2  and  C_4
REMARK    3  A    between atoms: C_2  and  N_12
REMARK    4  A    between atoms: C_4  and  C_5
REMARK    5  A    between atoms: C_13  and  C_15
REMARK    6  A    between atoms: C_26  and  C_28
REMARK    7  A    between atoms: C_31  and  O_34
REMARK    8  A    between atoms: O_34  and  C_35
REMARK                            x       y       z     vdW  Elec       q    Type
REMARK                         _______ _______ _______ _____ _____    ______ ____
ROOT
ATOM      1  C   UNL     1       0.679  -0.238  -3.507  0.00  0.00    +0.100 C 
ATOM      2  C   UNL     1       1.882   0.528  -4.102  0.00  0.00    +0.121 C 
ATOM      3  N   UNL     1       1.753   0.348  -5.567  0.00  0.00    -0.296 N 
ATOM      4  C   UNL     1       0.297   0.453  -5.825  0.00  0.00    +0.115 C 
ATOM      5  C   UNL     1      -0.359  -0.284  -4.641  0.00  0.00    -0.004 C 
ATOM      6  C   UNL     1      -1.637   0.433  -4.216  0.00  0.00    -0.010 C 
ATOM      7  C   UNL     1      -2.675   0.323  -5.337  0.00  0.00    -0.082 C 
ATOM      8  N   UNL     1      -2.952  -1.092  -5.613  0.00  0.00    +0.379 N 
ATOM      9  C   UNL     1      -1.739  -1.753  -6.109  0.00  0.00    -0.082 C 
ATOM     10  C   UNL     1      -0.662  -1.731  -5.021  0.00  0.00    -0.010 C 
ATOM     11  C   UNL     1       2.738   0.135  -6.463  0.00  0.00    +0.248 C 
ATOM     12  O   UNL     1       3.877  -0.050  -6.081  0.00  0.00    -0.270 OA
ATOM     13  H   UNL     1      -3.257  -1.545  -4.764  0.00  0.00    -0.086 HD
ATOM     14  H   UNL     1      -3.680  -1.162  -6.308  0.00  0.00    -0.086 HD
ENDROOT
BRANCH  11  15
ATOM     15  C   UNL     1       2.433   0.128  -7.907  0.00  0.00    +0.055 A 
ATOM     16  C   UNL     1       1.268   0.742  -8.392  0.00  0.00    +0.020 A 
ATOM     17  C   UNL     1       1.027   0.709  -9.749  0.00  0.00    +0.068 A 
ATOM     18  C   UNL     1       1.937   0.071 -10.587  0.00  0.00    +0.220 A 
ATOM     19  N   UNL     1       3.027  -0.500 -10.099  0.00  0.00    -0.220 NA
ATOM     20  C   UNL     1       3.300  -0.486  -8.811  0.00  0.00    +0.127 A 
BRANCH  18  21
ATOM     21  O   UNL     1       1.705   0.035 -11.921  0.00  0.00    -0.438 OA
BRANCH  21  22
ATOM     22  C   UNL     1       2.662  -0.506 -12.721  0.00  0.00    +0.130 A 
ATOM     23  C   UNL     1       2.803  -1.884 -12.800  0.00  0.00    +0.046 A 
ATOM     24  C   UNL     1       3.776  -2.432 -13.614  0.00  0.00    +0.004 A 
ATOM     25  C   UNL     1       4.609  -1.608 -14.349  0.00  0.00    +0.000 A 
ATOM     26  C   UNL     1       4.470  -0.234 -14.271  0.00  0.00    +0.004 A 
ATOM     27  C   UNL     1       3.495   0.318 -13.464  0.00  0.00    +0.046 A 
ENDBRANCH  21  22
ENDBRANCH  18  21
ENDBRANCH  11  15
BRANCH   1  29
ATOM     28  N   UNL     1      -0.392  -0.187  -1.278  0.00  0.00    -0.312 N 
ATOM     29  C   UNL     1       0.123   0.500  -2.317  0.00  0.00    +0.218 C 
ATOM     30  O   UNL     1       0.139   1.713  -2.293  0.00  0.00    -0.275 OA
ATOM     31  H   UNL     1      -0.404  -1.156  -1.296  0.00  0.00    +0.149 HD
BRANCH  28  33
ATOM     32  C   UNL     1       0.204   0.862   0.850  0.00  0.00    +0.028 C 
ATOM     33  C   UNL     1      -0.932   0.531  -0.120  0.00  0.00    +0.074 C 
BRANCH  33  34
ATOM     34  C   UNL     1      -1.968  -0.346   0.586  0.00  0.00    +0.057 C 
BRANCH  34  35
ATOM     35  C   UNL     1      -3.144  -0.570  -0.329  0.00  0.00    -0.045 A 
ATOM     36  C   UNL     1      -4.210   0.311  -0.312  0.00  0.00    +0.006 A 
ATOM     37  C   UNL     1      -5.289   0.106  -1.151  0.00  0.00    +0.038 A 
ATOM     38  C   UNL     1      -5.302  -0.980  -2.009  0.00  0.00    +0.123 A 
ATOM     39  C   UNL     1      -4.234  -1.861  -2.025  0.00  0.00    +0.038 A 
ATOM     40  C   UNL     1      -3.154  -1.652  -1.189  0.00  0.00    +0.006 A 
ATOM     41  F   UNL     1      -6.357  -1.181  -2.829  0.00  0.00    -0.205 F 
ENDBRANCH  34  35
ENDBRANCH  33  34
ENDBRANCH  28  33
ENDBRANCH   1  29
TORSDOF 7
