REMARK  Name = ZINC06049534
REMARK  14 active torsions:
REMARK  status: ('A' for Active; 'I' for Inactive)
REMARK    1  A    between atoms: C_1  and  C_2
REMARK    2  A    between atoms: C_6  and  C_29
REMARK    3  A    between atoms: C_8  and  O_11
REMARK    4  A    between atoms: O_11  and  C_12
REMARK    5  A    between atoms: C_12  and  C_14
REMARK    6  A    between atoms: C_14  and  O_15
REMARK    7  A    between atoms: O_15  and  C_16
REMARK    8  A    between atoms: C_16  and  C_18
REMARK    9  A    between atoms: C_19  and  C_20
REMARK   10  A    between atoms: C_23  and  O_28
REMARK   11  A    between atoms: C_24  and  O_26
REMARK   12  A    between atoms: O_26  and  C_27
REMARK   13  A    between atoms: C_29  and  C_30
REMARK   14  A    between atoms: C_29  and  C_31
REMARK                            x       y       z     vdW  Elec       q    Type
REMARK                         _______ _______ _______ _____ _____    ______ ____
ROOT
ATOM      1  O   UNL     1      -6.074   3.220   0.076  0.00  0.00    -0.450 OA
ENDROOT
BRANCH   1   2
ATOM      2  C   UNL     1      -4.918   3.916   0.072  0.00  0.00    +0.332 C 
ATOM      3  O   UNL     1      -4.941   5.132   0.085  0.00  0.00    -0.246 OA
BRANCH   2   4
ATOM      4  C   UNL     1      -3.678   3.231   0.053  0.00  0.00    +0.092 C 
ATOM      5  C   UNL     1      -2.520   3.928   0.049  0.00  0.00    +0.015 C 
BRANCH   5   6
ATOM      6  C   UNL     1      -1.234   3.217   0.030  0.00  0.00    -0.021 A 
ATOM      7  C   UNL     1      -1.206   1.818   0.010  0.00  0.00    +0.012 A 
ATOM      8  C   UNL     1       0.001   1.155  -0.003  0.00  0.00    +0.050 A 
ATOM      9  C   UNL     1       1.191   1.870  -0.007  0.00  0.00    +0.158 A 
ATOM     10  C   UNL     1       1.171   3.264   0.007  0.00  0.00    +0.162 A 
ATOM     11  C   UNL     1      -0.034   3.938   0.026  0.00  0.00    +0.057 A 
BRANCH  10  12
ATOM     12  O   UNL     1       2.339   3.961   0.003  0.00  0.00    -0.491 OA
ATOM     13  C   UNL     1       2.244   5.387   0.018  0.00  0.00    +0.277 C 
ENDBRANCH  10  12
BRANCH   9  14
ATOM     14  O   UNL     1       2.378   1.210  -0.025  0.00  0.00    -0.503 OA
ATOM     15  H   UNL     1       2.714   1.028  -0.913  0.00  0.00    +0.292 HD
ENDBRANCH   9  14
ENDBRANCH   5   6
ENDBRANCH   2   4
ENDBRANCH   1   2
BRANCH   1  16
ATOM     16  C   UNL     1      -7.287   3.975   0.095  0.00  0.00    +0.352 C 
BRANCH  16  17
ATOM     17  C   UNL     1      -8.464   3.035   0.097  0.00  0.00    +0.346 C 
ATOM     18  O   UNL     1      -8.284   1.840   0.083  0.00  0.00    -0.247 OA
BRANCH  17  19
ATOM     19  O   UNL     1      -9.714   3.524   0.114  0.00  0.00    -0.459 OA
BRANCH  19  25
ATOM     20  C   UNL     1     -11.884  -0.059  -0.624  0.00  0.00    +0.007 C 
ATOM     21  C   UNL     1     -12.339   1.221  -1.328  0.00  0.00    -0.011 C 
ATOM     22  C   UNL     1     -13.543   1.808  -0.589  0.00  0.00    +0.004 C 
ATOM     23  C   UNL     1     -13.148   2.132   0.853  0.00  0.00    +0.007 C 
ATOM     24  C   UNL     1     -12.004   3.148   0.853  0.00  0.00    +0.032 C 
ATOM     25  C   UNL     1     -10.800   2.560   0.114  0.00  0.00    +0.180 C 
ATOM     26  C   UNL     1     -11.195   2.236  -1.328  0.00  0.00    +0.048 C 
BRANCH  24  27
ATOM     27  C   UNL     1     -11.609   3.472   2.295  0.00  0.00    -0.011 C 
ATOM     28  C   UNL     1     -12.769   4.184   2.994  0.00  0.00    +0.007 C 
ATOM     29  C   UNL     1     -11.284   2.175   3.038  0.00  0.00    +0.007 C 
ENDBRANCH  24  27
ENDBRANCH  19  25
ENDBRANCH  17  19
ENDBRANCH  16  17
ENDBRANCH   1  16
TORSDOF 10
