REMARK  Name = ZINC08834862
REMARK  8 active torsions:
REMARK  status: ('A' for Active; 'I' for Inactive)
REMARK    1  A    between atoms: C_1  and  C_2
REMARK    2  A    between atoms: C_14  and  C_24
REMARK    3  A    between atoms: C_15  and  N_16
REMARK    4  A    between atoms: N_17  and  C_18
REMARK    5  A    between atoms: C_18  and  C_19
REMARK    6  A    between atoms: N_26  and  C_27
REMARK    7  A    between atoms: C_27  and  C_28
REMARK    8  A    between atoms: C_28  and  C_29
REMARK                            x       y       z     vdW  Elec       q    Type
REMARK                         _______ _______ _______ _____ _____    ______ ____
ROOT
ATOM      1  C   UNL     1       0.102   2.112   0.434  0.00  0.00    +0.047 C 
ATOM      2  C   UNL     1       0.118   0.620   0.222  0.00  0.00    -0.007 A 
ATOM      3  C   UNL     1       0.148   0.109  -1.038  0.00  0.00    +0.008 A 
ATOM      4  C   UNL     1       0.162  -1.282  -1.223  0.00  0.00    +0.019 A 
ATOM      5  C   UNL     1       0.147  -2.107  -0.154  0.00  0.00    +0.096 A 
ATOM      6  N   UNL     1       0.117  -1.606   1.115  0.00  0.00    -0.267 N 
ATOM      7  C   UNL     1       0.108  -0.254   1.330  0.00  0.00    +0.145 A 
ATOM      8  N   UNL     1       0.085   0.270   2.550  0.00  0.00    -0.211 NA
ATOM      9  C   UNL     1       0.074  -0.488   3.651  0.00  0.00    +0.150 A 
ATOM     10  C   UNL     1       0.088  -1.902   3.511  0.00  0.00    +0.083 A 
ATOM     11  C   UNL     1       0.101  -2.467   2.160  0.00  0.00    +0.268 A 
ATOM     12  O   UNL     1       0.114  -3.671   1.983  0.00  0.00    -0.267 OA
ATOM     13  C   UNL     1       0.076  -2.711   4.645  0.00  0.00    +0.033 A 
ATOM     14  C   UNL     1       0.051  -2.087   5.894  0.00  0.00    +0.075 A 
ATOM     15  C   UNL     1       0.038  -0.676   5.960  0.00  0.00    +0.110 A 
ATOM     16  N   UNL     1       0.050   0.063   4.867  0.00  0.00    -0.306 N 
ENDROOT
BRANCH  14  17
ATOM     17  C   UNL     1       0.037  -2.890   7.127  0.00  0.00    +0.247 C 
ATOM     18  O   UNL     1       0.128  -2.344   8.210  0.00  0.00    -0.270 OA
ATOM     19  N   UNL     1      -0.075  -4.231   7.056  0.00  0.00    -0.311 N 
ATOM     20  H   UNL     1      -0.147  -4.667   6.193  0.00  0.00    +0.149 HD
BRANCH  19  21
ATOM     21  C   UNL     1      -0.089  -5.031   8.284  0.00  0.00    +0.109 C 
BRANCH  21  22
ATOM     22  C   UNL     1      -0.225  -6.512   7.926  0.00  0.00    +0.054 C 
BRANCH  22  23
ATOM     23  C   UNL     1      -0.239  -7.335   9.189  0.00  0.00    -0.046 A 
ATOM     24  C   UNL     1       0.947  -7.805   9.721  0.00  0.00    +0.004 A 
ATOM     25  C   UNL     1       0.934  -8.559  10.879  0.00  0.00    +0.000 A 
ATOM     26  C   UNL     1      -0.265  -8.844  11.505  0.00  0.00    +0.000 A 
ATOM     27  C   UNL     1      -1.451  -8.373  10.974  0.00  0.00    +0.000 A 
ATOM     28  C   UNL     1      -1.438  -7.615   9.818  0.00  0.00    +0.004 A 
ENDBRANCH  22  23
ENDBRANCH  21  22
ENDBRANCH  19  21
ENDBRANCH  14  17
BRANCH  15  29
ATOM     29  N   UNL     1       0.014  -0.057   7.193  0.00  0.00    -0.344 N 
ATOM     30  H   UNL     1       0.093  -0.586   8.002  0.00  0.00    +0.144 HD
ATOM     31  H   UNL     1      -0.082   0.906   7.250  0.00  0.00    +0.144 HD
ENDBRANCH  15  29
BRANCH  16  32
ATOM     32  C   UNL     1       0.036   1.522   4.990  0.00  0.00    +0.199 C 
BRANCH  32  33
ATOM     33  C   UNL     1      -1.389   2.011   5.009  0.00  0.00    +0.125 A 
ATOM     34  C   UNL     1      -2.148   2.180   6.107  0.00  0.00    +0.046 A 
ATOM     35  C   UNL     1      -3.407   2.650   5.667  0.00  0.00    +0.041 A 
ATOM     36  C   UNL     1      -3.342   2.741   4.326  0.00  0.00    +0.195 A 
ATOM     37  O   UNL     1      -2.115   2.358   3.934  0.00  0.00    -0.466 OA
ENDBRANCH  32  33
ENDBRANCH  16  32
TORSDOF 7
