REMARK  Name = ZINC58178002
REMARK  10 active torsions:
REMARK  status: ('A' for Active; 'I' for Inactive)
REMARK    1  A    between atoms: C_1  and  C_2
REMARK    2  A    between atoms: C_2  and  N_3
REMARK    3  A    between atoms: N_3  and  C_4
REMARK    4  A    between atoms: C_4  and  C_5
REMARK    5  A    between atoms: C_6  and  C_8
REMARK    6  A    between atoms: C_13  and  N_14
REMARK    7  A    between atoms: N_14  and  C_15
REMARK    8  A    between atoms: C_15  and  C_16
REMARK    9  A    between atoms: C_19  and  C_25
REMARK   10  A    between atoms: C_21  and  N_22
REMARK                            x       y       z     vdW  Elec       q    Type
REMARK                         _______ _______ _______ _____ _____    ______ ____
ROOT
ATOM      1  N   UNL     1       4.667  -1.519   0.776  0.00  0.00    -0.339 N 
ATOM      2  H   UNL     1       4.207  -1.628   1.623  0.00  0.00    +0.146 HD
ENDROOT
BRANCH   1   8
ATOM      3  C   UNL     1       2.699  -0.464  -0.158  0.00  0.00    +0.058 A 
ATOM      4  C   UNL     1       2.079   0.195  -1.223  0.00  0.00    +0.015 A 
ATOM      5  C   UNL     1       2.781   0.438  -2.383  0.00  0.00    +0.001 A 
ATOM      6  C   UNL     1       4.101   0.031  -2.500  0.00  0.00    +0.002 A 
ATOM      7  C   UNL     1       4.727  -0.621  -1.458  0.00  0.00    +0.024 A 
ATOM      8  C   UNL     1       4.037  -0.869  -0.277  0.00  0.00    +0.040 A 
BRANCH   3  10
ATOM      9  N   UNL     1       1.434   0.299   1.791  0.00  0.00    -0.298 N 
ATOM     10  C   UNL     1       1.953  -0.727   1.087  0.00  0.00    +0.248 C 
ATOM     11  O   UNL     1       1.806  -1.869   1.478  0.00  0.00    -0.270 OA
BRANCH   9  13
ATOM     12  C   UNL     1       2.763   2.351   1.845  0.00  0.00    +0.024 C 
ATOM     13  C   UNL     1       1.523   1.665   1.269  0.00  0.00    +0.104 C 
ENDBRANCH   9  13
BRANCH   9  14
ATOM     14  C   UNL     1       0.780   0.047   3.078  0.00  0.00    +0.104 C 
ATOM     15  C   UNL     1      -0.709  -0.216   2.850  0.00  0.00    +0.024 C 
ENDBRANCH   9  14
ENDBRANCH   3  10
ENDBRANCH   1   8
BRANCH   1  16
ATOM     16  C   UNL     1       6.025  -2.042   0.607  0.00  0.00    +0.139 C 
BRANCH  16  17
ATOM     17  C   UNL     1       6.474  -2.697   1.887  0.00  0.00    -0.000 A 
ATOM     18  C   UNL     1       7.300  -2.011   2.759  0.00  0.00    +0.008 A 
ATOM     19  C   UNL     1       7.715  -2.605   3.933  0.00  0.00    +0.013 A 
ATOM     20  C   UNL     1       7.299  -3.902   4.241  0.00  0.00    +0.039 A 
ATOM     21  C   UNL     1       6.465  -4.588   3.357  0.00  0.00    +0.046 A 
ATOM     22  C   UNL     1       6.053  -3.980   2.189  0.00  0.00    +0.132 A 
BRANCH  20  23
ATOM     23  C   UNL     1       7.740  -4.545   5.497  0.00  0.00    +0.242 C 
ATOM     24  O   UNL     1       7.376  -5.674   5.762  0.00  0.00    -0.270 OA
ATOM     25  N   UNL     1       8.546  -3.879   6.348  0.00  0.00    -0.325 N 
ATOM     26  H   UNL     1       8.836  -2.978   6.136  0.00  0.00    +0.145 HD
ATOM     27  H   UNL     1       8.835  -4.301   7.172  0.00  0.00    +0.145 HD
ENDBRANCH  20  23
BRANCH  22  28
ATOM     28  N   UNL     1       5.163  -4.705   1.254  0.00  0.00    +0.057 N 
ATOM     29  O   UNL     1       4.795  -5.826   1.516  0.00  0.00    -0.126 OA
ATOM     30  O   UNL     1       4.805  -4.175   0.227  0.00  0.00    -0.126 OA
ENDBRANCH  22  28
ENDBRANCH  16  17
ENDBRANCH   1  16
TORSDOF 8
