REMARK  Name = ZINC16024952
REMARK  10 active torsions:
REMARK  status: ('A' for Active; 'I' for Inactive)
REMARK    1  A    between atoms: C_1  and  O_2
REMARK    2  A    between atoms: O_2  and  C_3
REMARK    3  A    between atoms: C_6  and  C_11
REMARK    4  A    between atoms: C_8  and  O_9
REMARK    5  A    between atoms: O_9  and  C_10
REMARK    6  A    between atoms: C_11  and  C_12
REMARK    7  A    between atoms: C_12  and  N_13
REMARK    8  A    between atoms: C_18  and  C_35
REMARK    9  A    between atoms: C_35  and  C_36
REMARK   10  A    between atoms: C_36  and  C_37
REMARK                            x       y       z     vdW  Elec       q    Type
REMARK                         _______ _______ _______ _____ _____    ______ ____
ROOT
ATOM      1  N   UNL     1       2.253  -3.463   6.558  0.00  0.00    -0.241 N 
ATOM      2  C   UNL     1       2.351  -4.793   6.663  0.00  0.00    +0.227 C 
ATOM      3  O   UNL     1       1.908  -5.593   5.867  0.00  0.00    -0.275 OA
ATOM      4  C   UNL     1       3.098  -5.144   7.930  0.00  0.00    +0.107 C 
ATOM      5  C   UNL     1       2.124  -5.816   8.922  0.00  0.00    +0.068 C 
ATOM      6  N   UNL     1       2.387  -5.149  10.225  0.00  0.00    -0.295 NA
ATOM      7  C   UNL     1       2.617  -3.737   9.869  0.00  0.00    +0.136 C 
ATOM      8  C   UNL     1       3.426  -3.756   8.548  0.00  0.00    +0.122 C 
ATOM      9  C   UNL     1       2.826  -2.783   7.559  0.00  0.00    +0.228 C 
ATOM     10  O   UNL     1       2.856  -1.575   7.657  0.00  0.00    -0.275 OA
ATOM     11  C   UNL     1       3.359  -3.010  10.954  0.00  0.00    +0.003 A 
ATOM     12  C   UNL     1       4.588  -3.194  11.549  0.00  0.00    +0.008 A 
ATOM     13  C   UNL     1       5.006  -2.336  12.551  0.00  0.00    +0.000 A 
ATOM     14  C   UNL     1       4.189  -1.295  12.952  0.00  0.00    +0.002 A 
ATOM     15  C   UNL     1       2.959  -1.107  12.358  0.00  0.00    +0.023 A 
ATOM     16  C   UNL     1       2.529  -1.965  11.349  0.00  0.00    +0.039 A 
ATOM     17  N   UNL     1       1.346  -1.981  10.606  0.00  0.00    -0.283 N 
ATOM     18  C   UNL     1       1.319  -2.991   9.716  0.00  0.00    +0.243 C 
ATOM     19  O   UNL     1       0.423  -3.249   8.940  0.00  0.00    -0.273 OA
ATOM     20  H   UNL     1       1.596  -5.242  10.844  0.00  0.00    +0.123 HD
ATOM     21  H   UNL     1       0.628  -1.339  10.719  0.00  0.00    +0.155 HD
ENDROOT
BRANCH   1  22
ATOM     22  C   UNL     1       1.580  -2.804   5.436  0.00  0.00    +0.121 C 
BRANCH  22  23
ATOM     23  C   UNL     1       2.590  -2.548   4.315  0.00  0.00    +0.054 C 
BRANCH  23  27
ATOM     24  C   UNL     1       0.626  -0.619   1.042  0.00  0.00    +0.161 A 
ATOM     25  C   UNL     1       1.202   0.137   2.051  0.00  0.00    +0.049 A 
ATOM     26  C   UNL     1       1.836  -0.490   3.108  0.00  0.00    +0.007 A 
ATOM     27  C   UNL     1       1.897  -1.870   3.161  0.00  0.00    -0.042 A 
ATOM     28  C   UNL     1       1.325  -2.630   2.158  0.00  0.00    +0.053 A 
ATOM     29  C   UNL     1       0.683  -2.008   1.099  0.00  0.00    +0.162 A 
BRANCH  24  31
ATOM     30  C   UNL     1      -0.017   1.425   0.010  0.00  0.00    +0.277 C 
ATOM     31  O   UNL     1       0.002  -0.004   0.002  0.00  0.00    -0.491 OA
ENDBRANCH  24  31
BRANCH  29  32
ATOM     32  O   UNL     1       0.115  -2.754   0.114  0.00  0.00    -0.491 OA
ATOM     33  C   UNL     1       0.211  -4.174   0.238  0.00  0.00    +0.277 C 
ENDBRANCH  29  32
ENDBRANCH  23  27
ENDBRANCH  22  23
ENDBRANCH   1  22
BRANCH   5  34
ATOM     34  C   UNL     1       2.414  -7.315   9.020  0.00  0.00    +0.028 C 
BRANCH  34  35
ATOM     35  C   UNL     1       1.361  -7.981   9.909  0.00  0.00    +0.097 C 
BRANCH  35  36
ATOM     36  C   UNL     1       1.647  -9.457  10.005  0.00  0.00    +0.211 C 
ATOM     37  O   UNL     1       2.598  -9.930   9.421  0.00  0.00    -0.276 OA
ATOM     38  N   UNL     1       0.845 -10.252  10.742  0.00  0.00    -0.329 N 
ATOM     39  H   UNL     1       0.084  -9.873  11.209  0.00  0.00    +0.145 HD
ATOM     40  H   UNL     1       1.028 -11.202  10.804  0.00  0.00    +0.145 HD
ENDBRANCH  35  36
ENDBRANCH  34  35
ENDBRANCH   5  34
TORSDOF 8
