REMARK  Name = ZINC08812990
REMARK  12 active torsions:
REMARK  status: ('A' for Active; 'I' for Inactive)
REMARK    1  A    between atoms: C_1  and  C_2
REMARK    2  A    between atoms: C_2  and  C_3
REMARK    3  A    between atoms: C_9  and  C_10
REMARK    4  A    between atoms: C_9  and  N_69
REMARK    5  A    between atoms: C_10  and  C_11
REMARK    6  A    between atoms: C_11  and  N_12
REMARK    7  A    between atoms: C_13  and  C_15
REMARK    8  A    between atoms: C_18  and  S_25
REMARK    9  A    between atoms: C_19  and  N_21
REMARK   10  A    between atoms: C_22  and  C_24
REMARK   11  A    between atoms: S_25  and  C_28
REMARK   12  A    between atoms: C_31  and  C_34
REMARK                            x       y       z     vdW  Elec       q    Type
REMARK                         _______ _______ _______ _____ _____    ______ ____
ROOT
ATOM      1  C   UNL     1       3.958   6.190  -2.198  0.00  0.00    +0.039 A 
ATOM      2  C   UNL     1       2.672   6.688  -1.979  0.00  0.00    +0.015 A 
ATOM      3  C   UNL     1       2.433   8.044  -2.068  0.00  0.00    +0.030 A 
ATOM      4  C   UNL     1       3.463   8.914  -2.373  0.00  0.00    +0.115 A 
ATOM      5  C   UNL     1       4.746   8.429  -2.593  0.00  0.00    +0.060 A 
ATOM      6  C   UNL     1       4.998   7.069  -2.500  0.00  0.00    +0.038 A 
ENDROOT
BRANCH   5   7
ATOM      7  N   UNL     1       5.786   9.313  -2.902  0.00  0.00    -0.284 N 
ATOM      8  C   UNL     1       7.043   9.044  -2.497  0.00  0.00    +0.214 C 
ATOM      9  O   UNL     1       7.287   7.998  -1.934  0.00  0.00    -0.276 OA
ATOM     10  C   UNL     1       8.144  10.043  -2.743  0.00  0.00    +0.109 C 
ATOM     11  H   UNL     1       5.601  10.121  -3.407  0.00  0.00    +0.155 HD
ENDBRANCH   5   7
BRANCH   1  13
ATOM     12  N   UNL     1       3.211   3.892  -1.807  0.00  0.00    -0.311 N 
ATOM     13  C   UNL     1       4.217   4.738  -2.104  0.00  0.00    +0.244 C 
ATOM     14  O   UNL     1       5.337   4.307  -2.295  0.00  0.00    -0.270 OA
ATOM     15  H   UNL     1       2.317   4.236  -1.654  0.00  0.00    +0.149 HD
BRANCH  12  16
ATOM     16  C   UNL     1       3.468   2.452  -1.713  0.00  0.00    +0.102 C 
BRANCH  16  17
ATOM     17  C   UNL     1       2.168   1.724  -1.366  0.00  0.00    +0.000 C 
BRANCH  17  18
ATOM     18  C   UNL     1       2.436   0.221  -1.269  0.00  0.00    -0.077 C 
BRANCH  18  24
ATOM     19  C   UNL     1       1.371  -1.935  -0.988  0.00  0.00    -0.069 C 
ATOM     20  C   UNL     1       0.022  -2.627  -0.779  0.00  0.00    -0.015 C 
ATOM     21  C   UNL     1      -0.553  -2.215   0.578  0.00  0.00    -0.003 C 
ATOM     22  C   UNL     1      -0.689  -0.690   0.625  0.00  0.00    -0.019 C 
ATOM     23  C   UNL     1       0.681  -0.054   0.376  0.00  0.00    -0.078 C 
ATOM     24  N   UNL     1       1.168  -0.471  -0.957  0.00  0.00    +0.382 N 
ATOM     25  H   UNL     1       0.467  -0.217  -1.662  0.00  0.00    -0.081 HD
BRANCH  19  27
ATOM     26  C   UNL     1       1.023  -1.803  -3.458  0.00  0.00    +0.002 C 
ATOM     27  C   UNL     1       1.940  -2.328  -2.352  0.00  0.00    -0.019 C 
ENDBRANCH  19  27
ENDBRANCH  18  24
ENDBRANCH  17  18
ENDBRANCH  16  17
ENDBRANCH  12  16
ENDBRANCH   1  13
BRANCH   4  28
ATOM     28  S   UNL     1       3.148  10.644  -2.483  0.00  0.00    +0.027 S 
ATOM     29  O   UNL     1       3.731  11.086  -3.701  0.00  0.00    -0.164 OA
ATOM     30  O   UNL     1       1.770  10.825  -2.188  0.00  0.00    -0.164 OA
BRANCH  28  31
ATOM     31  C   UNL     1       4.047  11.421  -1.183  0.00  0.00    +0.094 A 
ATOM     32  C   UNL     1       3.480  11.546   0.072  0.00  0.00    +0.027 A 
ATOM     33  C   UNL     1       4.188  12.152   1.093  0.00  0.00    +0.005 A 
ATOM     34  C   UNL     1       5.459  12.642   0.857  0.00  0.00    -0.050 A 
ATOM     35  C   UNL     1       6.024  12.521  -0.398  0.00  0.00    +0.005 A 
ATOM     36  C   UNL     1       5.318  11.912  -1.419  0.00  0.00    +0.027 A 
ATOM     37  C   UNL     1       6.228  13.307   1.970  0.00  0.00    +0.044 C 
ENDBRANCH  28  31
ENDBRANCH   4  28
TORSDOF 9
