REMARK  Name = ZINC39540801
REMARK  5 active torsions:
REMARK  status: ('A' for Active; 'I' for Inactive)
REMARK    1  A    between atoms: C_1  and  S_2
REMARK    2  A    between atoms: S_2  and  C_3
REMARK    3  A    between atoms: N_5  and  C_9
REMARK    4  A    between atoms: C_7  and  O_8
REMARK    5  A    between atoms: C_14  and  O_15
REMARK                            x       y       z     vdW  Elec       q    Type
REMARK                         _______ _______ _______ _____ _____    ______ ____
ROOT
ATOM      1  C   UNL     1      -1.702  -0.454   0.016  0.00  0.00    +0.067 A 
ATOM      2  C   UNL     1      -2.754   0.397   0.025  0.00  0.00    +0.109 A 
ATOM      3  N   UNL     1      -3.905  -0.348   0.034  0.00  0.00    -0.315 N 
ATOM      4  C   UNL     1      -3.568  -1.676   0.031  0.00  0.00    +0.138 A 
ATOM      5  C   UNL     1      -2.220  -1.770   0.013  0.00  0.00    +0.148 A 
ENDROOT
BRANCH   3   6
ATOM      6  C   UNL     1      -5.211   0.164   0.045  0.00  0.00    +0.088 A 
ATOM      7  C   UNL     1      -5.567   1.140   0.965  0.00  0.00    +0.030 A 
ATOM      8  C   UNL     1      -6.854   1.643   0.974  0.00  0.00    +0.002 A 
ATOM      9  C   UNL     1      -7.789   1.176   0.068  0.00  0.00    +0.004 A 
ATOM     10  C   UNL     1      -7.442   0.203  -0.851  0.00  0.00    +0.047 A 
ATOM     11  C   UNL     1      -6.151  -0.302  -0.870  0.00  0.00    +0.141 A 
BRANCH  11  12
ATOM     12  O   UNL     1      -5.806  -1.254  -1.778  0.00  0.00    -0.505 OA
ATOM     13  H   UNL     1      -5.948  -2.160  -1.471  0.00  0.00    +0.292 HD
ENDBRANCH  11  12
ENDBRANCH   3   6
BRANCH   1  15
ATOM     14  C   UNL     1      -0.022   1.810   0.012  0.00  0.00    +0.090 C 
ATOM     15  S   UNL     1       0.002  -0.004   0.002  0.00  0.00    -0.124 S 
ENDBRANCH   1  15
BRANCH   5  16
ATOM     16  O   UNL     1      -1.493  -2.923  -0.000  0.00  0.00    -0.504 OA
ATOM     17  H   UNL     1      -1.275  -3.260   0.879  0.00  0.00    +0.292 HD
ENDBRANCH   5  16
TORSDOF 4
