REMARK  Name = ZINC67480905
REMARK  8 active torsions:
REMARK  status: ('A' for Active; 'I' for Inactive)
REMARK    1  A    between atoms: C_1  and  C_2
REMARK    2  A    between atoms: C_2  and  C_4
REMARK    3  A    between atoms: C_2  and  N_11
REMARK    4  A    between atoms: C_4  and  N_5
REMARK    5  A    between atoms: N_14  and  C_15
REMARK    6  A    between atoms: C_15  and  C_16
REMARK    7  A    between atoms: N_21  and  C_22
REMARK    8  A    between atoms: C_22  and  C_23
REMARK                            x       y       z     vdW  Elec       q    Type
REMARK                         _______ _______ _______ _____ _____    ______ ____
ROOT
ATOM      1  N   UNL     1       0.688  -0.476  -1.203  0.00  0.00    -0.295 N 
ATOM      2  C   UNL     1       0.006  -0.608  -2.358  0.00  0.00    +0.300 C 
ATOM      3  O   UNL     1      -1.178  -0.335  -2.400  0.00  0.00    -0.253 OA
ATOM      4  N   UNL     1       0.637  -1.043  -3.467  0.00  0.00    -0.301 N 
ATOM      5  H   UNL     1       1.632  -0.695  -1.170  0.00  0.00    +0.151 HD
ATOM      6  H   UNL     1       1.582  -1.261  -3.434  0.00  0.00    +0.150 HD
ENDROOT
BRANCH   1   8
ATOM      7  C   UNL     1      -0.019   1.526   0.010  0.00  0.00    +0.029 C 
ATOM      8  C   UNL     1       0.002  -0.004   0.002  0.00  0.00    +0.089 C 
BRANCH   8   9
ATOM      9  C   UNL     1       0.742  -0.511   1.242  0.00  0.00    +0.129 C 
BRANCH   9  10
ATOM     10  N   UNL     1       0.866  -1.969   1.174  0.00  0.00    -0.300 N 
ATOM     11  C   UNL     1      -0.122  -2.910   1.713  0.00  0.00    +0.108 C 
ATOM     12  C   UNL     1       0.193  -4.267   1.045  0.00  0.00    +0.028 C 
ATOM     13  C   UNL     1       1.695  -4.112   0.711  0.00  0.00    +0.097 C 
ATOM     14  C   UNL     1       1.898  -2.617   0.605  0.00  0.00    +0.216 C 
ATOM     15  O   UNL     1       2.853  -2.080   0.085  0.00  0.00    -0.276 OA
ENDBRANCH   9  10
ENDBRANCH   8   9
ENDBRANCH   1   8
BRANCH   4  16
ATOM     16  C   UNL     1      -0.104  -1.186  -4.723  0.00  0.00    +0.090 C 
BRANCH  16  17
ATOM     17  C   UNL     1       0.839  -1.692  -5.817  0.00  0.00    -0.051 C 
ATOM     18  C   UNL     1       0.037  -2.006  -7.097  0.00  0.00    -0.016 C 
ATOM     19  C   UNL     1       0.728  -3.287  -7.636  0.00  0.00    -0.020 C 
ATOM     20  C   UNL     1       1.095  -4.021  -6.322  0.00  0.00    -0.078 C 
ATOM     21  N   UNL     1       1.485  -2.944  -5.383  0.00  0.00    +0.383 N 
ATOM     22  H   UNL     1       1.179  -3.178  -4.450  0.00  0.00    -0.081 HD
BRANCH  21  23
ATOM     23  C   UNL     1       2.944  -2.777  -5.395  0.00  0.00    -0.075 C 
BRANCH  23  24
ATOM     24  C   UNL     1       3.606  -4.035  -4.827  0.00  0.00    -0.028 C 
ATOM     25  C   UNL     1       3.228  -4.187  -3.352  0.00  0.00    +0.002 C 
ATOM     26  C   UNL     1       3.890  -5.444  -2.783  0.00  0.00    +0.000 C 
ATOM     27  C   UNL     1       5.409  -5.323  -2.910  0.00  0.00    +0.000 C 
ATOM     28  C   UNL     1       5.787  -5.170  -4.385  0.00  0.00    +0.000 C 
ATOM     29  C   UNL     1       5.126  -3.913  -4.954  0.00  0.00    +0.002 C 
ENDBRANCH  23  24
ENDBRANCH  21  23
ENDBRANCH  16  17
ENDBRANCH   4  16
TORSDOF 7
