REMARK  Name = ZINC39638617
REMARK  8 active torsions:
REMARK  status: ('A' for Active; 'I' for Inactive)
REMARK    1  A    between atoms: C_1  and  C_2
REMARK    2  A    between atoms: C_2  and  O_3
REMARK    3  A    between atoms: O_3  and  C_4
REMARK    4  A    between atoms: C_9  and  C_10
REMARK    5  A    between atoms: C_10  and  N_11
REMARK    6  A    between atoms: C_12  and  C_14
REMARK    7  A    between atoms: C_25  and  C_27
REMARK    8  A    between atoms: C_27  and  C_28
REMARK                            x       y       z     vdW  Elec       q    Type
REMARK                         _______ _______ _______ _____ _____    ______ ____
ROOT
ATOM      1  C   UNL     1       5.325   0.475  -3.325  0.00  0.00    +0.100 C 
ATOM      2  C   UNL     1       5.139   1.408  -2.107  0.00  0.00    +0.121 C 
ATOM      3  N   UNL     1       6.146   2.478  -2.298  0.00  0.00    -0.300 N 
ATOM      4  C   UNL     1       6.125   2.749  -3.755  0.00  0.00    +0.115 C 
ATOM      5  C   UNL     1       5.972   1.359  -4.404  0.00  0.00    -0.004 C 
ATOM      6  C   UNL     1       7.340   0.804  -4.792  0.00  0.00    -0.010 C 
ATOM      7  C   UNL     1       7.938   1.667  -5.906  0.00  0.00    -0.082 C 
ATOM      8  N   UNL     1       7.039   1.663  -7.067  0.00  0.00    +0.379 N 
ATOM      9  C   UNL     1       5.757   2.283  -6.710  0.00  0.00    -0.082 C 
ATOM     10  C   UNL     1       5.067   1.446  -5.629  0.00  0.00    -0.010 C 
ATOM     11  C   UNL     1       6.909   3.071  -1.358  0.00  0.00    +0.220 C 
ATOM     12  O   UNL     1       7.694   3.940  -1.674  0.00  0.00    -0.275 OA
ATOM     13  H   UNL     1       7.463   2.182  -7.821  0.00  0.00    -0.086 HD
ATOM     14  H   UNL     1       6.880   0.712  -7.364  0.00  0.00    -0.086 HD
ENDROOT
BRANCH   1  16
ATOM     15  N   UNL     1       3.912  -1.240  -4.411  0.00  0.00    -0.311 N 
ATOM     16  C   UNL     1       3.991  -0.042  -3.799  0.00  0.00    +0.218 C 
ATOM     17  O   UNL     1       2.990   0.621  -3.630  0.00  0.00    -0.275 OA
ATOM     18  H   UNL     1       4.713  -1.769  -4.547  0.00  0.00    +0.149 HD
BRANCH  15  19
ATOM     19  C   UNL     1       2.615  -1.742  -4.873  0.00  0.00    +0.143 C 
BRANCH  19  25
ATOM     20  C   UNL     1       2.919  -4.226  -4.730  0.00  0.00    +0.125 A 
ATOM     21  C   UNL     1       3.084  -5.468  -5.327  0.00  0.00    +0.046 A 
ATOM     22  C   UNL     1       3.132  -5.570  -6.704  0.00  0.00    +0.004 A 
ATOM     23  C   UNL     1       3.018  -4.436  -7.487  0.00  0.00    +0.001 A 
ATOM     24  C   UNL     1       2.854  -3.197  -6.894  0.00  0.00    +0.009 A 
ATOM     25  C   UNL     1       2.799  -3.091  -5.518  0.00  0.00    +0.011 A 
BRANCH  20  26
ATOM     26  O   UNL     1       2.870  -4.123  -3.376  0.00  0.00    -0.492 OA
BRANCH  26  28
ATOM     27  C   UNL     1       2.922  -5.021  -1.133  0.00  0.00    +0.048 C 
ATOM     28  C   UNL     1       3.001  -5.334  -2.628  0.00  0.00    +0.225 C 
ENDBRANCH  26  28
ENDBRANCH  20  26
ENDBRANCH  19  25
ENDBRANCH  15  19
ENDBRANCH   1  16
BRANCH  11  29
ATOM     29  C   UNL     1       6.787   2.655   0.085  0.00  0.00    +0.131 C 
BRANCH  29  30
ATOM     30  C   UNL     1       7.741   3.465   0.924  0.00  0.00    -0.039 A 
ATOM     31  C   UNL     1       9.030   3.011   1.137  0.00  0.00    +0.005 A 
ATOM     32  C   UNL     1       9.906   3.753   1.907  0.00  0.00    +0.020 A 
ATOM     33  C   UNL     1       9.493   4.950   2.463  0.00  0.00    +0.041 A 
ATOM     34  C   UNL     1       8.204   5.404   2.250  0.00  0.00    +0.020 A 
ATOM     35  C   UNL     1       7.330   4.664   1.475  0.00  0.00    +0.005 A 
ATOM     36 CL   UNL     1      10.592   5.883   3.430  0.00  0.00    -0.084 Cl
ENDBRANCH  29  30
ENDBRANCH  11  29
TORSDOF 7
