REMARK  Name = ZINC09339125
REMARK  4 active torsions:
REMARK  status: ('A' for Active; 'I' for Inactive)
REMARK    1  A    between atoms: C_1  and  C_2
REMARK    2  A    between atoms: C_6  and  C_7
REMARK    3  A    between atoms: N_18  and  C_19
REMARK    4  A    between atoms: C_19  and  C_20
REMARK                            x       y       z     vdW  Elec       q    Type
REMARK                         _______ _______ _______ _____ _____    ______ ____
ROOT
ATOM      1  C   UNL     1      -1.670   5.687   0.922  0.00  0.00    +0.200 C 
ATOM      2  N   UNL     1      -0.465   5.332   0.162  0.00  0.00    -0.321 N 
ATOM      3  C   UNL     1      -0.218   3.990  -0.101  0.00  0.00    +0.041 A 
ATOM      4  C   UNL     1       1.067   3.493  -0.235  0.00  0.00    +0.024 A 
ATOM      5  C   UNL     1       1.257   2.148  -0.488  0.00  0.00    +0.002 A 
ATOM      6  C   UNL     1       0.173   1.293  -0.608  0.00  0.00    +0.001 A 
ATOM      7  C   UNL     1      -1.115   1.773  -0.483  0.00  0.00    +0.015 A 
ATOM      8  C   UNL     1      -1.321   3.126  -0.225  0.00  0.00    +0.058 A 
ATOM      9  C   UNL     1      -2.675   3.691  -0.083  0.00  0.00    +0.250 C 
ATOM     10  O   UNL     1      -3.649   3.048  -0.425  0.00  0.00    -0.270 OA
ATOM     11  N   UNL     1      -2.821   4.930   0.432  0.00  0.00    -0.272 N 
ATOM     12  H   UNL     1       0.145   6.019  -0.150  0.00  0.00    +0.148 HD
ENDROOT
BRANCH   1  18
ATOM     13  C   UNL     1      -1.436   7.714   3.218  0.00  0.00    +0.045 C 
ATOM     14  C   UNL     1      -1.340   6.225   3.429  0.00  0.00    -0.037 A 
ATOM     15  C   UNL     1      -1.139   5.707   4.694  0.00  0.00    +0.011 A 
ATOM     16  C   UNL     1      -1.058   4.362   4.849  0.00  0.00    +0.046 A 
ATOM     17  S   UNL     1      -1.276   3.784   3.174  0.00  0.00    -0.098 S 
ATOM     18  C   UNL     1      -1.450   5.374   2.380  0.00  0.00    +0.031 A 
ENDBRANCH   1  18
BRANCH  11  19
ATOM     19  C   UNL     1      -4.157   5.527   0.500  0.00  0.00    +0.141 C 
BRANCH  19  20
ATOM     20  C   UNL     1      -4.753   5.286   1.888  0.00  0.00    +0.136 C 
ATOM     21  C   UNL     1      -6.157   5.934   1.991  0.00  0.00    +0.035 C 
ATOM     22  C   UNL     1      -6.799   5.067   3.110  0.00  0.00    +0.031 C 
ATOM     23  C   UNL     1      -6.172   3.680   2.853  0.00  0.00    +0.160 C 
ATOM     24  O   UNL     1      -4.970   3.882   2.101  0.00  0.00    -0.375 OA
ENDBRANCH  19  20
ENDBRANCH  11  19
TORSDOF 3
