REMARK  Name = ZINC43411136
REMARK  10 active torsions:
REMARK  status: ('A' for Active; 'I' for Inactive)
REMARK    1  A    between atoms: C_1  and  C_2
REMARK    2  A    between atoms: C_2  and  C_3
REMARK    3  A    between atoms: C_2  and  C_4
REMARK    4  A    between atoms: C_2  and  N_18
REMARK    5  A    between atoms: C_4  and  N_5
REMARK    6  A    between atoms: N_5  and  S_6
REMARK    7  A    between atoms: S_6  and  C_9
REMARK    8  A    between atoms: C_10  and  N_17
REMARK    9  A    between atoms: N_18  and  C_19
REMARK   10  A    between atoms: N_18  and  C_20
REMARK                            x       y       z     vdW  Elec       q    Type
REMARK                         _______ _______ _______ _____ _____    ______ ____
ROOT
ATOM      1  S   UNL     1      -3.283  -3.752  -0.261  0.00  0.00    +0.061 S 
ATOM      2  O   UNL     1      -3.150  -5.126  -0.597  0.00  0.00    -0.153 OA
ATOM      3  O   UNL     1      -4.014  -3.313   0.876  0.00  0.00    -0.153 OA
ENDROOT
BRANCH   1   4
ATOM      4  C   UNL     1      -4.002  -2.958  -1.659  0.00  0.00    +0.140 A 
ATOM      5  C   UNL     1      -4.746  -1.797  -1.494  0.00  0.00    +0.053 A 
ATOM      6  C   UNL     1      -5.311  -1.174  -2.599  0.00  0.00    +0.040 A 
ATOM      7  C   UNL     1      -5.132  -1.711  -3.860  0.00  0.00    +0.021 A 
ATOM      8  C   UNL     1      -4.391  -2.868  -4.022  0.00  0.00    +0.032 A 
ATOM      9  C   UNL     1      -3.822  -3.487  -2.923  0.00  0.00    +0.047 A 
ATOM     10 BR   UNL     1      -2.803  -5.064  -3.151  0.00  0.00    -0.048 Br
ATOM     11 BR   UNL     1      -5.901  -0.863  -5.365  0.00  0.00    -0.050 Br
BRANCH   5  12
ATOM     12  N   UNL     1      -4.926  -1.257  -0.218  0.00  0.00    -0.356 N 
ATOM     13  H   UNL     1      -4.278  -1.438   0.481  0.00  0.00    +0.142 HD
ATOM     14  H   UNL     1      -5.699  -0.702  -0.031  0.00  0.00    +0.142 HD
ENDBRANCH   5  12
ENDBRANCH   1   4
BRANCH   1  15
ATOM     15  N   UNL     1      -1.747  -3.155  -0.095  0.00  0.00    -0.191 NA
ATOM     16  H   UNL     1      -0.983  -3.741  -0.212  0.00  0.00    +0.148 HD
BRANCH  15  17
ATOM     17  C   UNL     1      -1.542  -1.741   0.229  0.00  0.00    +0.093 C 
BRANCH  17  19
ATOM     18  C   UNL     1       0.889  -1.849  -0.340  0.00  0.00    -0.009 C 
ATOM     19  C   UNL     1      -0.123  -1.542   0.766  0.00  0.00    -0.058 C 
ATOM     20  C   UNL     1       0.049  -0.093   1.226  0.00  0.00    -0.009 C 
BRANCH  19  21
ATOM     21  N   UNL     1       0.103  -2.446   1.902  0.00  0.00    +0.380 N 
ATOM     22  C   UNL     1       1.473  -2.272   2.401  0.00  0.00    -0.096 C 
ATOM     23  C   UNL     1      -0.853  -2.134   2.973  0.00  0.00    -0.096 C 
ATOM     24  H   UNL     1      -0.028  -3.401   1.602  0.00  0.00    -0.082 HD
ENDBRANCH  19  21
ENDBRANCH  17  19
ENDBRANCH  15  17
ENDBRANCH   1  15
TORSDOF 6
