REMARK  Name = ZINC35851764
REMARK  6 active torsions:
REMARK  status: ('A' for Active; 'I' for Inactive)
REMARK    1  A    between atoms: C_1  and  O_2
REMARK    2  A    between atoms: O_2  and  C_3
REMARK    3  A    between atoms: C_6  and  N_38
REMARK    4  A    between atoms: C_8  and  N_9
REMARK    5  A    between atoms: C_14  and  C_31
REMARK    6  A    between atoms: C_31  and  C_32
REMARK                            x       y       z     vdW  Elec       q    Type
REMARK                         _______ _______ _______ _____ _____    ______ ____
ROOT
ATOM      1  N   UNL     1      -0.072  -2.781  -0.013  0.00  0.00    -0.206 N 
ATOM      2  C   UNL     1       0.575  -3.197   1.116  0.00  0.00    +0.232 C 
ATOM      3  O   UNL     1       0.127  -3.244   2.242  0.00  0.00    -0.274 OA
ATOM      4  C   UNL     1       1.959  -3.587   0.674  0.00  0.00    +0.108 C 
ATOM      5  C   UNL     1       2.589  -4.870   1.229  0.00  0.00    +0.072 C 
ATOM      6  N   UNL     1       3.393  -5.373   0.066  0.00  0.00    -0.295 NA
ATOM      7  C   UNL     1       2.734  -4.871  -1.180  0.00  0.00    +0.136 C 
ATOM      8  C   UNL     1       1.522  -4.168  -0.731  0.00  0.00    +0.123 C 
ATOM      9  C   UNL     1       0.559  -3.182  -1.164  0.00  0.00    +0.233 C 
ATOM     10  O   UNL     1       0.355  -2.794  -2.295  0.00  0.00    -0.274 OA
ATOM     11  C   UNL     1       3.694  -3.985  -1.932  0.00  0.00    +0.003 A 
ATOM     12  C   UNL     1       4.302  -2.786  -1.633  0.00  0.00    +0.008 A 
ATOM     13  C   UNL     1       5.156  -2.196  -2.548  0.00  0.00    +0.000 A 
ATOM     14  C   UNL     1       5.396  -2.813  -3.762  0.00  0.00    +0.002 A 
ATOM     15  C   UNL     1       4.790  -4.015  -4.064  0.00  0.00    +0.023 A 
ATOM     16  C   UNL     1       3.930  -4.616  -3.148  0.00  0.00    +0.039 A 
ATOM     17  N   UNL     1       3.210  -5.809  -3.221  0.00  0.00    -0.283 N 
ATOM     18  C   UNL     1       2.485  -6.034  -2.110  0.00  0.00    +0.243 C 
ATOM     19  O   UNL     1       1.768  -6.989  -1.897  0.00  0.00    -0.273 OA
ATOM     20  H   UNL     1       4.349  -5.056   0.123  0.00  0.00    +0.124 HD
ATOM     21  H   UNL     1       3.230  -6.408  -3.984  0.00  0.00    +0.155 HD
ENDROOT
BRANCH   1  27
ATOM     22  C   UNL     1      -1.201  -0.638   0.010  0.00  0.00    +0.142 A 
ATOM     23  C   UNL     1      -2.374   0.100   0.019  0.00  0.00    +0.050 A 
ATOM     24  C   UNL     1      -3.596  -0.546   0.028  0.00  0.00    +0.036 A 
ATOM     25  C   UNL     1      -3.652  -1.928   0.027  0.00  0.00    +0.128 A 
ATOM     26  C   UNL     1      -2.487  -2.670   0.018  0.00  0.00    +0.060 A 
ATOM     27  C   UNL     1      -1.257  -2.029   0.003  0.00  0.00    +0.088 A 
BRANCH  25  28
ATOM     28  N   UNL     1      -4.964  -2.614   0.036  0.00  0.00    +0.056 N 
ATOM     29  O   UNL     1      -5.985  -1.966   0.045  0.00  0.00    -0.126 OA
ATOM     30  O   UNL     1      -5.015  -3.822   0.036  0.00  0.00    -0.126 OA
ENDBRANCH  25  28
BRANCH  22  32
ATOM     31  C   UNL     1      -0.017   1.425   0.010  0.00  0.00    +0.277 C 
ATOM     32  O   UNL     1       0.002  -0.004   0.002  0.00  0.00    -0.493 OA
ENDBRANCH  22  32
ENDBRANCH   1  27
BRANCH   5  33
ATOM     33  C   UNL     1       1.508  -5.879   1.623  0.00  0.00    +0.054 C 
BRANCH  33  34
ATOM     34  C   UNL     1       2.151  -7.075   2.276  0.00  0.00    -0.046 A 
ATOM     35  C   UNL     1       2.554  -8.149   1.506  0.00  0.00    +0.004 A 
ATOM     36  C   UNL     1       3.144  -9.247   2.105  0.00  0.00    +0.000 A 
ATOM     37  C   UNL     1       3.331  -9.269   3.474  0.00  0.00    +0.000 A 
ATOM     38  C   UNL     1       2.928  -8.194   4.245  0.00  0.00    +0.000 A 
ATOM     39  C   UNL     1       2.342  -7.095   3.645  0.00  0.00    +0.004 A 
ENDBRANCH  33  34
ENDBRANCH   5  33
TORSDOF 5
