REMARK  Name = ZINC11995440
REMARK  8 active torsions:
REMARK  status: ('A' for Active; 'I' for Inactive)
REMARK    1  A    between atoms: C_1  and  C_2
REMARK    2  A    between atoms: C_2  and  C_3
REMARK    3  A    between atoms: C_10  and  C_11
REMARK    4  A    between atoms: C_10  and  N_60
REMARK    5  A    between atoms: C_21  and  C_22
REMARK    6  A    between atoms: C_21  and  N_62
REMARK    7  A    between atoms: C_26  and  O_28
REMARK    8  A    between atoms: O_28  and  C_29
REMARK                            x       y       z     vdW  Elec       q    Type
REMARK                         _______ _______ _______ _____ _____    ______ ____
ROOT
ATOM      1  C   UNL     1       4.557  -0.956  -1.200  0.00  0.00    -0.064 A 
ATOM      2  C   UNL     1       3.959  -2.196  -1.071  0.00  0.00    +0.005 A 
ATOM      3  C   UNL     1       2.583  -2.300  -1.003  0.00  0.00    +0.046 A 
ATOM      4  C   UNL     1       1.802  -1.154  -1.064  0.00  0.00    +0.122 A 
ATOM      5  C   UNL     1       2.405   0.081  -1.212  0.00  0.00    -0.022 A 
ATOM      6  C   UNL     1       3.779   0.187  -1.270  0.00  0.00    +0.007 A 
ATOM      7  C   UNL     1       1.539   1.320  -1.341  0.00  0.00    -0.039 C 
ATOM      8  C   UNL     1      -0.360   0.784   0.085  0.00  0.00    -0.036 C 
ATOM      9  C   UNL     1      -0.123  -0.705   0.225  0.00  0.00    +0.210 C 
ATOM     10  O   UNL     1       0.448  -1.243  -0.974  0.00  0.00    -0.494 OA
ATOM     11  N   UNL     1       0.893   1.559  -0.028  0.00  0.00    +0.387 N 
ATOM     12  H   UNL     1       1.534   1.259   0.715  0.00  0.00    -0.081 HD
ENDROOT
BRANCH   1  13
ATOM     13  C   UNL     1       6.059  -0.848  -1.264  0.00  0.00    -0.042 C 
BRANCH  13  21
ATOM     14  C   UNL     1       6.041   0.286   0.876  0.00  0.00    +0.019 C 
ATOM     15  C   UNL     1       6.495   0.197   2.305  0.00  0.00    +0.199 C 
ATOM     16  O   UNL     1       6.395   1.179   3.009  0.00  0.00    -0.278 OA
ATOM     17  N   UNL     1       7.006  -0.920   2.834  0.00  0.00    -0.318 N 
ATOM     18  C   UNL     1       7.203  -2.145   2.063  0.00  0.00    +0.085 C 
ATOM     19  C   UNL     1       6.359  -2.103   0.788  0.00  0.00    -0.058 C 
ATOM     20  H   UNL     1       7.257  -0.917   3.771  0.00  0.00    +0.149 HD
ATOM     21  N   UNL     1       6.630  -0.823   0.102  0.00  0.00    +0.391 N 
ATOM     22  H   UNL     1       7.645  -0.686   0.037  0.00  0.00    -0.080 HD
BRANCH  14  24
ATOM     23  C   UNL     1       8.038   1.662   0.275  0.00  0.00    +0.002 C 
ATOM     24  C   UNL     1       6.509   1.614   0.276  0.00  0.00    -0.010 C 
ENDBRANCH  14  24
ENDBRANCH  13  21
ENDBRANCH   1  13
BRANCH  11  25
ATOM     25  C   UNL     1       0.609   2.994   0.138  0.00  0.00    -0.042 C 
BRANCH  25  26
ATOM     26  C   UNL     1       0.196   3.238   1.567  0.00  0.00    -0.060 A 
ATOM     27  C   UNL     1      -1.140   3.191   1.917  0.00  0.00    +0.005 A 
ATOM     28  C   UNL     1      -1.523   3.408   3.227  0.00  0.00    +0.042 A 
ATOM     29  C   UNL     1      -0.569   3.685   4.190  0.00  0.00    +0.165 A 
ATOM     30  C   UNL     1       0.774   3.739   3.839  0.00  0.00    +0.155 A 
ATOM     31  C   UNL     1       1.154   3.514   2.524  0.00  0.00    +0.050 A 
ATOM     32  F   UNL     1      -0.942   3.903   5.470  0.00  0.00    -0.202 F 
BRANCH  30  33
ATOM     33  O   UNL     1       1.715   4.010   4.782  0.00  0.00    -0.492 OA
ATOM     34  C   UNL     1       3.076   4.049   4.349  0.00  0.00    +0.277 C 
ENDBRANCH  30  33
ENDBRANCH  25  26
ENDBRANCH  11  25
TORSDOF 6
