REMARK  Name = ZINC57996422
REMARK  7 active torsions:
REMARK  status: ('A' for Active; 'I' for Inactive)
REMARK    1  A    between atoms: C_1  and  C_2
REMARK    2  A    between atoms: N_4  and  C_5
REMARK    3  A    between atoms: C_5  and  C_12
REMARK    4  A    between atoms: N_13  and  O_14
REMARK    5  A    between atoms: O_14  and  C_15
REMARK    6  A    between atoms: C_15  and  C_16
REMARK    7  A    between atoms: N_18  and  C_19
REMARK                            x       y       z     vdW  Elec       q    Type
REMARK                         _______ _______ _______ _____ _____    ______ ____
ROOT
ATOM      1  C   UNL     1       1.285  -2.611  -0.509  0.00  0.00    +0.155 C 
ATOM      2  N   UNL     1       1.221  -3.433   0.485  0.00  0.00    -0.072 NA
ATOM      3  N   UNL     1       2.509  -2.167  -0.958  0.00  0.00    -0.342 N 
ATOM      4  H   UNL     1       2.557  -1.549  -1.704  0.00  0.00    +0.144 HD
ATOM      5  H   UNL     1       3.323  -2.472  -0.528  0.00  0.00    +0.144 HD
ENDROOT
BRANCH   1   6
ATOM      6  C   UNL     1       0.020  -2.136  -1.177  0.00  0.00    +0.093 C 
ATOM      7  C   UNL     1      -1.191  -2.657  -0.376  0.00  0.00    +0.033 C 
ATOM      8  C   UNL     1      -2.385  -1.803  -0.706  0.00  0.00    +0.002 C 
ATOM      9  C   UNL     1      -3.241  -2.401  -1.839  0.00  0.00    +0.000 C 
ATOM     10  C   UNL     1      -2.393  -2.981  -2.986  0.00  0.00    +0.000 C 
ATOM     11  C   UNL     1      -1.221  -2.104  -3.337  0.00  0.00    +0.002 C 
ATOM     12  C   UNL     1       0.013  -2.600  -2.556  0.00  0.00    +0.033 C 
BRANCH   6  16
ATOM     13  C   UNL     1      -0.018   1.503   0.010  0.00  0.00    +0.109 C 
ATOM     14  C   UNL     1       0.002  -0.004   0.002  0.00  0.00    +0.211 C 
ATOM     15  O   UNL     1       0.020  -0.616   1.049  0.00  0.00    -0.276 OA
ATOM     16  N   UNL     1       0.000  -0.672  -1.169  0.00  0.00    -0.303 N 
ATOM     17  H   UNL     1      -0.015  -0.182  -2.006  0.00  0.00    +0.150 HD
ENDBRANCH   6  16
ENDBRANCH   1   6
BRANCH   2  18
ATOM     18  O   UNL     1       2.410  -3.878   1.113  0.00  0.00    -0.383 OA
BRANCH  18  19
ATOM     19  C   UNL     1       2.191  -4.784   2.196  0.00  0.00    +0.358 C 
BRANCH  19  20
ATOM     20  C   UNL     1       3.516  -5.191   2.787  0.00  0.00    +0.254 C 
ATOM     21  O   UNL     1       4.547  -4.748   2.326  0.00  0.00    -0.272 OA
ATOM     22  N   UNL     1       3.556  -6.046   3.828  0.00  0.00    -0.306 N 
ATOM     23  H   UNL     1       2.732  -6.399   4.197  0.00  0.00    +0.149 HD
BRANCH  22  24
ATOM     24  C   UNL     1       4.844  -6.441   4.402  0.00  0.00    +0.104 C 
ATOM     25  C   UNL     1       4.700  -7.806   5.071  0.00  0.00    +0.027 C 
ATOM     26  C   UNL     1       5.988  -8.103   5.849  0.00  0.00    +0.007 C 
ATOM     27  C   UNL     1       6.051  -7.162   7.051  0.00  0.00    +0.035 C 
ATOM     28  C   UNL     1       5.839  -5.735   6.619  0.00  0.00    -0.042 A 
ATOM     29  C   UNL     1       5.280  -5.404   5.405  0.00  0.00    -0.024 A 
ATOM     30  C   UNL     1       5.106  -4.068   5.071  0.00  0.00    +0.006 A 
ATOM     31  C   UNL     1       5.489  -3.071   5.944  0.00  0.00    +0.000 A 
ATOM     32  C   UNL     1       6.053  -3.404   7.161  0.00  0.00    +0.000 A 
ATOM     33  C   UNL     1       6.226  -4.730   7.495  0.00  0.00    +0.004 A 
ENDBRANCH  22  24
ENDBRANCH  19  20
ENDBRANCH  18  19
ENDBRANCH   2  18
TORSDOF 6
