REMARK  Name = ZINC41052829
REMARK  7 active torsions:
REMARK  status: ('A' for Active; 'I' for Inactive)
REMARK    1  A    between atoms: C_1  and  C_2
REMARK    2  A    between atoms: C_3  and  C_8
REMARK    3  A    between atoms: N_6  and  C_7
REMARK    4  A    between atoms: C_10  and  C_13
REMARK    5  A    between atoms: C_13  and  C_14
REMARK    6  A    between atoms: C_13  and  C_15
REMARK    7  A    between atoms: C_13  and  N_16
REMARK                            x       y       z     vdW  Elec       q    Type
REMARK                         _______ _______ _______ _____ _____    ______ ____
ROOT
ATOM      1  C   UNL     1      -0.005  -0.367  -2.521  0.00  0.00    +0.262 A 
ATOM      2  N   UNL     1      -0.004  -1.147  -3.580  0.00  0.00    -0.193 NA
ATOM      3  C   UNL     1      -0.018  -0.407  -4.691  0.00  0.00    +0.160 A 
ATOM      4  N   UNL     1      -0.027   0.854  -4.363  0.00  0.00    -0.062 NA
ATOM      5  O   UNL     1      -0.025   0.909  -2.945  0.00  0.00    -0.333 OA
ENDROOT
BRANCH   1   8
ATOM      6  C   UNL     1      -0.018   1.503   0.010  0.00  0.00    +0.066 C 
ATOM      7  C   UNL     1       0.002  -0.004   0.002  0.00  0.00    +0.048 A 
ATOM      8  C   UNL     1       0.008  -0.814  -1.114  0.00  0.00    +0.080 A 
ATOM      9  C   UNL     1       0.028  -2.151  -0.660  0.00  0.00    +0.148 A 
ATOM     10  N   UNL     1       0.034  -2.135   0.645  0.00  0.00    -0.179 NA
ATOM     11  N   UNL     1       0.024  -0.806   1.081  0.00  0.00    -0.271 N 
ATOM     12  C   UNL     1       0.032  -0.363   2.478  0.00  0.00    +0.172 C 
ENDBRANCH   1   8
BRANCH   3  13
ATOM     13  C   UNL     1      -0.021  -0.944  -6.099  0.00  0.00    -0.012 C 
ATOM     14  C   UNL     1      -0.038   0.222  -7.089  0.00  0.00    -0.003 C 
ATOM     15  C   UNL     1       1.235  -1.788  -6.326  0.00  0.00    -0.003 C 
BRANCH  13  16
ATOM     16  N   UNL     1      -1.214  -1.777  -6.302  0.00  0.00    +0.386 N 
ATOM     17  H   UNL     1      -2.042  -1.220  -6.153  0.00  0.00    -0.089 HD
ATOM     18  H   UNL     1      -1.216  -2.136  -7.245  0.00  0.00    -0.089 HD
ATOM     19  H   UNL     1      -1.203  -2.546  -5.649  0.00  0.00    -0.089 HD
ENDBRANCH  13  16
ENDBRANCH   3  13
TORSDOF 3
