REMARK  Name = ZINC08583283
REMARK  15 active torsions:
REMARK  status: ('A' for Active; 'I' for Inactive)
REMARK    1  A    between atoms: C_1  and  C_2
REMARK    2  A    between atoms: C_2  and  C_3
REMARK    3  A    between atoms: C_2  and  O_4
REMARK    4  A    between atoms: O_4  and  C_5
REMARK    5  A    between atoms: C_8  and  C_13
REMARK    6  A    between atoms: C_10  and  O_11
REMARK    7  A    between atoms: O_11  and  C_12
REMARK    8  A    between atoms: N_17  and  C_34
REMARK    9  A    between atoms: N_21  and  C_22
REMARK   10  A    between atoms: C_22  and  C_23
REMARK   11  A    between atoms: C_23  and  C_24
REMARK   12  A    between atoms: C_27  and  O_32
REMARK   13  A    between atoms: C_28  and  O_30
REMARK   14  A    between atoms: O_30  and  C_31
REMARK   15  A    between atoms: O_32  and  C_33
REMARK                            x       y       z     vdW  Elec       q    Type
REMARK                         _______ _______ _______ _____ _____    ______ ____
ROOT
ATOM      1  C   UNL     1      -2.336  -5.229  -2.885  0.00  0.00    +0.193 C 
ATOM      2  C   UNL     1      -2.366  -4.910  -4.350  0.00  0.00    +0.241 C 
ATOM      3  O   UNL     1      -3.371  -4.417  -4.817  0.00  0.00    -0.273 OA
ATOM      4  N   UNL     1      -1.331  -5.147  -5.162  0.00  0.00    -0.288 N 
ATOM      5  C   UNL     1      -0.082  -5.735  -4.699  0.00  0.00    +0.204 C 
ATOM      6  C   UNL     1      -0.265  -6.444  -3.391  0.00  0.00    +0.234 C 
ATOM      7  O   UNL     1       0.557  -7.271  -3.058  0.00  0.00    -0.274 OA
ATOM      8  N   UNL     1      -1.297  -6.203  -2.578  0.00  0.00    -0.284 N 
ENDROOT
BRANCH   4   9
ATOM      9  C   UNL     1      -1.460  -4.802  -6.580  0.00  0.00    +0.077 C 
ATOM     10  C   UNL     1      -1.656  -3.278  -6.707  0.00  0.00    +0.022 C 
ATOM     11  C   UNL     1      -1.282  -2.863  -8.104  0.00  0.00    +0.002 C 
ATOM     12  C   UNL     1      -2.498  -2.809  -9.049  0.00  0.00    +0.000 C 
ATOM     13  C   UNL     1      -3.461  -3.995  -8.851  0.00  0.00    +0.000 C 
ATOM     14  C   UNL     1      -2.736  -5.300  -8.662  0.00  0.00    +0.002 C 
ATOM     15  C   UNL     1      -2.569  -5.554  -7.149  0.00  0.00    +0.022 C 
ENDBRANCH   4   9
BRANCH   1  19
ATOM     16  C   UNL     1      -1.580  -1.640  -0.687  0.00  0.00    +0.162 A 
ATOM     17  C   UNL     1      -0.532  -2.329  -1.276  0.00  0.00    +0.050 A 
ATOM     18  C   UNL     1      -0.780  -3.489  -1.986  0.00  0.00    +0.010 A 
ATOM     19  C   UNL     1      -2.072  -3.964  -2.110  0.00  0.00    -0.015 A 
ATOM     20  C   UNL     1      -3.122  -3.282  -1.525  0.00  0.00    +0.055 A 
ATOM     21  C   UNL     1      -2.880  -2.122  -0.807  0.00  0.00    +0.162 A 
BRANCH  21  22
ATOM     22  O   UNL     1      -3.912  -1.452  -0.226  0.00  0.00    -0.491 OA
ATOM     23  C   UNL     1      -5.219  -2.005  -0.391  0.00  0.00    +0.277 C 
ENDBRANCH  21  22
BRANCH  16  24
ATOM     24  O   UNL     1      -1.339  -0.499   0.012  0.00  0.00    -0.486 OA
BRANCH  24  26
ATOM     25  C   UNL     1      -0.011   1.505   0.263  0.00  0.00    +0.051 C 
ATOM     26  C   UNL     1       0.001  -0.002  -0.000  0.00  0.00    +0.167 C 
ATOM     27  C   UNL     1       0.815  -0.703   1.089  0.00  0.00    +0.051 C 
ENDBRANCH  24  26
ENDBRANCH  16  24
ENDBRANCH   1  19
BRANCH   8  28
ATOM     28  C   UNL     1      -1.387  -6.951  -1.322  0.00  0.00    +0.113 C 
BRANCH  28  29
ATOM     29  C   UNL     1      -2.183  -8.237  -1.550  0.00  0.00    +0.054 C 
BRANCH  29  30
ATOM     30  C   UNL     1      -2.275  -9.007  -0.257  0.00  0.00    -0.042 A 
ATOM     31  C   UNL     1      -1.301  -9.933   0.065  0.00  0.00    +0.007 A 
ATOM     32  C   UNL     1      -1.381 -10.642   1.249  0.00  0.00    +0.049 A 
ATOM     33  C   UNL     1      -2.439 -10.423   2.117  0.00  0.00    +0.161 A 
ATOM     34  C   UNL     1      -3.419  -9.490   1.793  0.00  0.00    +0.162 A 
ATOM     35  C   UNL     1      -3.330  -8.780   0.606  0.00  0.00    +0.053 A 
BRANCH  34  36
ATOM     36  O   UNL     1      -4.460  -9.272   2.641  0.00  0.00    -0.491 OA
ATOM     37  C   UNL     1      -5.428  -8.300   2.244  0.00  0.00    +0.277 C 
ENDBRANCH  34  36
BRANCH  33  38
ATOM     38  O   UNL     1      -2.520 -11.119   3.283  0.00  0.00    -0.491 OA
ATOM     39  C   UNL     1      -1.478 -12.061   3.549  0.00  0.00    +0.277 C 
ENDBRANCH  33  38
ENDBRANCH  29  30
ENDBRANCH  28  29
ENDBRANCH   8  28
TORSDOF 10
