REMARK  Name = ZINC47169035
REMARK  9 active torsions:
REMARK  status: ('A' for Active; 'I' for Inactive)
REMARK    1  A    between atoms: C_1  and  C_2
REMARK    2  A    between atoms: C_5  and  C_29
REMARK    3  A    between atoms: C_6  and  C_8
REMARK    4  A    between atoms: C_8  and  C_10
REMARK    5  A    between atoms: C_10  and  C_11
REMARK    6  A    between atoms: C_11  and  C_12
REMARK    7  A    between atoms: N_14  and  C_15
REMARK    8  A    between atoms: C_19  and  C_21
REMARK    9  A    between atoms: C_21  and  C_28
REMARK                            x       y       z     vdW  Elec       q    Type
REMARK                         _______ _______ _______ _____ _____    ______ ____
ROOT
ATOM      1  C   UNL     1       1.228  -0.951   5.342  0.00  0.00    +0.218 C 
ATOM      2  O   UNL     1       1.315   0.225   5.056  0.00  0.00    -0.275 OA
ATOM      3  N   UNL     1       1.285  -1.336   6.632  0.00  0.00    -0.285 N 
ATOM      4  H   UNL     1       1.285  -2.280   6.857  0.00  0.00    +0.155 HD
ENDROOT
BRANCH   3   5
ATOM      5  C   UNL     1       1.345  -0.375   7.647  0.00  0.00    +0.034 A 
ATOM      6  C   UNL     1       0.693   0.842   7.493  0.00  0.00    +0.023 A 
ATOM      7  C   UNL     1       0.754   1.788   8.497  0.00  0.00    +0.002 A 
ATOM      8  C   UNL     1       1.463   1.525   9.655  0.00  0.00    +0.006 A 
ATOM      9  C   UNL     1       2.113   0.315   9.812  0.00  0.00    -0.014 A 
ATOM     10  C   UNL     1       2.050  -0.639   8.814  0.00  0.00    +0.029 A 
BRANCH   9  11
ATOM     11  C   UNL     1       2.884   0.033  11.075  0.00  0.00    +0.135 C 
ATOM     12  C   UNL     1       4.366  -0.090  10.779  0.00  0.00    +0.248 C 
ATOM     13  O   UNL     1       4.904  -0.904  10.060  0.00  0.00    -0.273 OA
ATOM     14  N   UNL     1       4.960   0.895  11.481  0.00  0.00    -0.238 N 
ATOM     15  C   UNL     1       4.069   1.616  12.172  0.00  0.00    +0.307 C 
ATOM     16  O   UNL     1       4.365   2.558  12.880  0.00  0.00    -0.252 OA
ATOM     17  N   UNL     1       2.809   1.180  11.996  0.00  0.00    -0.282 N 
ATOM     18  C   UNL     1       2.361  -1.236  11.752  0.00  0.00    +0.047 C 
ATOM     19  H   UNL     1       5.916   1.062  11.485  0.00  0.00    +0.159 HD
ATOM     20  H   UNL     1       2.006   1.550  12.397  0.00  0.00    +0.152 HD
ENDBRANCH   9  11
ENDBRANCH   3   5
BRANCH   1  21
ATOM     21  C   UNL     1       1.056  -1.980   4.255  0.00  0.00    +0.104 C 
BRANCH  21  22
ATOM     22  C   UNL     1       1.022  -1.283   2.893  0.00  0.00    +0.089 C 
BRANCH  22  23
ATOM     23  C   UNL     1       0.850  -2.312   1.806  0.00  0.00    +0.164 C 
ATOM     24  O   UNL     1       0.762  -3.487   2.092  0.00  0.00    -0.292 OA
BRANCH  23  30
ATOM     25  C   UNL     1       1.174   1.276  -1.641  0.00  0.00    +0.044 C 
ATOM     26  C   UNL     1       0.942  -0.166  -1.268  0.00  0.00    -0.050 A 
ATOM     27  C   UNL     1       0.668  -1.098  -2.254  0.00  0.00    +0.003 A 
ATOM     28  C   UNL     1       0.454  -2.424  -1.922  0.00  0.00    +0.004 A 
ATOM     29  C   UNL     1       0.511  -2.827  -0.604  0.00  0.00    -0.040 A 
ATOM     30  C   UNL     1       0.787  -1.891   0.397  0.00  0.00    +0.021 A 
ATOM     31  C   UNL     1       1.009  -0.554   0.053  0.00  0.00    +0.015 A 
ATOM     32  C   UNL     1       0.276  -4.271  -0.245  0.00  0.00    +0.044 C 
ENDBRANCH  23  30
ENDBRANCH  22  23
ENDBRANCH  21  22
ENDBRANCH   1  21
TORSDOF 6
