REMARK  Name = ZINC20713156
REMARK  8 active torsions:
REMARK  status: ('A' for Active; 'I' for Inactive)
REMARK    1  A    between atoms: C_1  and  C_2
REMARK    2  A    between atoms: C_2  and  C_3
REMARK    3  A    between atoms: C_2  and  C_4
REMARK    4  A    between atoms: C_2  and  N_5
REMARK    5  A    between atoms: N_5  and  S_6
REMARK    6  A    between atoms: S_6  and  C_9
REMARK    7  A    between atoms: C_22  and  C_25
REMARK    8  A    between atoms: C_30  and  N_31
REMARK                            x       y       z     vdW  Elec       q    Type
REMARK                         _______ _______ _______ _____ _____    ______ ____
ROOT
ATOM      1  C   UNL     1      -1.239   2.124   1.310  0.00  0.00    +0.106 A 
ATOM      2  C   UNL     1      -0.723   3.332   1.744  0.00  0.00    +0.030 A 
ATOM      3  C   UNL     1      -1.297   3.986   2.814  0.00  0.00    +0.025 A 
ATOM      4  C   UNL     1      -2.392   3.434   3.469  0.00  0.00    +0.031 A 
ATOM      5  C   UNL     1      -2.914   2.217   3.018  0.00  0.00    -0.018 A 
ATOM      6  C   UNL     1      -2.332   1.570   1.950  0.00  0.00    +0.034 A 
ATOM      7  C   UNL     1      -4.105   1.686   3.715  0.00  0.00    +0.049 C 
ATOM      8  C   UNL     1      -4.446   0.231   3.753  0.00  0.00    -0.023 C 
ATOM      9  C   UNL     1      -5.046  -0.047   4.905  0.00  0.00    -0.030 C 
ATOM     10  C   UNL     1      -5.153   1.219   5.758  0.00  0.00    +0.033 C 
ATOM     11  C   UNL     1      -3.978   2.050   5.225  0.00  0.00    +0.029 C 
ATOM     12  C   UNL     1      -4.113   3.561   5.290  0.00  0.00    +0.107 C 
ATOM     13  N   UNL     1      -2.934   4.098   4.576  0.00  0.00    -0.336 N 
ATOM     14  H   UNL     1      -2.466   5.035   4.913  0.00  0.00    +0.147 HD
ENDROOT
BRANCH  12  15
ATOM     15  C   UNL     1      -4.107   4.022   6.725  0.00  0.00    +0.003 A 
ATOM     16  C   UNL     1      -3.723   3.153   7.729  0.00  0.00    +0.008 A 
ATOM     17  C   UNL     1      -3.717   3.577   9.045  0.00  0.00    +0.000 A 
ATOM     18  C   UNL     1      -4.096   4.869   9.356  0.00  0.00    +0.002 A 
ATOM     19  C   UNL     1      -4.481   5.738   8.352  0.00  0.00    +0.033 A 
ATOM     20  C   UNL     1      -4.481   5.316   7.036  0.00  0.00    +0.131 A 
BRANCH  20  21
ATOM     21  N   UNL     1      -4.887   6.248   5.960  0.00  0.00    +0.057 N 
ATOM     22  O   UNL     1      -5.133   7.412   6.223  0.00  0.00    -0.126 OA
ATOM     23  O   UNL     1      -4.975   5.852   4.812  0.00  0.00    -0.126 OA
ENDBRANCH  20  21
ENDBRANCH  12  15
BRANCH   1  24
ATOM     24  S   UNL     1      -0.500   1.290  -0.055  0.00  0.00    +0.059 S 
ATOM     25  O   UNL     1      -0.502  -0.095   0.266  0.00  0.00    -0.153 OA
ATOM     26  O   UNL     1       0.693   1.997  -0.366  0.00  0.00    -0.153 OA
BRANCH  24  27
ATOM     27  N   UNL     1      -1.513   1.477  -1.351  0.00  0.00    -0.185 NA
ATOM     28  H   UNL     1      -2.183   0.651  -1.633  0.00  0.00    +0.149 HD
BRANCH  27  30
ATOM     29  C   UNL     1      -0.351   3.220  -2.613  0.00  0.00    +0.029 C 
ATOM     30  C   UNL     1      -1.673   2.794  -1.971  0.00  0.00    +0.032 C 
ATOM     31  C   UNL     1      -2.761   2.724  -3.045  0.00  0.00    +0.029 C 
ATOM     32  C   UNL     1      -2.074   3.815  -0.905  0.00  0.00    +0.029 C 
ENDBRANCH  27  30
ENDBRANCH  24  27
ENDBRANCH   1  24
TORSDOF 5
