REMARK  Name = ZINC39659323
REMARK  9 active torsions:
REMARK  status: ('A' for Active; 'I' for Inactive)
REMARK    1  A    between atoms: C_1  and  C_2
REMARK    2  A    between atoms: C_2  and  O_3
REMARK    3  A    between atoms: O_3  and  C_4
REMARK    4  A    between atoms: C_9  and  C_10
REMARK    5  A    between atoms: C_14  and  C_23
REMARK    6  A    between atoms: N_25  and  C_26
REMARK    7  A    between atoms: C_26  and  C_27
REMARK    8  A    between atoms: C_31  and  C_33
REMARK    9  A    between atoms: C_31  and  C_34
REMARK                            x       y       z     vdW  Elec       q    Type
REMARK                         _______ _______ _______ _____ _____    ______ ____
ROOT
ATOM      1  C   UNL     1       2.216  -1.214   3.525  0.00  0.00    +0.250 C 
ATOM      2  O   UNL     1       2.274  -0.003   3.433  0.00  0.00    -0.270 OA
ATOM      3  N   UNL     1       2.710  -1.831   4.617  0.00  0.00    -0.296 N 
ATOM      4  C   UNL     1       2.828  -3.288   4.862  0.00  0.00    +0.121 C 
ATOM      5  C   UNL     1       4.189  -3.455   5.574  0.00  0.00    +0.100 C 
ATOM      6  C   UNL     1       4.466  -2.086   6.218  0.00  0.00    -0.004 C 
ATOM      7  C   UNL     1       3.266  -1.205   5.840  0.00  0.00    +0.115 C 
ATOM      8  C   UNL     1       5.750  -1.487   5.653  0.00  0.00    -0.010 C 
ATOM      9  C   UNL     1       6.035  -0.153   6.350  0.00  0.00    -0.082 C 
ATOM     10  N   UNL     1       6.167  -0.372   7.795  0.00  0.00    +0.379 N 
ATOM     11  C   UNL     1       4.897  -0.861   8.346  0.00  0.00    -0.082 C 
ATOM     12  C   UNL     1       4.565  -2.225   7.734  0.00  0.00    -0.010 C 
ATOM     13  H   UNL     1       6.891  -1.054   7.966  0.00  0.00    -0.086 HD
ATOM     14  H   UNL     1       6.415   0.496   8.244  0.00  0.00    -0.086 HD
ENDROOT
BRANCH   1  20
ATOM     15  C   UNL     1       1.726  -1.594   1.109  0.00  0.00    +0.133 A 
ATOM     16  C   UNL     1       1.152  -2.352   0.099  0.00  0.00    +0.046 A 
ATOM     17  C   UNL     1       0.458  -3.504   0.408  0.00  0.00    +0.004 A 
ATOM     18  C   UNL     1       0.329  -3.914   1.726  0.00  0.00    +0.001 A 
ATOM     19  C   UNL     1       0.894  -3.174   2.741  0.00  0.00    +0.017 A 
ATOM     20  C   UNL     1       1.604  -2.008   2.443  0.00  0.00    +0.078 A 
BRANCH  15  21
ATOM     21  O   UNL     1       2.408  -0.461   0.808  0.00  0.00    -0.491 OA
BRANCH  21  23
ATOM     22  C   UNL     1       3.292   1.194  -0.716  0.00  0.00    +0.048 C 
ATOM     23  C   UNL     1       2.491  -0.102  -0.573  0.00  0.00    +0.226 C 
ENDBRANCH  21  23
ENDBRANCH  15  21
ENDBRANCH   1  20
BRANCH   5  24
ATOM     24  C   UNL     1       5.265  -3.796   4.576  0.00  0.00    +0.218 C 
ATOM     25  O   UNL     1       5.184  -3.393   3.435  0.00  0.00    -0.275 OA
ATOM     26  N   UNL     1       6.319  -4.548   4.952  0.00  0.00    -0.312 N 
ATOM     27  H   UNL     1       6.383  -4.871   5.864  0.00  0.00    +0.149 HD
BRANCH  26  28
ATOM     28  C   UNL     1       7.365  -4.880   3.981  0.00  0.00    +0.138 C 
BRANCH  28  29
ATOM     29  C   UNL     1       8.436  -5.737   4.659  0.00  0.00    +0.164 C 
ATOM     30  C   UNL     1       9.588  -6.054   3.673  0.00  0.00    +0.196 C 
ATOM     31  O   UNL     1      10.700  -6.263   4.577  0.00  0.00    -0.347 OA
ATOM     32  C   UNL     1      10.492  -5.317   5.640  0.00  0.00    +0.165 C 
ATOM     33  O   UNL     1       9.093  -4.996   5.707  0.00  0.00    -0.342 OA
ATOM     34  C   UNL     1      11.301  -4.048   5.365  0.00  0.00    +0.074 C 
ATOM     35  C   UNL     1      10.939  -5.931   6.968  0.00  0.00    +0.074 C 
ENDBRANCH  28  29
ENDBRANCH  26  28
ENDBRANCH   5  24
TORSDOF 6
