REMARK  Name = ZINC08655160
REMARK  3 active torsions:
REMARK  status: ('A' for Active; 'I' for Inactive)
REMARK    1  A    between atoms: N_10  and  C_11
REMARK    2  A    between atoms: C_16  and  C_19
REMARK    3  A    between atoms: C_19  and  O_20
REMARK                            x       y       z     vdW  Elec       q    Type
REMARK                         _______ _______ _______ _____ _____    ______ ____
ROOT
ATOM      1  C   UNL     1       1.414   8.649  -3.926  0.00  0.00    +0.201 A 
ATOM      2  N   UNL     1       1.366   7.606  -3.079  0.00  0.00    -0.218 NA
ATOM      3  C   UNL     1       1.141   6.339  -3.541  0.00  0.00    +0.169 A 
ATOM      4  C   UNL     1       0.962   6.147  -4.908  0.00  0.00    +0.172 A 
ATOM      5  C   UNL     1       1.025   7.322  -5.779  0.00  0.00    +0.279 A 
ATOM      6  O   UNL     1       0.875   7.216  -6.986  0.00  0.00    -0.265 OA
ATOM      7  N   UNL     1       1.253   8.524  -5.215  0.00  0.00    -0.312 N 
ATOM      8  N   UNL     1       0.758   4.824  -5.107  0.00  0.00    -0.229 NA
ATOM      9  C   UNL     1       0.807   4.208  -3.961  0.00  0.00    +0.203 A 
ATOM     10  N   UNL     1       1.037   5.110  -2.965  0.00  0.00    -0.285 N 
ATOM     11  H   UNL     1       1.302   9.410  -5.864  0.00  0.00    +0.170 HD
ENDROOT
BRANCH  10  12
ATOM     12  C   UNL     1       1.157   4.811  -1.536  0.00  0.00    +0.256 C 
ATOM     13  C   UNL     1       2.644   4.627  -1.140  0.00  0.00    +0.218 C 
ATOM     14  C   UNL     1       2.535   3.740   0.124  0.00  0.00    +0.075 C 
ATOM     15  C   UNL     1       1.145   3.085   0.008  0.00  0.00    +0.149 C 
ATOM     16  O   UNL     1       0.566   3.530  -1.230  0.00  0.00    -0.348 OA
ATOM     17  F   UNL     1       3.353   3.970  -2.151  0.00  0.00    -0.241 F 
BRANCH  15  18
ATOM     18  C   UNL     1       1.286   1.562  -0.002  0.00  0.00    +0.187 C 
BRANCH  18  19
ATOM     19  O   UNL     1      -0.011   0.963   0.007  0.00  0.00    -0.392 OA
ATOM     20  H   UNL     1      -0.111  -0.133   0.002  0.00  0.00    +0.210 HD
ENDBRANCH  18  19
ENDBRANCH  15  18
ENDBRANCH  10  12
TORSDOF 3
