REMARK  Name = ZINC57607928
REMARK  10 active torsions:
REMARK  status: ('A' for Active; 'I' for Inactive)
REMARK    1  A    between atoms: C_1  and  C_2
REMARK    2  A    between atoms: C_2  and  O_3
REMARK    3  A    between atoms: O_3  and  C_4
REMARK    4  A    between atoms: C_11  and  C_16
REMARK    5  A    between atoms: C_16  and  N_17
REMARK    6  A    between atoms: N_17  and  C_18
REMARK    7  A    between atoms: N_17  and  C_29
REMARK    8  A    between atoms: C_18  and  C_19
REMARK    9  A    between atoms: N_23  and  C_24
REMARK   10  A    between atoms: C_29  and  C_30
REMARK                            x       y       z     vdW  Elec       q    Type
REMARK                         _______ _______ _______ _____ _____    ______ ____
ROOT
ATOM      1  N   UNL     1      -5.951  -6.560  -1.548  0.00  0.00    -0.288 NA
ENDROOT
BRANCH   1   2
ATOM      2  C   UNL     1      -5.435  -6.216  -0.217  0.00  0.00    +0.125 C 
BRANCH   2  10
ATOM      3  C   UNL     1      -0.550  -2.438  -0.757  0.00  0.00    +0.121 A 
ATOM      4  C   UNL     1       0.417  -3.442  -0.748  0.00  0.00    +0.047 A 
ATOM      5  C   UNL     1       0.053  -4.765  -0.639  0.00  0.00    +0.030 A 
ATOM      6  C   UNL     1      -1.290  -5.111  -0.537  0.00  0.00    +0.049 A 
ATOM      7  C   UNL     1      -2.270  -4.101  -0.546  0.00  0.00    +0.002 A 
ATOM      8  C   UNL     1      -1.888  -2.759  -0.651  0.00  0.00    +0.055 A 
ATOM      9  C   UNL     1      -3.681  -4.479  -0.437  0.00  0.00    +0.020 A 
ATOM     10  C   UNL     1      -3.993  -5.794  -0.331  0.00  0.00    +0.031 A 
ATOM     11  C   UNL     1      -2.973  -6.769  -0.327  0.00  0.00    +0.254 A 
ATOM     12  O   UNL     1      -3.275  -7.945  -0.230  0.00  0.00    -0.268 OA
ATOM     13  N   UNL     1      -1.675  -6.432  -0.426  0.00  0.00    -0.322 N 
ATOM     14  H   UNL     1      -0.999  -7.127  -0.420  0.00  0.00    +0.169 HD
BRANCH   3  15
ATOM     15  O   UNL     1      -0.173  -1.137  -0.866  0.00  0.00    -0.492 OA
BRANCH  15  17
ATOM     16  C   UNL     1       1.456   0.635  -1.084  0.00  0.00    +0.048 C 
ATOM     17  C   UNL     1       1.228  -0.874  -0.972  0.00  0.00    +0.225 C 
ENDBRANCH  15  17
ENDBRANCH   3  15
ENDBRANCH   2  10
ENDBRANCH   1   2
BRANCH   1  18
ATOM     18  C   UNL     1      -7.408  -6.747  -1.516  0.00  0.00    +0.162 C 
BRANCH  18  19
ATOM     19  C   UNL     1      -8.076  -5.436  -1.190  0.00  0.00    +0.166 A 
ATOM     20  N   UNL     1      -8.348  -4.973   0.005  0.00  0.00    -0.112 NA
ATOM     21  N   UNL     1      -8.918  -3.825  -0.133  0.00  0.00    -0.023 NA
ATOM     22  N   UNL     1      -9.015  -3.545  -1.385  0.00  0.00    -0.044 NA
ATOM     23  N   UNL     1      -8.503  -4.511  -2.069  0.00  0.00    -0.225 N 
BRANCH  23  24
ATOM     24  C   UNL     1      -8.406  -4.588  -3.529  0.00  0.00    +0.111 C 
ATOM     25  C   UNL     1      -7.739  -3.312  -4.083  0.00  0.00    +0.027 C 
ATOM     26  C   UNL     1      -8.493  -3.034  -5.407  0.00  0.00    +0.002 C 
ATOM     27  C   UNL     1      -9.953  -3.413  -5.056  0.00  0.00    +0.002 C 
ATOM     28  C   UNL     1      -9.813  -4.652  -4.148  0.00  0.00    +0.027 C 
ENDBRANCH  23  24
ENDBRANCH  18  19
ENDBRANCH   1  18
BRANCH   1  29
ATOM     29  C   UNL     1      -5.279  -7.752  -2.082  0.00  0.00    +0.116 C 
BRANCH  29  30
ATOM     30  C   UNL     1      -5.520  -7.841  -3.590  0.00  0.00    +0.132 C 
ATOM     31  C   UNL     1      -4.754  -9.049  -4.186  0.00  0.00    +0.035 C 
ATOM     32  C   UNL     1      -5.600  -9.337  -5.457  0.00  0.00    +0.031 C 
ATOM     33  C   UNL     1      -7.027  -8.980  -4.988  0.00  0.00    +0.160 C 
ATOM     34  O   UNL     1      -6.906  -8.104  -3.859  0.00  0.00    -0.375 OA
ENDBRANCH  29  30
ENDBRANCH   1  29
TORSDOF 9
