REMARK  Name = ZINC41595713
REMARK  6 active torsions:
REMARK  status: ('A' for Active; 'I' for Inactive)
REMARK    1  A    between atoms: C_1  and  C_2
REMARK    2  A    between atoms: C_2  and  C_3
REMARK    3  A    between atoms: C_2  and  S_4
REMARK    4  A    between atoms: S_4  and  C_5
REMARK    5  A    between atoms: C_5  and  C_6
REMARK    6  A    between atoms: N_14  and  C_15
REMARK                            x       y       z     vdW  Elec       q    Type
REMARK                         _______ _______ _______ _____ _____    ______ ____
ROOT
ATOM      1  C   UNL     1       2.926  -0.599  -2.738  0.00  0.00    +0.060 A 
ATOM      2  C   UNL     1       3.284   0.333  -3.668  0.00  0.00    +0.094 A 
ATOM      3  C   UNL     1       4.215  -0.020  -4.661  0.00  0.00    +0.253 A 
ATOM      4  O   UNL     1       4.559   0.789  -5.508  0.00  0.00    -0.268 OA
ATOM      5  N   UNL     1       4.723  -1.271  -4.659  0.00  0.00    -0.295 N 
ATOM      6  H   UNL     1       5.366  -1.536  -5.335  0.00  0.00    +0.172 HD
ATOM      7  C   UNL     1       4.328  -2.159  -3.707  0.00  0.00    +0.200 A 
ATOM      8  N   UNL     1       3.458  -1.819  -2.776  0.00  0.00    -0.220 NA
ATOM      9  N   UNL     1       4.847  -3.427  -3.712  0.00  0.00    -0.285 N 
ATOM     10  H   UNL     1       5.424  -3.712  -4.437  0.00  0.00    +0.155 HD
ENDROOT
BRANCH   9  11
ATOM     11  C   UNL     1       4.545  -4.311  -2.670  0.00  0.00    +0.035 A 
ATOM     12  C   UNL     1       4.427  -5.671  -2.924  0.00  0.00    +0.023 A 
ATOM     13  C   UNL     1       4.129  -6.541  -1.893  0.00  0.00    +0.003 A 
ATOM     14  C   UNL     1       3.947  -6.059  -0.610  0.00  0.00    +0.015 A 
ATOM     15  C   UNL     1       4.063  -4.705  -0.354  0.00  0.00    +0.020 A 
ATOM     16  C   UNL     1       4.368  -3.830  -1.379  0.00  0.00    +0.038 A 
ATOM     17 BR   UNL     1       3.813  -4.051   1.403  0.00  0.00    -0.050 Br
ENDBRANCH   9  11
BRANCH   1  18
ATOM     18  C   UNL     1       1.931  -0.246  -1.663  0.00  0.00    +0.125 C 
BRANCH  18  19
ATOM     19  S   UNL     1       0.334  -1.020  -2.039  0.00  0.00    -0.152 S 
BRANCH  19  21
ATOM     20  C   UNL     1      -0.930   1.013  -0.717  0.00  0.00    +0.018 C 
ATOM     21  C   UNL     1      -0.738  -0.504  -0.670  0.00  0.00    +0.041 C 
ATOM     22  C   UNL     1      -2.096  -1.196  -0.797  0.00  0.00    +0.018 C 
ENDBRANCH  19  21
ENDBRANCH  18  19
ENDBRANCH   1  18
TORSDOF 4
