REMARK  Name = ZINC51587893
REMARK  5 active torsions:
REMARK  status: ('A' for Active; 'I' for Inactive)
REMARK    1  A    between atoms: C_4  and  S_20
REMARK    2  A    between atoms: C_5  and  N_7
REMARK    3  A    between atoms: C_14  and  C_17
REMARK    4  A    between atoms: S_20  and  C_21
REMARK    5  A    between atoms: C_21  and  C_23
REMARK                            x       y       z     vdW  Elec       q    Type
REMARK                         _______ _______ _______ _____ _____    ______ ____
ROOT
ATOM      1  N   UNL     1       0.831  -2.141   0.186  0.00  0.00    -0.268 N 
ATOM      2  C   UNL     1      -0.439  -2.593   0.171  0.00  0.00    +0.307 C 
ATOM      3  O   UNL     1      -1.359  -1.814   0.016  0.00  0.00    -0.252 OA
ATOM      4  N   UNL     1      -0.688  -3.908   0.327  0.00  0.00    -0.280 N 
ATOM      5  C   UNL     1       0.412  -4.882   0.414  0.00  0.00    +0.137 C 
ATOM      6  C   UNL     1       0.135  -6.015  -0.581  0.00  0.00    +0.180 C 
ATOM      7  O   UNL     1      -1.183  -6.524  -0.359  0.00  0.00    -0.364 OA
ATOM      8  C   UNL     1      -2.224  -5.569  -0.580  0.00  0.00    +0.221 C 
ATOM      9  C   UNL     1      -2.067  -4.412   0.420  0.00  0.00    +0.150 C 
ATOM     10  H   UNL     1       1.569  -2.769   0.239  0.00  0.00    +0.156 HD
ENDROOT
BRANCH   1  15
ATOM     11  C   UNL     1       0.337   1.501   0.373  0.00  0.00    +0.002 A 
ATOM     12  C   UNL     1       1.588   1.959   0.003  0.00  0.00    +0.001 A 
ATOM     13  C   UNL     1       2.593   1.063  -0.307  0.00  0.00    +0.016 A 
ATOM     14  C   UNL     1       2.348  -0.302  -0.248  0.00  0.00    +0.031 A 
ATOM     15  C   UNL     1       1.086  -0.764   0.125  0.00  0.00    +0.048 A 
ATOM     16  C   UNL     1       0.084   0.143   0.434  0.00  0.00    +0.024 A 
BRANCH  14  17
ATOM     17  S   UNL     1       3.627  -1.447  -0.644  0.00  0.00    -0.095 S 
BRANCH  17  18
ATOM     18  C   UNL     1       5.017  -0.396  -1.149  0.00  0.00    +0.246 C 
ATOM     19 CL   UNL     1       5.144  -0.392  -2.947  0.00  0.00    -0.100 Cl
BRANCH  18  20
ATOM     20  C   UNL     1       6.313  -0.941  -0.547  0.00  0.00    +0.415 C 
ATOM     21  F   UNL     1       6.527  -2.246  -1.003  0.00  0.00    -0.168 F 
ATOM     22  F   UNL     1       7.385  -0.130  -0.936  0.00  0.00    -0.168 F 
ATOM     23  F   UNL     1       6.214  -0.945   0.849  0.00  0.00    -0.168 F 
ENDBRANCH  18  20
ENDBRANCH  17  18
ENDBRANCH  14  17
ENDBRANCH   1  15
BRANCH   8  24
ATOM     24  C   UNL     1      -3.563  -6.229  -0.379  0.00  0.00    +0.241 C 
ATOM     25  O   UNL     1      -3.622  -7.376   0.011  0.00  0.00    -0.273 OA
ATOM     26  N   UNL     1      -4.697  -5.545  -0.633  0.00  0.00    -0.327 N 
ATOM     27  H   UNL     1      -4.650  -4.628  -0.945  0.00  0.00    +0.145 HD
ATOM     28  H   UNL     1      -5.559  -5.970  -0.504  0.00  0.00    +0.145 HD
ENDBRANCH   8  24
TORSDOF 5
