REMARK  Name = ZINC52016017
REMARK  5 active torsions:
REMARK  status: ('A' for Active; 'I' for Inactive)
REMARK    1  A    between atoms: C_1  and  N_2
REMARK    2  A    between atoms: C_5  and  S_9
REMARK    3  A    between atoms: S_9  and  N_12
REMARK    4  A    between atoms: N_12  and  C_13
REMARK    5  A    between atoms: C_19  and  O_21
REMARK                            x       y       z     vdW  Elec       q    Type
REMARK                         _______ _______ _______ _____ _____    ______ ____
ROOT
ATOM      1  S   UNL     1      -5.141   0.073   0.039  0.00  0.00    +0.059 S 
ATOM      2  O   UNL     1      -6.078  -0.839   0.596  0.00  0.00    -0.153 OA
ATOM      3  O   UNL     1      -4.914   1.363   0.591  0.00  0.00    -0.153 OA
ENDROOT
BRANCH   1   8
ATOM      4  C   UNL     1      -0.018   1.461   0.010  0.00  0.00    +0.127 C 
ATOM      5  N   UNL     1       0.002  -0.004   0.002  0.00  0.00    -0.332 N 
ATOM      6  C   UNL     1      -1.192  -0.715   0.010  0.00  0.00    +0.120 A 
ATOM      7  C   UNL     1      -2.403  -0.030   0.019  0.00  0.00    +0.072 A 
ATOM      8  C   UNL     1      -3.583  -0.750   0.027  0.00  0.00    +0.110 A 
ATOM      9  C   UNL     1      -3.514  -2.137   0.024  0.00  0.00    +0.048 A 
ATOM     10  C   UNL     1      -2.278  -2.752   0.015  0.00  0.00    +0.115 A 
ATOM     11  N   UNL     1      -1.167  -2.039   0.002  0.00  0.00    -0.240 NA
ATOM     12  H   UNL     1       0.849  -0.478  -0.009  0.00  0.00    +0.147 HD
ENDBRANCH   1   8
BRANCH   1  13
ATOM     13  N   UNL     1      -5.585   0.305  -1.539  0.00  0.00    -0.184 NA
ATOM     14  H   UNL     1      -5.659   1.204  -1.895  0.00  0.00    +0.148 HD
BRANCH  13  15
ATOM     15  C   UNL     1      -5.868  -0.849  -2.397  0.00  0.00    +0.105 C 
ATOM     16  C   UNL     1      -4.610  -1.217  -3.187  0.00  0.00    +0.023 C 
ATOM     17  C   UNL     1      -4.905  -2.421  -4.083  0.00  0.00    +0.002 C 
ATOM     18  C   UNL     1      -6.033  -2.070  -5.055  0.00  0.00    +0.003 C 
ATOM     19  C   UNL     1      -7.291  -1.702  -4.265  0.00  0.00    +0.033 C 
ATOM     20  C   UNL     1      -6.996  -0.497  -3.369  0.00  0.00    +0.133 C 
BRANCH  20  21
ATOM     21  O   UNL     1      -8.171  -0.153  -2.631  0.00  0.00    -0.390 OA
ATOM     22  H   UNL     1      -8.928   0.082  -3.185  0.00  0.00    +0.210 HD
ENDBRANCH  20  21
ENDBRANCH  13  15
ENDBRANCH   1  13
TORSDOF 4
