REMARK  Name = ZINC19645142
REMARK  11 active torsions:
REMARK  status: ('A' for Active; 'I' for Inactive)
REMARK    1  A    between atoms: C_1  and  C_2
REMARK    2  A    between atoms: C_2  and  C_3
REMARK    3  A    between atoms: C_2  and  N_4
REMARK    4  A    between atoms: C_5  and  C_7
REMARK    5  A    between atoms: C_11  and  N_12
REMARK    6  A    between atoms: C_13  and  C_15
REMARK    7  A    between atoms: C_21  and  C_23
REMARK    8  A    between atoms: C_27  and  C_31
REMARK    9  A    between atoms: C_31  and  C_32
REMARK   10  A    between atoms: C_31  and  C_33
REMARK   11  A    between atoms: C_31  and  C_34
REMARK                            x       y       z     vdW  Elec       q    Type
REMARK                         _______ _______ _______ _____ _____    ______ ____
ROOT
ATOM      1  C   UNL     1       3.633   1.745  -0.173  0.00  0.00    +0.069 A 
ATOM      2  C   UNL     1       4.745   0.809  -0.170  0.00  0.00    -0.023 A 
ATOM      3  C   UNL     1       4.399  -0.494  -0.087  0.00  0.00    -0.004 A 
ATOM      4  S   UNL     1       2.631  -0.489  -0.005  0.00  0.00    -0.077 S 
ATOM      5  C   UNL     1       2.352   1.219  -0.091  0.00  0.00    +0.084 A 
ATOM      6  C   UNL     1       5.322  -1.673  -0.063  0.00  0.00    +0.046 C 
ATOM      7  C   UNL     1       6.743  -1.170   0.229  0.00  0.00    -0.000 C 
ATOM      8  C   UNL     1       7.042   0.022  -0.685  0.00  0.00    +0.009 C 
ATOM      9  C   UNL     1       6.207   1.229  -0.255  0.00  0.00    +0.037 C 
ENDROOT
BRANCH   1  11
ATOM     10  N   UNL     1       3.912   3.795  -1.461  0.00  0.00    -0.309 N 
ATOM     11  C   UNL     1       3.857   3.191  -0.258  0.00  0.00    +0.247 C 
ATOM     12  O   UNL     1       3.994   3.847   0.759  0.00  0.00    -0.270 OA
ATOM     13  H   UNL     1       3.788   3.203  -2.380  0.00  0.00    +0.149 HD
BRANCH  10  15
ATOM     14  C   UNL     1       4.761   5.581  -2.900  0.00  0.00    +0.027 C 
ATOM     15  C   UNL     1       4.136   5.241  -1.546  0.00  0.00    +0.067 C 
ATOM     16  C   UNL     1       2.800   5.973  -1.403  0.00  0.00    +0.027 C 
ENDBRANCH  10  15
ENDBRANCH   1  11
BRANCH   5  17
ATOM     17  N   UNL     1       1.142   1.896  -0.076  0.00  0.00    -0.279 N 
ATOM     18  C   UNL     1      -0.014   1.209   0.009  0.00  0.00    +0.222 C 
ATOM     19  O   UNL     1       0.004  -0.002   0.072  0.00  0.00    -0.275 OA
ATOM     20  H   UNL     1       1.125   2.995  -0.133  0.00  0.00    +0.155 HD
BRANCH  18  21
ATOM     21  C   UNL     1      -1.330   1.944   0.019  0.00  0.00    +0.093 C 
ATOM     22  C   UNL     1      -2.359   1.170  -0.807  0.00  0.00    +0.040 C 
ATOM     23  C   UNL     1      -2.746  -0.095  -0.097  0.00  0.00    -0.030 C 
ATOM     24  C   UNL     1      -2.529  -0.316   1.160  0.00  0.00    -0.030 C 
ATOM     25  C   UNL     1      -1.851   0.657   2.080  0.00  0.00    +0.042 C 
ATOM     26  C   UNL     1      -1.845   2.060   1.459  0.00  0.00    +0.118 C 
BRANCH  26  27
ATOM     27  C   UNL     1      -0.938   2.968   2.250  0.00  0.00    +0.360 C 
ATOM     28  O   UNL     1       0.023   3.473   1.720  0.00  0.00    -0.246 OA
ATOM     29  O   UNL     1      -1.198   3.215   3.543  0.00  0.00    -0.246 OA
ENDBRANCH  26  27
ENDBRANCH  18  21
ENDBRANCH   5  17
BRANCH   7  30
ATOM     30  C   UNL     1       7.750  -2.290  -0.043  0.00  0.00    -0.035 C 
ATOM     31  C   UNL     1       9.166  -1.780   0.233  0.00  0.00    +0.011 C 
ATOM     32  C   UNL     1       7.449  -3.479   0.872  0.00  0.00    +0.011 C 
ATOM     33  C   UNL     1       7.641  -2.730  -1.504  0.00  0.00    +0.011 C 
ENDBRANCH   7  30
TORSDOF 6
