REMARK  Name = ZINC24909977
REMARK  4 active torsions:
REMARK  status: ('A' for Active; 'I' for Inactive)
REMARK    1  A    between atoms: C_1  and  N_2
REMARK    2  A    between atoms: N_2  and  C_3
REMARK    3  A    between atoms: C_3  and  C_4
REMARK    4  A    between atoms: C_14  and  C_20
REMARK                            x       y       z     vdW  Elec       q    Type
REMARK                         _______ _______ _______ _____ _____    ______ ____
ROOT
ATOM      1  C   UNL     1       4.364   4.352  -0.230  0.00  0.00    +0.009 C 
ATOM      2  C   UNL     1       5.333   3.987   0.898  0.00  0.00    +0.024 C 
ATOM      3  C   UNL     1       6.666   4.704   0.672  0.00  0.00    +0.107 C 
ATOM      4  N   UNL     1       6.444   6.156   0.643  0.00  0.00    -0.315 N 
ATOM      5  C   UNL     1       5.554   6.535  -0.461  0.00  0.00    +0.107 C 
ATOM      6  C   UNL     1       4.188   5.873  -0.268  0.00  0.00    +0.024 C 
ATOM      7  C   UNL     1       7.644   6.840   0.570  0.00  0.00    +0.130 A 
ATOM      8  C   UNL     1       8.272   7.299   1.749  0.00  0.00    +0.040 A 
ATOM      9  C   UNL     1       7.718   7.087   3.020  0.00  0.00    +0.015 A 
ATOM     10  C   UNL     1       8.398   7.569   4.106  0.00  0.00    +0.033 A 
ATOM     11  C   UNL     1       9.601   8.246   3.929  0.00  0.00    +0.144 A 
ATOM     12  N   UNL     1      10.120   8.433   2.738  0.00  0.00    -0.243 NA
ATOM     13  C   UNL     1       9.503   7.992   1.641  0.00  0.00    +0.076 A 
ATOM     14  C   UNL     1      10.035   8.197   0.352  0.00  0.00    +0.048 A 
ATOM     15  C   UNL     1       9.354   7.722  -0.725  0.00  0.00    +0.115 A 
ATOM     16  N   UNL     1       8.205   7.071  -0.602  0.00  0.00    -0.240 NA
ENDROOT
BRANCH  11  17
ATOM     17  C   UNL     1      10.333   8.768   5.139  0.00  0.00    +0.434 C 
ATOM     18  F   UNL     1      11.215   7.790   5.608  0.00  0.00    -0.164 F 
ATOM     19  F   UNL     1      11.052   9.916   4.789  0.00  0.00    -0.164 F 
ATOM     20  F   UNL     1       9.410   9.084   6.142  0.00  0.00    -0.164 F 
ENDBRANCH  11  17
BRANCH   1  21
ATOM     21  C   UNL     1       3.010   3.687   0.024  0.00  0.00    +0.110 C 
BRANCH  21  23
ATOM     22  C   UNL     1       2.490   3.237  -2.298  0.00  0.00    +0.130 C 
ATOM     23  N   UNL     1       2.103   3.982  -1.093  0.00  0.00    -0.316 N 
ATOM     24  C   UNL     1       0.789   3.719  -0.747  0.00  0.00    +0.150 A 
ATOM     25  C   UNL     1      -0.253   3.932  -1.666  0.00  0.00    +0.125 A 
ATOM     26  C   UNL     1      -1.567   3.647  -1.257  0.00  0.00    +0.183 A 
ATOM     27  N   UNL     1      -2.369   3.940  -2.330  0.00  0.00    -0.216 NA
ATOM     28  H   UNL     1       0.599   4.661  -3.476  0.00  0.00    +0.167 HD
ATOM     29  C   UNL     1      -1.561   4.381  -3.336  0.00  0.00    +0.199 A 
ATOM     30  N   UNL     1      -0.320   4.375  -2.944  0.00  0.00    -0.340 N 
ATOM     31  N   UNL     1      -1.775   3.190  -0.026  0.00  0.00    -0.214 NA
ATOM     32  C   UNL     1      -0.768   3.005   0.801  0.00  0.00    +0.225 A 
ATOM     33  N   UNL     1       0.483   3.259   0.462  0.00  0.00    -0.219 NA
ENDBRANCH  21  23
ENDBRANCH   1  21
TORSDOF 3
