REMARK  Name = ZINC34866216
REMARK  8 active torsions:
REMARK  status: ('A' for Active; 'I' for Inactive)
REMARK    1  A    between atoms: C_1  and  C_2
REMARK    2  A    between atoms: C_2  and  C_3
REMARK    3  A    between atoms: C_3  and  N_4
REMARK    4  A    between atoms: C_5  and  N_29
REMARK    5  A    between atoms: C_6  and  C_13
REMARK    6  A    between atoms: C_13  and  C_15
REMARK    7  A    between atoms: C_15  and  N_16
REMARK    8  A    between atoms: N_19  and  C_22
REMARK                            x       y       z     vdW  Elec       q    Type
REMARK                         _______ _______ _______ _____ _____    ______ ____
ROOT
ATOM      1  C   UNL     1      -1.437  -4.529  -2.617  0.00  0.00    +0.185 C 
ATOM      2  O   UNL     1      -1.322  -3.793  -3.576  0.00  0.00    -0.290 OA
ENDROOT
BRANCH   1   5
ATOM      3  N   UNL     1      -1.516  -2.126   0.177  0.00  0.00    -0.281 N 
ATOM      4  C   UNL     1      -1.487  -2.600  -1.103  0.00  0.00    +0.116 A 
ATOM      5  C   UNL     1      -1.467  -3.990  -1.313  0.00  0.00    +0.121 A 
ATOM      6  C   UNL     1      -1.479  -4.863  -0.132  0.00  0.00    +0.266 A 
ATOM      7  O   UNL     1      -1.462  -6.074  -0.254  0.00  0.00    -0.267 OA
ATOM      8  N   UNL     1      -1.508  -4.295   1.091  0.00  0.00    -0.274 N 
ATOM      9  H   UNL     1      -1.516  -4.858   1.881  0.00  0.00    +0.173 HD
ATOM     10  C   UNL     1      -1.521  -2.959   1.230  0.00  0.00    +0.331 A 
ATOM     11  O   UNL     1      -1.543  -2.487   2.350  0.00  0.00    -0.246 OA
BRANCH   4  12
ATOM     12  N   UNL     1      -1.478  -1.742  -2.158  0.00  0.00    -0.344 N 
ATOM     13  H   UNL     1      -1.570  -0.788  -2.008  0.00  0.00    +0.144 HD
ATOM     14  H   UNL     1      -1.378  -2.083  -3.061  0.00  0.00    +0.144 HD
ENDBRANCH   4  12
BRANCH   3  15
ATOM     15  C   UNL     1      -1.537  -0.679   0.407  0.00  0.00    +0.128 C 
BRANCH  15  17
ATOM     16  C   UNL     1      -0.123   1.352   0.747  0.00  0.00    +0.005 C 
ATOM     17  C   UNL     1      -0.102  -0.159   0.507  0.00  0.00    +0.018 C 
ENDBRANCH  15  17
ENDBRANCH   3  15
ENDBRANCH   1   5
BRANCH   1  18
ATOM     18  C   UNL     1      -1.546  -6.019  -2.819  0.00  0.00    +0.164 C 
BRANCH  18  19
ATOM     19  N   UNL     1      -1.489  -6.323  -4.255  0.00  0.00    -0.292 NA
ATOM     20  C   UNL     1      -2.662  -5.781  -4.955  0.00  0.00    +0.104 C 
ATOM     21  C   UNL     1      -2.478  -5.960  -6.466  0.00  0.00    +0.120 C 
ATOM     22  N   UNL     1      -2.192  -7.376  -6.737  0.00  0.00    -0.327 N 
ATOM     23  C   UNL     1      -1.117  -8.028  -5.973  0.00  0.00    +0.120 C 
ATOM     24  C   UNL     1      -1.355  -7.769  -4.482  0.00  0.00    +0.104 C 
BRANCH  22  25
ATOM     25  C   UNL     1      -2.921  -8.085  -7.697  0.00  0.00    +0.030 A 
ATOM     26  C   UNL     1      -3.845  -7.424  -8.496  0.00  0.00    +0.026 A 
ATOM     27  C   UNL     1      -4.564  -8.126  -9.444  0.00  0.00    +0.040 A 
ATOM     28  C   UNL     1      -4.366  -9.487  -9.597  0.00  0.00    +0.124 A 
ATOM     29  C   UNL     1      -3.446 -10.149  -8.801  0.00  0.00    +0.040 A 
ATOM     30  C   UNL     1      -2.720  -9.450  -7.856  0.00  0.00    +0.026 A 
ATOM     31  F   UNL     1      -5.071 -10.172 -10.524  0.00  0.00    -0.205 F 
ENDBRANCH  22  25
ENDBRANCH  18  19
ENDBRANCH   1  18
TORSDOF 7
