REMARK  Name = ZINC19078737
REMARK  8 active torsions:
REMARK  status: ('A' for Active; 'I' for Inactive)
REMARK    1  A    between atoms: C_1  and  C_2
REMARK    2  A    between atoms: C_2  and  C_3
REMARK    3  A    between atoms: C_2  and  C_4
REMARK    4  A    between atoms: C_4  and  C_6
REMARK    5  A    between atoms: C_4  and  N_15
REMARK    6  A    between atoms: N_12  and  C_14
REMARK    7  A    between atoms: N_15  and  S_16
REMARK    8  A    between atoms: S_16  and  C_19
REMARK                            x       y       z     vdW  Elec       q    Type
REMARK                         _______ _______ _______ _____ _____    ______ ____
ROOT
ATOM      1  C   UNL     1       5.039   0.926   1.861  0.00  0.00    +0.165 C 
ENDROOT
BRANCH   1   2
ATOM      2  C   UNL     1       6.329   1.147   2.608  0.00  0.00    +0.237 C 
ATOM      3  O   UNL     1       6.666   2.271   2.916  0.00  0.00    -0.274 OA
ATOM      4  N   UNL     1       7.107   0.097   2.933  0.00  0.00    -0.268 N 
ATOM      5  C   UNL     1       8.253   0.290   3.718  0.00  0.00    +0.147 A 
ATOM      6  C   UNL     1       8.708   1.518   4.225  0.00  0.00    +0.065 A 
ATOM      7  C   UNL     1       9.837   1.282   4.931  0.00  0.00    +0.110 A 
ATOM      8  N   UNL     1      10.097  -0.041   4.868  0.00  0.00    -0.273 N 
ATOM      9  N   UNL     1       9.091  -0.644   4.102  0.00  0.00    -0.156 NA
ATOM     10  C   UNL     1      11.232  -0.726   5.490  0.00  0.00    +0.172 C 
ATOM     11  H   UNL     1       6.875  -0.793   2.625  0.00  0.00    +0.156 HD
ENDBRANCH   1   2
BRANCH   1  13
ATOM     12  C   UNL     1       3.669   1.623   3.831  0.00  0.00    +0.009 C 
ATOM     13  C   UNL     1       3.950   0.489   2.842  0.00  0.00    +0.010 C 
ATOM     14  C   UNL     1       2.671   0.158   2.071  0.00  0.00    +0.009 C 
ENDBRANCH   1  13
BRANCH   1  15
ATOM     15  N   UNL     1       4.634   2.172   1.205  0.00  0.00    -0.178 NA
ATOM     16  H   UNL     1       4.128   2.837   1.698  0.00  0.00    +0.149 HD
BRANCH  15  17
ATOM     17  S   UNL     1       5.041   2.446  -0.376  0.00  0.00    +0.061 S 
ATOM     18  O   UNL     1       6.416   2.112  -0.506  0.00  0.00    -0.153 OA
ATOM     19  O   UNL     1       4.535   3.732  -0.709  0.00  0.00    -0.153 OA
BRANCH  17  20
ATOM     20  C   UNL     1       4.146   1.284  -1.353  0.00  0.00    +0.133 A 
ATOM     21  C   UNL     1       3.141   1.707  -2.156  0.00  0.00    +0.031 A 
ATOM     22  C   UNL     1       2.411   0.816  -2.943  0.00  0.00    +0.004 A 
ATOM     23  C   UNL     1       2.675  -0.513  -2.939  0.00  0.00    +0.031 A 
ATOM     24  C   UNL     1       3.714  -1.028  -2.121  0.00  0.00    +0.102 A 
ATOM     25  C   UNL     1       4.478  -0.094  -1.298  0.00  0.00    +0.126 A 
ATOM     26  N   UNL     1       5.418  -0.711  -0.584  0.00  0.00    -0.189 NA
ATOM     27  S   UNL     1       5.308  -2.234  -0.937  0.00  0.00    +0.117 S 
ATOM     28  N   UNL     1       4.131  -2.283  -1.971  0.00  0.00    -0.191 NA
ENDBRANCH  17  20
ENDBRANCH  15  17
ENDBRANCH   1  15
TORSDOF 5
