REMARK  Name = ZINC14183529
REMARK  5 active torsions:
REMARK  status: ('A' for Active; 'I' for Inactive)
REMARK    1  A    between atoms: C_1  and  C_2
REMARK    2  A    between atoms: C_9  and  C_14
REMARK    3  A    between atoms: N_16  and  C_17
REMARK    4  A    between atoms: C_17  and  C_19
REMARK    5  A    between atoms: C_17  and  C_20
REMARK                            x       y       z     vdW  Elec       q    Type
REMARK                         _______ _______ _______ _____ _____    ______ ____
ROOT
ATOM      1  C   UNL     1      -9.668   4.688  -6.907  0.00  0.00    +0.029 C 
ATOM      2  C   UNL     1      -8.492   4.044  -6.170  0.00  0.00    +0.134 C 
ATOM      3  C   UNL     1      -8.982   2.871  -5.366  0.00  0.00    +0.230 C 
ATOM      4  O   UNL     1      -9.991   2.306  -5.733  0.00  0.00    -0.274 OA
ATOM      5  N   UNL     1      -8.371   2.418  -4.275  0.00  0.00    -0.284 N 
ATOM      6  C   UNL     1      -7.203   2.929  -3.712  0.00  0.00    +0.048 A 
ATOM      7  C   UNL     1      -6.439   2.123  -2.883  0.00  0.00    +0.037 A 
ATOM      8  C   UNL     1      -5.272   2.622  -2.302  0.00  0.00    +0.039 A 
ATOM      9  C   UNL     1      -4.863   3.933  -2.563  0.00  0.00    +0.014 A 
ATOM     10  C   UNL     1      -5.618   4.733  -3.393  0.00  0.00    +0.017 A 
ATOM     11  C   UNL     1      -6.780   4.238  -3.968  0.00  0.00    +0.030 A 
ATOM     12  S   UNL     1      -7.745   5.257  -5.039  0.00  0.00    -0.111 S 
ATOM     13  H   UNL     1      -8.777   1.659  -3.828  0.00  0.00    +0.155 HD
ENDROOT
BRANCH   8  14
ATOM     14  C   UNL     1      -4.465   1.762  -1.416  0.00  0.00    +0.245 C 
ATOM     15  O   UNL     1      -4.819   0.622  -1.188  0.00  0.00    -0.270 OA
ATOM     16  N   UNL     1      -3.335   2.241  -0.859  0.00  0.00    -0.302 N 
ATOM     17  H   UNL     1      -3.052   3.151  -1.041  0.00  0.00    +0.150 HD
BRANCH  16  18
ATOM     18  C   UNL     1      -2.533   1.387   0.021  0.00  0.00    +0.136 C 
ATOM     19  C   UNL     1      -3.090   1.456   1.444  0.00  0.00    +0.036 C 
BRANCH  18  20
ATOM     20  C   UNL     1      -1.103   1.863   0.017  0.00  0.00    +0.125 A 
ATOM     21  C   UNL     1      -0.013   1.076   0.008  0.00  0.00    +0.046 A 
ATOM     22  C   UNL     1       1.111   1.934   0.002  0.00  0.00    +0.041 A 
ATOM     23  C   UNL     1       0.640   3.193   0.012  0.00  0.00    +0.195 A 
ATOM     24  O   UNL     1      -0.702   3.144   0.024  0.00  0.00    -0.466 OA
ENDBRANCH  18  20
ENDBRANCH  16  18
ENDBRANCH   8  14
TORSDOF 3
