REMARK  Name = ZINC12503431
REMARK  10 active torsions:
REMARK  status: ('A' for Active; 'I' for Inactive)
REMARK    1  A    between atoms: C_1  and  C_2
REMARK    2  A    between atoms: C_7  and  O_8
REMARK    3  A    between atoms: O_8  and  C_9
REMARK    4  A    between atoms: C_9  and  C_10
REMARK    5  A    between atoms: N_12  and  C_13
REMARK    6  A    between atoms: C_13  and  N_15
REMARK    7  A    between atoms: N_15  and  N_16
REMARK    8  A    between atoms: C_17  and  C_19
REMARK    9  A    between atoms: C_19  and  O_20
REMARK   10  A    between atoms: O_20  and  C_21
REMARK                            x       y       z     vdW  Elec       q    Type
REMARK                         _______ _______ _______ _____ _____    ______ ____
ROOT
ATOM      1  C   UNL     1       4.127   8.655   0.009  0.00  0.00    +0.153 C 
ATOM      2  S   UNL     1       3.882  10.349   0.021  0.00  0.00    -0.017 S 
ENDROOT
BRANCH   1   5
ATOM      3  C   UNL     1       6.438   8.989  -0.011  0.00  0.00    +0.256 C 
ATOM      4  O   UNL     1       6.264  10.188  -0.003  0.00  0.00    -0.272 OA
ATOM      5  N   UNL     1       5.379   8.155  -0.005  0.00  0.00    -0.264 N 
ATOM      6  H   UNL     1       5.517   7.195  -0.012  0.00  0.00    +0.157 HD
BRANCH   3   7
ATOM      7  C   UNL     1       7.837   8.429  -0.028  0.00  0.00    +0.325 C 
BRANCH   7   8
ATOM      8  O   UNL     1       8.779   9.504  -0.031  0.00  0.00    -0.482 OA
BRANCH   8  15
ATOM      9  C   UNL     1      10.658  11.613  -0.050  0.00  0.00    +0.047 C 
ATOM     10  C   UNL     1      11.065  10.162  -0.055  0.00  0.00    -0.007 A 
ATOM     11  C   UNL     1      12.403   9.819  -0.064  0.00  0.00    +0.027 A 
ATOM     12  C   UNL     1      12.778   8.488  -0.075  0.00  0.00    +0.041 A 
ATOM     13  C   UNL     1      11.813   7.496  -0.071  0.00  0.00    +0.023 A 
ATOM     14  C   UNL     1      10.474   7.834  -0.056  0.00  0.00    +0.047 A 
ATOM     15  C   UNL     1      10.096   9.169  -0.045  0.00  0.00    +0.124 A 
ATOM     16 CL   UNL     1      14.460   8.060  -0.094  0.00  0.00    -0.084 Cl
ENDBRANCH   8  15
ENDBRANCH   7   8
ENDBRANCH   3   7
ENDBRANCH   1   5
BRANCH   1  17
ATOM     17  N   UNL     1       3.068   7.821   0.015  0.00  0.00    -0.245 N 
ATOM     18  H   UNL     1       2.168   8.181   0.025  0.00  0.00    +0.172 HD
BRANCH  17  19
ATOM     19  N   UNL     1       3.268   6.434   0.005  0.00  0.00    -0.232 N 
ATOM     20  C   UNL     1       2.209   5.601   0.011  0.00  0.00    +0.267 C 
ATOM     21  O   UNL     1       1.083   6.051   0.024  0.00  0.00    -0.271 OA
ATOM     22  H   UNL     1       4.169   6.074  -0.005  0.00  0.00    +0.173 HD
BRANCH  20  23
ATOM     23  C   UNL     1       2.425   4.109   0.001  0.00  0.00    +0.326 C 
BRANCH  23  24
ATOM     24  O   UNL     1       1.159   3.445   0.009  0.00  0.00    -0.483 OA
BRANCH  24  25
ATOM     25  C   UNL     1       1.176   2.086   0.002  0.00  0.00    +0.121 A 
ATOM     26  C   UNL     1      -0.017   1.377   0.010  0.00  0.00    +0.047 A 
ATOM     27  C   UNL     1       0.002  -0.004   0.002  0.00  0.00    +0.019 A 
ATOM     28  C   UNL     1       1.209  -0.680  -0.013  0.00  0.00    +0.018 A 
ATOM     29  C   UNL     1       2.399   0.025  -0.020  0.00  0.00    +0.019 A 
ATOM     30  C   UNL     1       2.385   1.406  -0.013  0.00  0.00    +0.047 A 
ATOM     31 BR   UNL     1       1.232  -2.571  -0.022  0.00  0.00    -0.050 Br
ENDBRANCH  24  25
ENDBRANCH  23  24
ENDBRANCH  20  23
ENDBRANCH  17  19
ENDBRANCH   1  17
TORSDOF 9
