REMARK  Name = ZINC46773348
REMARK  8 active torsions:
REMARK  status: ('A' for Active; 'I' for Inactive)
REMARK    1  A    between atoms: C_1  and  C_2
REMARK    2  A    between atoms: C_2  and  C_3
REMARK    3  A    between atoms: C_2  and  N_4
REMARK    4  A    between atoms: C_5  and  C_7
REMARK    5  A    between atoms: N_9  and  N_10
REMARK    6  A    between atoms: C_11  and  C_13
REMARK    7  A    between atoms: C_13  and  C_14
REMARK    8  A    between atoms: C_14  and  N_15
REMARK                            x       y       z     vdW  Elec       q    Type
REMARK                         _______ _______ _______ _____ _____    ______ ____
ROOT
ATOM      1  C   UNL     1       0.862  -2.380   8.255  0.00  0.00    +0.119 C 
ENDROOT
BRANCH   1   3
ATOM      2  N   UNL     1       0.792  -1.737   5.868  0.00  0.00    -0.234 N 
ATOM      3  C   UNL     1       0.133  -1.881   7.034  0.00  0.00    +0.231 C 
ATOM      4  O   UNL     1      -1.047  -1.609   7.101  0.00  0.00    -0.274 OA
ATOM      5  H   UNL     1       1.736  -1.954   5.814  0.00  0.00    +0.173 HD
BRANCH   2   8
ATOM      6  C   UNL     1       0.774  -1.129   3.566  0.00  0.00    +0.315 C 
ATOM      7  O   UNL     1       1.955  -1.401   3.499  0.00  0.00    -0.264 OA
ATOM      8  N   UNL     1       0.115  -1.273   4.733  0.00  0.00    -0.227 N 
ATOM      9  H   UNL     1      -0.829  -1.055   4.787  0.00  0.00    +0.173 HD
BRANCH   6  11
ATOM     10  N   UNL     1       0.711  -0.489   1.189  0.00  0.00    -0.305 N 
ATOM     11  C   UNL     1       0.051  -0.633   2.355  0.00  0.00    +0.301 C 
ATOM     12  O   UNL     1      -1.129  -0.361   2.423  0.00  0.00    -0.265 OA
ATOM     13  H   UNL     1       1.654  -0.707   1.135  0.00  0.00    +0.149 HD
BRANCH  10  15
ATOM     14  C   UNL     1      -0.019   1.526   0.010  0.00  0.00    +0.027 C 
ATOM     15  C   UNL     1       0.002  -0.004   0.002  0.00  0.00    +0.067 C 
ATOM     16  C   UNL     1       0.718  -0.497  -1.257  0.00  0.00    +0.027 C 
ENDBRANCH  10  15
ENDBRANCH   6  11
ENDBRANCH   2   8
ENDBRANCH   1   3
BRANCH   1  17
ATOM     17  C   UNL     1      -0.110  -2.451   9.435  0.00  0.00    +0.135 C 
BRANCH  17  18
ATOM     18  N   UNL     1       0.599  -2.937  10.622  0.00  0.00    -0.298 N 
ATOM     19  C   UNL     1       0.652  -4.271  10.866  0.00  0.00    +0.203 A 
ATOM     20  N   UNL     1       1.274  -4.744  11.913  0.00  0.00    -0.230 NA
ATOM     21  C   UNL     1       1.876  -3.929  12.775  0.00  0.00    +0.116 A 
ATOM     22  C   UNL     1       1.876  -2.535  12.607  0.00  0.00    +0.076 A 
ATOM     23  C   UNL     1       1.189  -2.050  11.446  0.00  0.00    +0.262 A 
ATOM     24  O   UNL     1       1.137  -0.856  11.211  0.00  0.00    -0.267 OA
ATOM     25  C   UNL     1       2.577  -1.766  13.635  0.00  0.00    -0.023 A 
ATOM     26  C   UNL     1       3.152  -2.465  14.636  0.00  0.00    -0.004 A 
ATOM     27  S   UNL     1       2.798  -4.164  14.273  0.00  0.00    -0.073 S 
ATOM     28  C   UNL     1       3.922  -1.918  15.799  0.00  0.00    +0.043 C 
ATOM     29  C   UNL     1       4.284  -0.457  15.496  0.00  0.00    +0.005 C 
ATOM     30  C   UNL     1       3.031   0.265  14.991  0.00  0.00    +0.005 C 
ATOM     31  C   UNL     1       2.665  -0.243  13.596  0.00  0.00    +0.037 C 
ENDBRANCH  17  18
ENDBRANCH   1  17
TORSDOF 6
