REMARK  Name = ZINC36481112
REMARK  15 active torsions:
REMARK  status: ('A' for Active; 'I' for Inactive)
REMARK    1  A    between atoms: C_1  and  C_2
REMARK    2  A    between atoms: C_2  and  C_3
REMARK    3  A    between atoms: C_3  and  C_4
REMARK    4  A    between atoms: C_4  and  N_5
REMARK    5  A    between atoms: C_6  and  C_8
REMARK    6  A    between atoms: C_8  and  C_10
REMARK    7  A    between atoms: C_8  and  N_19
REMARK    8  A    between atoms: C_11  and  O_18
REMARK    9  A    between atoms: C_13  and  O_17
REMARK   10  A    between atoms: C_15  and  O_16
REMARK   11  A    between atoms: N_19  and  C_20
REMARK   12  A    between atoms: C_27  and  C_29
REMARK   13  A    between atoms: C_29  and  C_31
REMARK   14  A    between atoms: C_29  and  O_37
REMARK   15  A    between atoms: O_37  and  C_38
REMARK                            x       y       z     vdW  Elec       q    Type
REMARK                         _______ _______ _______ _____ _____    ______ ____
ROOT
ATOM      1  C   UNL     1      -4.627  -4.237   0.626  0.00  0.00    +0.204 C 
ENDROOT
BRANCH   1   2
ATOM      2  C   UNL     1      -5.930  -3.974   1.335  0.00  0.00    +0.065 A 
ATOM      3  C   UNL     1      -6.258  -4.694   2.474  0.00  0.00    +0.129 A 
ATOM      4  C   UNL     1      -7.458  -4.452   3.126  0.00  0.00    +0.091 A 
ATOM      5  C   UNL     1      -8.330  -3.490   2.639  0.00  0.00    +0.124 A 
ATOM      6  C   UNL     1      -8.002  -2.769   1.500  0.00  0.00    +0.091 A 
ATOM      7  C   UNL     1      -6.800  -3.009   0.851  0.00  0.00    +0.129 A 
BRANCH   7   8
ATOM      8  O   UNL     1      -6.476  -2.299  -0.262  0.00  0.00    -0.506 OA
ATOM      9  H   UNL     1      -6.779  -2.703  -1.087  0.00  0.00    +0.292 HD
ENDBRANCH   7   8
BRANCH   5  10
ATOM     10  O   UNL     1      -9.506  -3.253   3.277  0.00  0.00    -0.507 OA
ATOM     11  H   UNL     1      -9.451  -2.574   3.963  0.00  0.00    +0.292 HD
ENDBRANCH   5  10
BRANCH   3  12
ATOM     12  O   UNL     1      -5.404  -5.637   2.951  0.00  0.00    -0.506 OA
ATOM     13  H   UNL     1      -4.727  -5.289   3.547  0.00  0.00    +0.292 HD
ENDBRANCH   3  12
ENDBRANCH   1   2
BRANCH   1  15
ATOM     14  N   UNL     1      -2.979  -2.446   1.065  0.00  0.00    -0.313 N 
ATOM     15  C   UNL     1      -3.494  -3.639   1.420  0.00  0.00    +0.239 C 
ATOM     16  O   UNL     1      -3.046  -4.232   2.379  0.00  0.00    -0.273 OA
ATOM     17  H   UNL     1      -3.337  -1.972   0.298  0.00  0.00    +0.149 HD
BRANCH  14  18
ATOM     18  C   UNL     1      -1.877  -1.864   1.836  0.00  0.00    +0.104 C 
BRANCH  18  19
ATOM     19  C   UNL     1      -1.483  -0.517   1.227  0.00  0.00    +0.018 C 
BRANCH  19  21
ATOM     20  C   UNL     1       0.061   1.437   1.423  0.00  0.00    +0.004 C 
ATOM     21  C   UNL     1      -0.333   0.090   2.033  0.00  0.00    -0.002 C 
ENDBRANCH  19  21
ENDBRANCH  18  19
ENDBRANCH  14  18
ENDBRANCH   1  15
BRANCH   1  22
ATOM     22  N   UNL     1      -4.423  -5.683   0.498  0.00  0.00    -0.253 N 
ATOM     23  C   UNL     1      -5.362  -6.445  -0.097  0.00  0.00    +0.254 C 
ATOM     24  O   UNL     1      -6.343  -5.927  -0.586  0.00  0.00    -0.272 OA
BRANCH  22  25
ATOM     25  C   UNL     1      -3.255  -6.271   0.994  0.00  0.00    +0.039 A 
ATOM     26  C   UNL     1      -2.024  -5.953   0.435  0.00  0.00    +0.023 A 
ATOM     27  C   UNL     1      -0.872  -6.535   0.926  0.00  0.00    +0.003 A 
ATOM     28  C   UNL     1      -0.942  -7.435   1.973  0.00  0.00    +0.020 A 
ATOM     29  C   UNL     1      -2.167  -7.756   2.532  0.00  0.00    +0.043 A 
ATOM     30  C   UNL     1      -3.322  -7.171   2.049  0.00  0.00    +0.043 A 
ATOM     31 CL   UNL     1      -2.251  -8.887   3.846  0.00  0.00    -0.083 Cl
ENDBRANCH  22  25
BRANCH  23  32
ATOM     32  C   UNL     1      -5.192  -7.941  -0.154  0.00  0.00    +0.234 C 
BRANCH  32  33
ATOM     33  C   UNL     1      -4.221  -8.295  -1.252  0.00  0.00    -0.010 A 
ATOM     34  C   UNL     1      -4.613  -8.209  -2.575  0.00  0.00    +0.006 A 
ATOM     35  C   UNL     1      -3.723  -8.533  -3.582  0.00  0.00    +0.000 A 
ATOM     36  C   UNL     1      -2.441  -8.943  -3.265  0.00  0.00    +0.000 A 
ATOM     37  C   UNL     1      -2.049  -9.028  -1.942  0.00  0.00    +0.000 A 
ATOM     38  C   UNL     1      -2.938  -8.700  -0.936  0.00  0.00    +0.006 A 
ENDBRANCH  32  33
BRANCH  32  39
ATOM     39  O   UNL     1      -6.455  -8.554  -0.420  0.00  0.00    -0.366 OA
ATOM     40  C   UNL     1      -7.201  -8.879   0.755  0.00  0.00    +0.195 C 
ENDBRANCH  32  39
ENDBRANCH  23  32
ENDBRANCH   1  22
TORSDOF 13
