REMARK  Name = ZINC59845154
REMARK  7 active torsions:
REMARK  status: ('A' for Active; 'I' for Inactive)
REMARK    1  A    between atoms: C_4  and  N_7
REMARK    2  A    between atoms: C_8  and  C_17
REMARK    3  A    between atoms: C_11  and  S_12
REMARK    4  A    between atoms: S_12  and  C_13
REMARK    5  A    between atoms: C_13  and  C_14
REMARK    6  A    between atoms: C_14  and  C_15
REMARK    7  A    between atoms: C_15  and  O_16
REMARK                            x       y       z     vdW  Elec       q    Type
REMARK                         _______ _______ _______ _____ _____    ______ ____
ROOT
ATOM      1  N   UNL     1       3.623  -0.652  -0.037  0.00  0.00    -0.270 N 
ATOM      2  C   UNL     1       4.118  -1.453  -1.043  0.00  0.00    +0.171 A 
ATOM      3  N   UNL     1       5.290  -1.890  -0.646  0.00  0.00    -0.128 NA
ATOM      4  N   UNL     1       5.561  -1.425   0.521  0.00  0.00    -0.122 NA
ATOM      5  C   UNL     1       4.580  -0.658   0.941  0.00  0.00    +0.196 A 
ENDROOT
BRANCH   1   9
ATOM      6  C   UNL     1      -0.017   1.379   0.010  0.00  0.00    +0.000 A 
ATOM      7  C   UNL     1       1.170   2.089   0.002  0.00  0.00    +0.002 A 
ATOM      8  C   UNL     1       2.377   1.419  -0.013  0.00  0.00    +0.026 A 
ATOM      9  C   UNL     1       2.399   0.031  -0.021  0.00  0.00    +0.051 A 
ATOM     10  C   UNL     1       1.207  -0.680  -0.013  0.00  0.00    +0.026 A 
ATOM     11  C   UNL     1       0.002  -0.004   0.002  0.00  0.00    +0.002 A 
ENDBRANCH   1   9
BRANCH   2  12
ATOM     12  C   UNL     1       3.453  -1.763  -2.326  0.00  0.00    +0.038 A 
ATOM     13  C   UNL     1       3.899  -2.826  -3.121  0.00  0.00    +0.014 A 
ATOM     14  C   UNL     1       3.242  -3.074  -4.313  0.00  0.00    +0.020 A 
ATOM     15  C   UNL     1       2.176  -2.272  -4.678  0.00  0.00    +0.111 A 
ATOM     16  N   UNL     1       1.777  -1.277  -3.909  0.00  0.00    -0.263 NA
ATOM     17  C   UNL     1       2.366  -1.005  -2.763  0.00  0.00    +0.122 A 
ENDBRANCH   2  12
BRANCH   5  18
ATOM     18  S   UNL     1       4.509   0.200   2.479  0.00  0.00    -0.086 S 
BRANCH  18  19
ATOM     19  C   UNL     1       6.073  -0.227   3.292  0.00  0.00    +0.079 C 
BRANCH  19  20
ATOM     20  C   UNL     1       6.143   0.461   4.657  0.00  0.00    +0.039 C 
BRANCH  20  21
ATOM     21  C   UNL     1       7.462   0.101   5.343  0.00  0.00    +0.156 C 
BRANCH  21  22
ATOM     22  O   UNL     1       7.527   0.744   6.618  0.00  0.00    -0.395 OA
ATOM     23  H   UNL     1       8.338   0.559   7.111  0.00  0.00    +0.209 HD
ENDBRANCH  21  22
ENDBRANCH  20  21
ENDBRANCH  19  20
ENDBRANCH  18  19
ENDBRANCH   5  18
TORSDOF 7
