REMARK  Name = ZINC16800576
REMARK  6 active torsions:
REMARK  status: ('A' for Active; 'I' for Inactive)
REMARK    1  A    between atoms: C_1  and  C_2
REMARK    2  A    between atoms: C_2  and  C_4
REMARK    3  A    between atoms: C_2  and  S_17
REMARK    4  A    between atoms: N_9  and  C_10
REMARK    5  A    between atoms: C_10  and  C_11
REMARK    6  A    between atoms: S_17  and  C_18
REMARK                            x       y       z     vdW  Elec       q    Type
REMARK                         _______ _______ _______ _____ _____    ______ ____
ROOT
ATOM      1  C   UNL     1       1.220   7.196  -3.549  0.00  0.00    +0.029 C 
ATOM      2  C   UNL     1       1.814   8.035  -2.416  0.00  0.00    +0.137 C 
ENDROOT
BRANCH   2   3
ATOM      3  C   UNL     1       2.082   9.432  -2.914  0.00  0.00    +0.233 C 
ATOM      4  O   UNL     1       3.184   9.729  -3.322  0.00  0.00    -0.274 OA
ATOM      5  N   UNL     1       1.097  10.351  -2.905  0.00  0.00    -0.239 N 
ATOM      6  C   UNL     1       1.337  11.601  -3.350  0.00  0.00    +0.306 C 
ATOM      7  O   UNL     1       2.442  11.899  -3.759  0.00  0.00    -0.252 OA
ATOM      8  N   UNL     1       0.351  12.520  -3.341  0.00  0.00    -0.295 N 
ATOM      9  H   UNL     1       0.215  10.114  -2.578  0.00  0.00    +0.159 HD
ATOM     10  H   UNL     1      -0.531  12.283  -3.014  0.00  0.00    +0.151 HD
BRANCH   8  11
ATOM     11  C   UNL     1       0.612  13.878  -3.825  0.00  0.00    +0.141 C 
BRANCH  11  12
ATOM     12  C   UNL     1      -0.644  14.703  -3.709  0.00  0.00    -0.030 A 
ATOM     13  C   UNL     1      -1.538  14.753  -4.763  0.00  0.00    +0.005 A 
ATOM     14  C   UNL     1      -2.692  15.505  -4.655  0.00  0.00    +0.000 A 
ATOM     15  C   UNL     1      -2.949  16.215  -3.497  0.00  0.00    +0.000 A 
ATOM     16  C   UNL     1      -2.053  16.169  -2.445  0.00  0.00    +0.000 A 
ATOM     17  C   UNL     1      -0.901  15.413  -2.551  0.00  0.00    +0.005 A 
ENDBRANCH  11  12
ENDBRANCH   8  11
ENDBRANCH   2   3
BRANCH   2  18
ATOM     18  S   UNL     1       3.364   7.286  -1.858  0.00  0.00    -0.073 S 
BRANCH  18  19
ATOM     19  C   UNL     1       2.752   5.766  -1.208  0.00  0.00    +0.192 A 
ATOM     20  N   UNL     1       1.449   5.534  -1.264  0.00  0.00    -0.207 NA
ATOM     21  C   UNL     1       0.873   4.426  -0.806  0.00  0.00    +0.129 A 
ATOM     22  C   UNL     1       1.748   3.459  -0.231  0.00  0.00    +0.051 A 
ATOM     23  C   UNL     1       1.379   2.172   0.338  0.00  0.00    -0.025 A 
ATOM     24  C   UNL     1       2.386   1.416   0.830  0.00  0.00    -0.004 A 
ATOM     25  S   UNL     1       3.860   2.368   0.563  0.00  0.00    -0.073 S 
ATOM     26  C   UNL     1       3.129   3.777  -0.206  0.00  0.00    +0.115 A 
ATOM     27  N   UNL     1       3.624   4.903  -0.682  0.00  0.00    -0.214 NA
ATOM     28  C   UNL     1       2.277   0.063   1.463  0.00  0.00    +0.043 C 
ATOM     29  C   UNL     1       0.805  -0.195   1.812  0.00  0.00    +0.005 C 
ATOM     30  C   UNL     1      -0.056   0.159   0.597  0.00  0.00    +0.005 C 
ATOM     31  C   UNL     1      -0.063   1.674   0.390  0.00  0.00    +0.037 C 
ATOM     32  N   UNL     1      -0.493   4.223  -0.885  0.00  0.00    -0.343 N 
ATOM     33  H   UNL     1      -1.030   4.765  -1.485  0.00  0.00    +0.144 HD
ATOM     34  H   UNL     1      -0.914   3.541  -0.340  0.00  0.00    +0.144 HD
ENDBRANCH  18  19
ENDBRANCH   2  18
TORSDOF 5
