REMARK  Name = ZINC44563180
REMARK  8 active torsions:
REMARK  status: ('A' for Active; 'I' for Inactive)
REMARK    1  A    between atoms: C_1  and  C_2
REMARK    2  A    between atoms: C_2  and  C_3
REMARK    3  A    between atoms: C_3  and  N_4
REMARK    4  A    between atoms: C_5  and  N_23
REMARK    5  A    between atoms: C_6  and  N_13
REMARK    6  A    between atoms: N_13  and  C_14
REMARK    7  A    between atoms: C_14  and  C_15
REMARK    8  A    between atoms: N_21  and  C_22
REMARK                            x       y       z     vdW  Elec       q    Type
REMARK                         _______ _______ _______ _____ _____    ______ ____
ROOT
ATOM      1  N   UNL     1       0.246  -2.896  -1.563  0.00  0.00    -0.281 N 
ATOM      2  C   UNL     1       1.402  -3.358  -0.977  0.00  0.00    +0.127 A 
ATOM      3  C   UNL     1       1.607  -4.707  -0.870  0.00  0.00    +0.131 A 
ATOM      4  C   UNL     1       0.627  -5.587  -1.363  0.00  0.00    +0.277 A 
ATOM      5  O   UNL     1       0.787  -6.793  -1.278  0.00  0.00    -0.266 OA
ATOM      6  N   UNL     1      -0.490  -5.089  -1.929  0.00  0.00    -0.273 N 
ATOM      7  H   UNL     1      -1.167  -5.695  -2.270  0.00  0.00    +0.173 HD
ATOM      8  C   UNL     1      -0.677  -3.760  -2.022  0.00  0.00    +0.331 A 
ATOM      9  O   UNL     1      -1.695  -3.334  -2.533  0.00  0.00    -0.246 OA
ENDROOT
BRANCH   2  10
ATOM     10  N   UNL     1       2.344  -2.473  -0.504  0.00  0.00    -0.343 N 
ATOM     11  H   UNL     1       2.194  -1.518  -0.583  0.00  0.00    +0.144 HD
ATOM     12  H   UNL     1       3.157  -2.804  -0.092  0.00  0.00    +0.144 HD
ENDBRANCH   2  10
BRANCH   3  13
ATOM     13  N   UNL     1       2.787  -5.208  -0.272  0.00  0.00    -0.339 N 
ATOM     14  H   UNL     1       3.458  -4.595   0.065  0.00  0.00    +0.146 HD
BRANCH  13  15
ATOM     15  C   UNL     1       2.995  -6.654  -0.163  0.00  0.00    +0.086 C 
BRANCH  15  16
ATOM     16  C   UNL     1       4.307  -6.927   0.575  0.00  0.00    -0.052 C 
ATOM     17  C   UNL     1       5.480  -6.418  -0.267  0.00  0.00    -0.014 C 
ATOM     18  C   UNL     1       6.791  -6.693   0.475  0.00  0.00    -0.003 C 
ATOM     19  C   UNL     1       6.734  -6.028   1.854  0.00  0.00    -0.019 C 
ATOM     20  C   UNL     1       5.516  -6.551   2.617  0.00  0.00    -0.079 C 
ATOM     21  N   UNL     1       4.293  -6.234   1.869  0.00  0.00    +0.381 N 
ATOM     22  C   UNL     1       3.122  -6.667   2.642  0.00  0.00    -0.096 C 
ATOM     23  H   UNL     1       4.242  -5.238   1.715  0.00  0.00    -0.082 HD
ENDBRANCH  15  16
ENDBRANCH  13  15
ENDBRANCH   3  13
BRANCH   1  24
ATOM     24  C   UNL     1       0.017  -1.454  -1.683  0.00  0.00    +0.128 C 
BRANCH  24  26
ATOM     25  C   UNL     1      -0.948   0.559  -0.560  0.00  0.00    +0.005 C 
ATOM     26  C   UNL     1      -0.708  -0.947  -0.435  0.00  0.00    +0.018 C 
ENDBRANCH  24  26
ENDBRANCH   1  24
TORSDOF 6
