REMARK  Name = ZINC25612481
REMARK  11 active torsions:
REMARK  status: ('A' for Active; 'I' for Inactive)
REMARK    1  A    between atoms: C_1  and  C_2
REMARK    2  A    between atoms: C_2  and  C_3
REMARK    3  A    between atoms: C_2  and  C_4
REMARK    4  A    between atoms: C_4  and  C_6
REMARK    5  A    between atoms: C_4  and  N_20
REMARK    6  A    between atoms: N_8  and  C_9
REMARK    7  A    between atoms: C_12  and  C_15
REMARK    8  A    between atoms: C_15  and  S_16
REMARK    9  A    between atoms: S_16  and  N_19
REMARK   10  A    between atoms: N_20  and  S_21
REMARK   11  A    between atoms: S_21  and  C_24
REMARK                            x       y       z     vdW  Elec       q    Type
REMARK                         _______ _______ _______ _____ _____    ______ ____
ROOT
ATOM      1  C   UNL     1       2.632  -2.628  -0.838  0.00  0.00    +0.236 C 
ATOM      2  O   UNL     1       3.662  -2.112  -0.459  0.00  0.00    -0.274 OA
ATOM      3  N   UNL     1       1.761  -1.922  -1.587  0.00  0.00    -0.284 N 
ATOM      4  H   UNL     1       0.785  -2.355  -1.850  0.00  0.00    +0.155 HD
ENDROOT
BRANCH   3   5
ATOM      5  C   UNL     1       2.100  -0.639  -2.031  0.00  0.00    +0.033 A 
ATOM      6  C   UNL     1       1.504  -0.117  -3.171  0.00  0.00    +0.023 A 
ATOM      7  C   UNL     1       1.841   1.150  -3.607  0.00  0.00    +0.007 A 
ATOM      8  C   UNL     1       2.770   1.898  -2.908  0.00  0.00    -0.025 A 
ATOM      9  C   UNL     1       3.365   1.381  -1.772  0.00  0.00    +0.007 A 
ATOM     10  C   UNL     1       3.033   0.115  -1.331  0.00  0.00    +0.023 A 
BRANCH   8  11
ATOM     11  C   UNL     1       3.136   3.280  -3.386  0.00  0.00    +0.219 C 
BRANCH  11  12
ATOM     12  S   UNL     1       2.030   4.497  -2.621  0.00  0.00    +0.031 S 
ATOM     13  O   UNL     1       0.707   4.334  -3.114  0.00  0.00    -0.158 OA
ATOM     14  O   UNL     1       2.277   4.573  -1.224  0.00  0.00    -0.158 OA
BRANCH  12  15
ATOM     15  N   UNL     1       2.527   5.959  -3.219  0.00  0.00    -0.208 NA
ATOM     16  H   UNL     1       1.900   6.759  -2.799  0.00  0.00    +0.144 HD
ATOM     17  H   UNL     1       2.434   5.957  -4.315  0.00  0.00    +0.144 HD
ENDBRANCH  12  15
ENDBRANCH  11  12
ENDBRANCH   8  11
ENDBRANCH   3   5
BRANCH   1  18
ATOM     18  C   UNL     1       2.324  -4.057  -0.471  0.00  0.00    +0.165 C 
BRANCH  18  20
ATOM     19  C   UNL     1       1.151  -5.526   1.174  0.00  0.00    +0.009 C 
ATOM     20  C   UNL     1       1.592  -4.092   0.872  0.00  0.00    +0.010 C 
ATOM     21  C   UNL     1       2.530  -3.603   1.977  0.00  0.00    +0.009 C 
ENDBRANCH  18  20
BRANCH  18  22
ATOM     22  N   UNL     1       3.574  -4.813  -0.366  0.00  0.00    -0.177 NA
ATOM     23  H   UNL     1       4.377  -4.460   0.298  0.00  0.00    +0.149 HD
BRANCH  22  24
ATOM     24  S   UNL     1       3.883  -6.053  -1.420  0.00  0.00    +0.065 S 
ATOM     25  O   UNL     1       5.240  -6.426  -1.223  0.00  0.00    -0.153 OA
ATOM     26  O   UNL     1       2.812  -6.977  -1.285  0.00  0.00    -0.153 OA
BRANCH  24  27
ATOM     27  C   UNL     1       3.774  -5.391  -3.049  0.00  0.00    +0.142 A 
ATOM     28  C   UNL     1       4.748  -4.837  -3.812  0.00  0.00    +0.036 A 
ATOM     29  C   UNL     1       4.429  -4.379  -5.077  0.00  0.00    +0.010 A 
ATOM     30  C   UNL     1       3.153  -4.498  -5.517  0.00  0.00    +0.047 A 
ATOM     31  S   UNL     1       2.354  -5.282  -4.126  0.00  0.00    -0.077 S 
ENDBRANCH  24  27
ENDBRANCH  22  24
ENDBRANCH  18  22
ENDBRANCH   1  18
TORSDOF 9
