REMARK  Name = ZINC39338114
REMARK  4 active torsions:
REMARK  status: ('A' for Active; 'I' for Inactive)
REMARK    1  A    between atoms: C_6  and  C_7
REMARK    2  A    between atoms: C_11  and  C_24
REMARK    3  A    between atoms: C_13  and  C_15
REMARK    4  A    between atoms: N_25  and  O_26
REMARK                            x       y       z     vdW  Elec       q    Type
REMARK                         _______ _______ _______ _____ _____    ______ ____
ROOT
ATOM      1  C   UNL     1      -1.265  -0.763   0.010  0.00  0.00    +0.064 C 
ATOM      2  N   UNL     1      -2.397  -0.082   0.019  0.00  0.00    -0.180 NA
ATOM      3  C   UNL     1      -3.591  -0.670   0.027  0.00  0.00    +0.251 C 
ATOM      4  O   UNL     1      -4.610  -0.007   0.035  0.00  0.00    -0.273 OA
ATOM      5  C   UNL     1      -3.652  -2.184   0.025  0.00  0.00    +0.174 C 
ATOM      6  C   UNL     1      -2.327  -2.921   0.015  0.00  0.00    -0.019 C 
ATOM      7  C   UNL     1      -1.195  -2.168   0.002  0.00  0.00    +0.031 C 
ENDROOT
BRANCH   6   8
ATOM      8  C   UNL     1      -2.269  -4.387   0.013  0.00  0.00    -0.017 A 
ATOM      9  C   UNL     1      -2.756  -5.109  -1.086  0.00  0.00    +0.012 A 
ATOM     10  C   UNL     1      -2.700  -6.484  -1.084  0.00  0.00    +0.050 A 
ATOM     11  C   UNL     1      -2.163  -7.162   0.003  0.00  0.00    +0.166 A 
ATOM     12  C   UNL     1      -1.675  -6.450   1.101  0.00  0.00    +0.167 A 
ATOM     13  C   UNL     1      -1.722  -5.071   1.106  0.00  0.00    +0.057 A 
ATOM     14  O   UNL     1      -1.206  -7.341   2.024  0.00  0.00    -0.453 OA
ATOM     15  C   UNL     1      -1.783  -8.609   1.660  0.00  0.00    +0.466 C 
ATOM     16  O   UNL     1      -1.997  -8.494   0.241  0.00  0.00    -0.453 OA
ENDBRANCH   6   8
BRANCH   1  22
ATOM     17  C   UNL     1      -0.017   1.393   0.010  0.00  0.00    +0.011 A 
ATOM     18  C   UNL     1       1.169   2.095   0.002  0.00  0.00    +0.016 A 
ATOM     19  C   UNL     1       2.378   1.419  -0.013  0.00  0.00    +0.018 A 
ATOM     20  C   UNL     1       2.404   0.034  -0.021  0.00  0.00    +0.016 A 
ATOM     21  C   UNL     1       1.225  -0.680  -0.014  0.00  0.00    +0.011 A 
ATOM     22  C   UNL     1       0.002  -0.004   0.002  0.00  0.00    -0.002 A 
ATOM     23 BR   UNL     1       4.000   2.391  -0.023  0.00  0.00    -0.050 Br
ENDBRANCH   1  22
BRANCH   5  24
ATOM     24  C   UNL     1      -4.417  -2.620   1.248  0.00  0.00    +0.148 C 
ATOM     25  N   UNL     1      -3.782  -2.939   2.327  0.00  0.00    -0.076 NA
ATOM     26  N   UNL     1      -5.793  -2.678   1.216  0.00  0.00    -0.343 N 
ATOM     27  H   UNL     1      -6.269  -2.438   0.406  0.00  0.00    +0.144 HD
ATOM     28  H   UNL     1      -6.285  -2.958   2.003  0.00  0.00    +0.144 HD
BRANCH  25  29
ATOM     29  O   UNL     1      -4.501  -3.349   3.476  0.00  0.00    -0.408 OA
ATOM     30  H   UNL     1      -3.941  -3.567   4.233  0.00  0.00    +0.328 HD
ENDBRANCH  25  29
ENDBRANCH   5  24
TORSDOF 4
