REMARK  Name = ZINC64609245
REMARK  9 active torsions:
REMARK  status: ('A' for Active; 'I' for Inactive)
REMARK    1  A    between atoms: C_1  and  C_2
REMARK    2  A    between atoms: C_5  and  C_26
REMARK    3  A    between atoms: C_6  and  N_8
REMARK    4  A    between atoms: C_9  and  C_11
REMARK    5  A    between atoms: C_11  and  C_12
REMARK    6  A    between atoms: C_11  and  N_13
REMARK    7  A    between atoms: N_13  and  C_14
REMARK    8  A    between atoms: N_20  and  C_25
REMARK    9  A    between atoms: N_23  and  C_24
REMARK                            x       y       z     vdW  Elec       q    Type
REMARK                         _______ _______ _______ _____ _____    ______ ____
ROOT
ATOM      1  C   UNL     1       0.280  -2.900   4.854  0.00  0.00    +0.154 C 
ATOM      2  C   UNL     1      -0.944  -3.798   5.039  0.00  0.00    +0.038 C 
ENDROOT
BRANCH   1   4
ATOM      3  N   UNL     1       0.052  -2.797   2.393  0.00  0.00    -0.284 N 
ATOM      4  C   UNL     1       0.150  -2.135   3.562  0.00  0.00    +0.237 C 
ATOM      5  O   UNL     1       0.134  -0.922   3.575  0.00  0.00    -0.273 OA
ATOM      6  H   UNL     1      -0.016  -3.765   2.388  0.00  0.00    +0.155 HD
BRANCH   3  12
ATOM      7  C   UNL     1       1.264   1.227  -0.158  0.00  0.00    +0.044 C 
ATOM      8  C   UNL     1       0.628  -0.137  -0.079  0.00  0.00    -0.049 A 
ATOM      9  C   UNL     1       0.038  -0.690  -1.201  0.00  0.00    +0.004 A 
ATOM     10  C   UNL     1      -0.546  -1.941  -1.133  0.00  0.00    +0.005 A 
ATOM     11  C   UNL     1      -0.543  -2.643   0.057  0.00  0.00    -0.029 A 
ATOM     12  C   UNL     1       0.048  -2.090   1.185  0.00  0.00    +0.037 A 
ATOM     13  C   UNL     1       0.639  -0.835   1.112  0.00  0.00    +0.027 A 
ATOM     14  C   UNL     1      -1.181  -4.006   0.131  0.00  0.00    +0.045 C 
ENDBRANCH   3  12
ENDBRANCH   1   4
BRANCH   1  15
ATOM     15  N   UNL     1       0.370  -1.959   5.972  0.00  0.00    -0.333 N 
ATOM     16  H   UNL     1      -0.007  -1.069   5.889  0.00  0.00    +0.147 HD
BRANCH  15  17
ATOM     17  C   UNL     1       0.999  -2.343   7.161  0.00  0.00    +0.030 A 
ATOM     18  C   UNL     1       1.544  -3.617   7.277  0.00  0.00    +0.025 A 
ATOM     19  C   UNL     1       2.167  -4.002   8.448  0.00  0.00    +0.030 A 
ATOM     20  C   UNL     1       2.249  -3.116   9.512  0.00  0.00    +0.070 A 
ATOM     21  C   UNL     1       1.703  -1.836   9.398  0.00  0.00    +0.071 A 
ATOM     22  C   UNL     1       1.083  -1.451   8.220  0.00  0.00    +0.051 A 
ATOM     23  N   UNL     1       1.938  -1.189  10.609  0.00  0.00    -0.295 N 
ATOM     24  C   UNL     1       2.597  -2.035  11.422  0.00  0.00    +0.330 A 
ATOM     25  O   UNL     1       2.955  -1.780  12.557  0.00  0.00    -0.246 OA
ATOM     26  N   UNL     1       2.800  -3.207  10.790  0.00  0.00    -0.295 N 
ATOM     27  C   UNL     1       3.483  -4.376  11.350  0.00  0.00    +0.154 C 
ATOM     28  C   UNL     1       1.537   0.180  10.941  0.00  0.00    +0.154 C 
ENDBRANCH  15  17
ENDBRANCH   1  15
TORSDOF 4
