REMARK  Name = ZINC50014794
REMARK  7 active torsions:
REMARK  status: ('A' for Active; 'I' for Inactive)
REMARK    1  A    between atoms: C_1  and  C_2
REMARK    2  A    between atoms: C_5  and  C_20
REMARK    3  A    between atoms: C_6  and  S_8
REMARK    4  A    between atoms: S_8  and  N_11
REMARK    5  A    between atoms: N_11  and  C_12
REMARK    6  A    between atoms: N_11  and  C_13
REMARK    7  A    between atoms: C_18  and  N_19
REMARK                            x       y       z     vdW  Elec       q    Type
REMARK                         _______ _______ _______ _____ _____    ______ ____
ROOT
ATOM      1  S   UNL     1       0.064  -3.276   2.870  0.00  0.00    +0.075 S 
ATOM      2  O   UNL     1       1.026  -4.263   2.523  0.00  0.00    -0.150 OA
ATOM      3  O   UNL     1       0.166  -2.496   4.054  0.00  0.00    -0.150 OA
ENDROOT
BRANCH   1   9
ATOM      4  C   UNL     1      -0.890   1.477   0.916  0.00  0.00    +0.044 C 
ATOM      5  C   UNL     1      -0.453   0.054   0.682  0.00  0.00    -0.049 A 
ATOM      6  C   UNL     1      -0.102  -0.361  -0.589  0.00  0.00    +0.004 A 
ATOM      7  C   UNL     1       0.298  -1.666  -0.804  0.00  0.00    +0.005 A 
ATOM      8  C   UNL     1       0.349  -2.556   0.253  0.00  0.00    -0.024 A 
ATOM      9  C   UNL     1       0.000  -2.141   1.524  0.00  0.00    +0.112 A 
ATOM     10  C   UNL     1      -0.397  -0.834   1.739  0.00  0.00    +0.032 A 
ATOM     11  C   UNL     1       0.785  -3.980   0.018  0.00  0.00    +0.046 C 
ENDBRANCH   1   9
BRANCH   1  12
ATOM     12  N   UNL     1      -1.401  -4.044   2.934  0.00  0.00    -0.204 N 
ATOM     13  C   UNL     1      -1.562  -5.368   2.327  0.00  0.00    +0.157 C 
BRANCH  12  14
ATOM     14  C   UNL     1      -2.487  -3.428   3.567  0.00  0.00    +0.072 A 
ATOM     15  C   UNL     1      -2.771  -3.712   4.895  0.00  0.00    +0.026 A 
ATOM     16  C   UNL     1      -3.843  -3.103   5.519  0.00  0.00    +0.002 A 
ATOM     17  C   UNL     1      -4.636  -2.209   4.823  0.00  0.00    +0.002 A 
ATOM     18  C   UNL     1      -4.361  -1.920   3.499  0.00  0.00    +0.024 A 
ATOM     19  C   UNL     1      -3.284  -2.523   2.867  0.00  0.00    +0.047 A 
BRANCH  19  20
ATOM     20  N   UNL     1      -3.001  -2.227   1.528  0.00  0.00    -0.356 N 
ATOM     21  H   UNL     1      -2.249  -2.653   1.086  0.00  0.00    +0.142 HD
ATOM     22  H   UNL     1      -3.556  -1.597   1.042  0.00  0.00    +0.142 HD
ENDBRANCH  19  20
ENDBRANCH  12  14
ENDBRANCH   1  12
TORSDOF 4
