REMARK  Name = ZINC12082899
REMARK  6 active torsions:
REMARK  status: ('A' for Active; 'I' for Inactive)
REMARK    1  A    between atoms: C_1  and  C_2
REMARK    2  A    between atoms: C_5  and  C_8
REMARK    3  A    between atoms: C_9  and  C_10
REMARK    4  A    between atoms: N_12  and  C_13
REMARK    5  A    between atoms: C_13  and  C_14
REMARK    6  A    between atoms: C_14  and  C_15
REMARK                            x       y       z     vdW  Elec       q    Type
REMARK                         _______ _______ _______ _____ _____    ______ ____
ROOT
ATOM      1  C   UNL     1       1.147   1.655   0.000  0.00  0.00    +0.237 C 
ATOM      2  O   UNL     1       1.130   2.872   0.007  0.00  0.00    -0.271 OA
ATOM      3  N   UNL     1      -0.011   0.966   0.007  0.00  0.00    -0.311 N 
ATOM      4  H   UNL     1       0.002  -0.004   0.002  0.00  0.00    +0.149 HD
ENDROOT
BRANCH   1   6
ATOM      5  C   UNL     1       3.583   1.631  -0.023  0.00  0.00    +0.013 C 
ATOM      6  C   UNL     1       2.425   0.941  -0.016  0.00  0.00    +0.068 C 
BRANCH   5  11
ATOM      7  C   UNL     1       8.600  -1.176  -0.086  0.00  0.00    +0.044 C 
ATOM      8  C   UNL     1       7.285  -0.440  -0.069  0.00  0.00    -0.050 A 
ATOM      9  C   UNL     1       7.270   0.944  -0.062  0.00  0.00    +0.004 A 
ATOM     10  C   UNL     1       6.071   1.624  -0.047  0.00  0.00    +0.008 A 
ATOM     11  C   UNL     1       4.867   0.912  -0.040  0.00  0.00    -0.025 A 
ATOM     12  C   UNL     1       4.891  -0.486  -0.041  0.00  0.00    +0.008 A 
ATOM     13  C   UNL     1       6.098  -1.152  -0.061  0.00  0.00    +0.004 A 
ENDBRANCH   5  11
ENDBRANCH   1   6
BRANCH   3  14
ATOM     14  C   UNL     1      -1.290   1.681   0.017  0.00  0.00    +0.112 C 
BRANCH  14  15
ATOM     15  C   UNL     1      -2.439   0.671   0.017  0.00  0.00    +0.093 C 
BRANCH  15  16
ATOM     16  C   UNL     1      -3.754   1.407   0.028  0.00  0.00    +0.110 A 
ATOM     17  N   UNL     1      -4.751   1.234  -0.882  0.00  0.00    -0.342 N 
ATOM     18  H   UNL     1      -4.739   0.608  -1.662  0.00  0.00    +0.167 HD
ATOM     19  C   UNL     1      -5.781   2.084  -0.529  0.00  0.00    +0.066 A 
ATOM     20  C   UNL     1      -7.035   2.353  -1.060  0.00  0.00    +0.030 A 
ATOM     21  C   UNL     1      -7.851   3.285  -0.456  0.00  0.00    +0.040 A 
ATOM     22  C   UNL     1      -7.427   3.958   0.684  0.00  0.00    +0.126 A 
ATOM     23  C   UNL     1      -6.186   3.703   1.226  0.00  0.00    +0.068 A 
ATOM     24  C   UNL     1      -5.347   2.760   0.623  0.00  0.00    +0.092 A 
ATOM     25  N   UNL     1      -4.104   2.296   0.911  0.00  0.00    -0.232 NA
ATOM     26  F   UNL     1      -8.238   4.869   1.266  0.00  0.00    -0.205 F 
ENDBRANCH  15  16
ENDBRANCH  14  15
ENDBRANCH   3  14
TORSDOF 5
