REMARK  Name = ZINC63217119
REMARK  5 active torsions:
REMARK  status: ('A' for Active; 'I' for Inactive)
REMARK    1  A    between atoms: C_1  and  C_2
REMARK    2  A    between atoms: N_4  and  C_5
REMARK    3  A    between atoms: C_8  and  C_11
REMARK    4  A    between atoms: C_28  and  C_30
REMARK    5  A    between atoms: C_28  and  C_31
REMARK                            x       y       z     vdW  Elec       q    Type
REMARK                         _______ _______ _______ _____ _____    ______ ____
ROOT
ATOM      1  C   UNL     1      -0.853  -6.349   0.342  0.00  0.00    +0.073 C 
ATOM      2  C   UNL     1      -1.590  -6.822   1.597  0.00  0.00    +0.148 C 
ATOM      3  C   UNL     1      -1.805  -8.311   1.462  0.00  0.00    +0.106 C 
ATOM      4  N   UNL     1      -1.374  -9.158   2.345  0.00  0.00    -0.151 NA
ATOM      5  C   UNL     1      -0.685  -8.780   3.431  0.00  0.00    +0.331 C 
ATOM      6  O   UNL     1      -0.332  -9.624   4.233  0.00  0.00    -0.250 OA
ATOM      7  N   UNL     1      -0.376  -7.493   3.655  0.00  0.00    -0.238 N 
ATOM      8  C   UNL     1      -0.775  -6.514   2.819  0.00  0.00    +0.231 C 
ATOM      9  O   UNL     1      -0.469  -5.364   3.053  0.00  0.00    -0.275 OA
ATOM     10  N   UNL     1      -2.471  -8.729   0.343  0.00  0.00    -0.307 N 
ATOM     11  C   UNL     1      -2.222  -8.077  -0.845  0.00  0.00    +0.016 C 
ATOM     12  C   UNL     1      -1.480  -6.957  -0.892  0.00  0.00    +0.021 C 
ATOM     13  C   UNL     1      -1.247  -6.300  -2.118  0.00  0.00    +0.162 C 
ATOM     14  O   UNL     1      -0.592  -5.277  -2.129  0.00  0.00    -0.292 OA
ATOM     15  C   UNL     1      -1.792  -6.838  -3.411  0.00  0.00    +0.086 C 
ATOM     16  C   UNL     1      -1.937  -8.360  -3.293  0.00  0.00    -0.023 C 
ATOM     17  C   UNL     1      -2.826  -8.664  -2.099  0.00  0.00    +0.058 C 
ATOM     18  C   UNL     1      -0.561  -8.995  -3.083  0.00  0.00    +0.011 C 
ATOM     19  C   UNL     1      -2.574  -8.917  -4.567  0.00  0.00    +0.011 C 
ATOM     20  H   UNL     1       0.146  -7.261   4.439  0.00  0.00    +0.159 HD
ATOM     21  H   UNL     1      -3.102  -9.464   0.384  0.00  0.00    +0.153 HD
ENDROOT
BRANCH   1  25
ATOM     22  C   UNL     1      -1.081  -2.089   0.091  0.00  0.00    +0.033 A 
ATOM     23  C   UNL     1       0.155  -2.716   0.178  0.00  0.00    +0.023 A 
ATOM     24  C   UNL     1       0.225  -4.092   0.259  0.00  0.00    +0.006 A 
ATOM     25  C   UNL     1      -0.934  -4.847   0.254  0.00  0.00    -0.039 A 
ATOM     26  C   UNL     1      -2.166  -4.226   0.168  0.00  0.00    +0.006 A 
ATOM     27  C   UNL     1      -2.244  -2.849   0.093  0.00  0.00    +0.023 A 
BRANCH  22  31
ATOM     28  C   UNL     1      -2.194   1.470   0.609  0.00  0.00    +0.109 C 
ATOM     29  C   UNL     1      -2.169  -0.037   0.608  0.00  0.00    +0.214 C 
ATOM     30  O   UNL     1      -3.061  -0.658   1.145  0.00  0.00    -0.276 OA
ATOM     31  N   UNL     1      -1.156  -0.694   0.009  0.00  0.00    -0.286 N 
ATOM     32  H   UNL     1      -0.478  -0.200  -0.478  0.00  0.00    +0.155 HD
ENDBRANCH  22  31
ENDBRANCH   1  25
TORSDOF 2
