REMARK  Name = ZINC28823565
REMARK  8 active torsions:
REMARK  status: ('A' for Active; 'I' for Inactive)
REMARK    1  A    between atoms: C_1  and  C_2
REMARK    2  A    between atoms: C_6  and  C_8
REMARK    3  A    between atoms: C_18  and  C_24
REMARK    4  A    between atoms: C_20  and  C_22
REMARK    5  A    between atoms: C_20  and  C_23
REMARK    6  A    between atoms: C_29  and  O_33
REMARK    7  A    between atoms: C_30  and  O_31
REMARK    8  A    between atoms: O_31  and  C_32
REMARK                            x       y       z     vdW  Elec       q    Type
REMARK                         _______ _______ _______ _____ _____    ______ ____
ROOT
ATOM      1  C   UNL     1       0.013   1.493  -0.193  0.00  0.00    +0.074 C 
ATOM      2  C   UNL     1       1.205   2.155  -0.183  0.00  0.00    +0.135 C 
ATOM      3  C   UNL     1       2.405   1.415  -0.159  0.00  0.00    +0.009 C 
ATOM      4  C   UNL     1       3.603   2.077  -0.165  0.00  0.00    -0.004 C 
ATOM      5  C   UNL     1       4.858   1.313  -0.168  0.00  0.00    +0.003 C 
ATOM      6  C   UNL     1       4.848   0.041   0.224  0.00  0.00    -0.041 C 
ATOM      7  C   UNL     1       3.571  -0.620   0.664  0.00  0.00    -0.035 C 
ATOM      8  C   UNL     1       2.384  -0.088  -0.135  0.00  0.00    +0.038 C 
ATOM      9  C   UNL     1       2.406  -0.635  -1.532  0.00  0.00    -0.072 C 
ATOM     10  C   UNL     1       3.144  -1.644  -1.885  0.00  0.00    -0.040 C 
ATOM     11  C   UNL     1       4.057  -2.363  -0.934  0.00  0.00    -0.054 C 
ATOM     12  N   UNL     1       3.676  -2.072   0.453  0.00  0.00    +0.389 N 
ATOM     13  C   UNL     1       5.497  -1.905  -1.171  0.00  0.00    -0.006 C 
ATOM     14  C   UNL     1       3.960  -3.870  -1.181  0.00  0.00    -0.006 C 
ATOM     15  C   UNL     1       1.532   0.016  -2.573  0.00  0.00    +0.039 C 
ATOM     16  C   UNL     1       3.597   3.550  -0.171  0.00  0.00    +0.070 A 
ATOM     17  C   UNL     1       2.362   4.218  -0.183  0.00  0.00    +0.140 A 
ATOM     18  C   UNL     1       2.335   5.604  -0.187  0.00  0.00    +0.051 A 
ATOM     19  C   UNL     1       3.516   6.322  -0.180  0.00  0.00    +0.053 A 
ATOM     20  C   UNL     1       4.739   5.669  -0.168  0.00  0.00    +0.159 A 
ATOM     21  C   UNL     1       4.787   4.280  -0.163  0.00  0.00    +0.172 A 
ATOM     22  O   UNL     1       1.210   3.506  -0.191  0.00  0.00    -0.455 OA
ATOM     23  H   UNL     1       4.440  -2.486   1.128  0.00  0.00    -0.084 HD
ATOM     24  H   UNL     1       2.705  -2.545   0.665  0.00  0.00    -0.084 HD
ENDROOT
BRANCH   1  30
ATOM     25  C   UNL     1      -2.243   5.794  -0.257  0.00  0.00    +0.065 C 
ATOM     26  C   UNL     1      -2.326   4.289  -0.248  0.00  0.00    +0.039 A 
ATOM     27  C   UNL     1      -3.564   3.675  -0.264  0.00  0.00    +0.023 A 
ATOM     28  C   UNL     1      -3.640   2.287  -0.257  0.00  0.00    +0.004 A 
ATOM     29  C   UNL     1      -2.465   1.561  -0.239  0.00  0.00    +0.028 A 
ATOM     30  C   UNL     1      -1.243   2.246  -0.218  0.00  0.00    +0.068 A 
ATOM     31  N   UNL     1      -1.216   3.579  -0.226  0.00  0.00    -0.252 NA
ENDBRANCH   1  30
BRANCH  21  32
ATOM     32  O   UNL     1       5.985   3.637  -0.151  0.00  0.00    -0.491 OA
ATOM     33  C   UNL     1       6.610   3.454   1.120  0.00  0.00    +0.277 C 
ENDBRANCH  21  32
BRANCH  20  34
ATOM     34  O   UNL     1       5.894   6.389  -0.160  0.00  0.00    -0.503 OA
ATOM     35  H   UNL     1       6.865   5.872  -0.150  0.00  0.00    +0.292 HD
ENDBRANCH  20  34
TORSDOF 3
