REMARK  Name = ZINC67575987
REMARK  8 active torsions:
REMARK  status: ('A' for Active; 'I' for Inactive)
REMARK    1  A    between atoms: C_1  and  C_2
REMARK    2  A    between atoms: C_2  and  C_4
REMARK    3  A    between atoms: C_2  and  N_13
REMARK    4  A    between atoms: N_6  and  C_7
REMARK    5  A    between atoms: C_7  and  C_8
REMARK    6  A    between atoms: N_16  and  C_17
REMARK    7  A    between atoms: C_20  and  N_24
REMARK    8  A    between atoms: C_25  and  C_27
REMARK                            x       y       z     vdW  Elec       q    Type
REMARK                         _______ _______ _______ _____ _____    ______ ____
ROOT
ATOM      1  N   UNL     1      -1.373  -0.522   0.014  0.00  0.00    -0.288 N 
ATOM      2  C   UNL     1      -2.048  -0.661  -1.145  0.00  0.00    +0.304 C 
ATOM      3  O   UNL     1      -1.518  -0.360  -2.197  0.00  0.00    -0.252 OA
ATOM      4  N   UNL     1      -3.311  -1.132  -1.137  0.00  0.00    -0.268 N 
ATOM      5  H   UNL     1      -1.796  -0.762   0.853  0.00  0.00    +0.151 HD
ATOM      6  H   UNL     1      -3.705  -1.449  -0.310  0.00  0.00    +0.156 HD
ENDROOT
BRANCH   4   7
ATOM      7  C   UNL     1      -4.054  -1.165  -2.325  0.00  0.00    +0.053 A 
ATOM      8  C   UNL     1      -3.748  -0.291  -3.360  0.00  0.00    +0.026 A 
ATOM      9  C   UNL     1      -4.480  -0.322  -4.530  0.00  0.00    +0.025 A 
ATOM     10  C   UNL     1      -5.522  -1.229  -4.673  0.00  0.00    +0.035 A 
ATOM     11  C   UNL     1      -5.829  -2.103  -3.639  0.00  0.00    +0.045 A 
ATOM     12  C   UNL     1      -5.093  -2.076  -2.470  0.00  0.00    +0.064 A 
ATOM     13 CL   UNL     1      -5.471  -3.174  -1.180  0.00  0.00    -0.082 Cl
BRANCH  10  14
ATOM     14  N   UNL     1      -6.265  -1.260  -5.861  0.00  0.00    -0.286 N 
ATOM     15  C   UNL     1      -7.584  -1.533  -5.823  0.00  0.00    +0.214 C 
ATOM     16  O   UNL     1      -8.112  -1.835  -4.774  0.00  0.00    -0.276 OA
ATOM     17  C   UNL     1      -8.404  -1.462  -7.086  0.00  0.00    +0.109 C 
ATOM     18  H   UNL     1      -5.829  -1.086  -6.710  0.00  0.00    +0.155 HD
ENDBRANCH  10  14
ENDBRANCH   4   7
BRANCH   1  20
ATOM     19  C   UNL     1      -0.028   1.520   0.009  0.00  0.00    +0.038 C 
ATOM     20  C   UNL     1      -0.001  -0.010   0.005  0.00  0.00    +0.157 C 
BRANCH  20  21
ATOM     21  C   UNL     1       0.726  -0.502   1.230  0.00  0.00    +0.233 C 
ATOM     22  O   UNL     1       0.155  -1.211   2.031  0.00  0.00    -0.274 OA
ATOM     23  N   UNL     1       2.012  -0.154   1.435  0.00  0.00    -0.307 N 
ATOM     24  H   UNL     1       2.470   0.413   0.795  0.00  0.00    +0.149 HD
BRANCH  23  25
ATOM     25  C   UNL     1       2.719  -0.633   2.626  0.00  0.00    +0.178 C 
BRANCH  25  26
ATOM     26  C   UNL     1       4.131  -0.106   2.618  0.00  0.00    +0.122 A 
ATOM     27  C   UNL     1       4.542   1.051   3.167  0.00  0.00    +0.046 A 
ATOM     28  C   UNL     1       5.932   1.148   2.927  0.00  0.00    +0.041 A 
ATOM     29  C   UNL     1       6.287   0.044   2.244  0.00  0.00    +0.195 A 
ATOM     30  O   UNL     1       5.193  -0.714   2.065  0.00  0.00    -0.466 OA
ENDBRANCH  25  26
ENDBRANCH  23  25
ENDBRANCH  20  21
ENDBRANCH   1  20
TORSDOF 6
