REMARK  Name = ZINC08947595
REMARK  9 active torsions:
REMARK  status: ('A' for Active; 'I' for Inactive)
REMARK    1  A    between atoms: C_1  and  C_2
REMARK    2  A    between atoms: C_2  and  C_17
REMARK    3  A    between atoms: N_5  and  C_9
REMARK    4  A    between atoms: C_9  and  C_10
REMARK    5  A    between atoms: N_15  and  C_16
REMARK    6  A    between atoms: C_20  and  C_23
REMARK    7  A    between atoms: C_23  and  C_24
REMARK    8  A    between atoms: C_23  and  C_25
REMARK    9  A    between atoms: C_23  and  C_26
REMARK                            x       y       z     vdW  Elec       q    Type
REMARK                         _______ _______ _______ _____ _____    ______ ____
ROOT
ATOM      1  C   UNL     1      -6.838  -4.573  -1.072  0.00  0.00    +0.047 C 
ATOM      2  C   UNL     1      -5.714  -5.502  -0.607  0.00  0.00    +0.135 C 
ATOM      3  C   UNL     1      -4.370  -5.001  -1.098  0.00  0.00    +0.251 C 
ATOM      4  O   UNL     1      -4.018  -4.859  -2.249  0.00  0.00    -0.272 OA
ATOM      5  N   UNL     1      -3.649  -4.745   0.011  0.00  0.00    -0.215 N 
ATOM      6  C   UNL     1      -4.342  -5.016   1.123  0.00  0.00    +0.310 C 
ATOM      7  O   UNL     1      -3.901  -4.870   2.247  0.00  0.00    -0.252 OA
ATOM      8  N   UNL     1      -5.582  -5.467   0.860  0.00  0.00    -0.281 N 
ATOM      9  H   UNL     1      -6.256  -5.723   1.509  0.00  0.00    +0.152 HD
ENDROOT
BRANCH   2  10
ATOM     10  C   UNL     1      -5.961  -6.910  -1.083  0.00  0.00    -0.015 A 
ATOM     11  C   UNL     1      -5.421  -7.339  -2.282  0.00  0.00    +0.006 A 
ATOM     12  C   UNL     1      -5.645  -8.632  -2.717  0.00  0.00    +0.004 A 
ATOM     13  C   UNL     1      -6.415  -9.493  -1.958  0.00  0.00    -0.042 A 
ATOM     14  C   UNL     1      -6.959  -9.063  -0.762  0.00  0.00    +0.004 A 
ATOM     15  C   UNL     1      -6.732  -7.771  -0.325  0.00  0.00    +0.006 A 
BRANCH  13  16
ATOM     16  C   UNL     1      -6.662 -10.902  -2.434  0.00  0.00    -0.013 C 
ATOM     17  C   UNL     1      -8.166 -11.123  -2.611  0.00  0.00    +0.015 C 
ATOM     18  C   UNL     1      -5.955 -11.119  -3.773  0.00  0.00    +0.015 C 
ATOM     19  C   UNL     1      -6.118 -11.892  -1.403  0.00  0.00    +0.015 C 
ENDBRANCH  13  16
ENDBRANCH   2  10
BRANCH   5  20
ATOM     20  C   UNL     1      -2.275  -4.238   0.001  0.00  0.00    +0.214 C 
BRANCH  20  21
ATOM     21  C   UNL     1      -2.295  -2.731   0.009  0.00  0.00    +0.238 C 
ATOM     22  O   UNL     1      -3.353  -2.139   0.023  0.00  0.00    -0.274 OA
ATOM     23  N   UNL     1      -1.137  -2.041   0.002  0.00  0.00    -0.239 N 
ATOM     24  C   UNL     1      -1.156  -0.694   0.009  0.00  0.00    +0.306 C 
ATOM     25  O   UNL     1      -2.216  -0.101   0.023  0.00  0.00    -0.252 OA
ATOM     26  N   UNL     1       0.002  -0.004   0.002  0.00  0.00    -0.302 N 
ATOM     27  C   UNL     1      -0.018   1.461   0.010  0.00  0.00    +0.129 C 
ATOM     28  H   UNL     1      -0.291  -2.515  -0.009  0.00  0.00    +0.159 HD
ATOM     29  H   UNL     1       0.849  -0.478  -0.009  0.00  0.00    +0.150 HD
ENDBRANCH  20  21
ENDBRANCH   5  20
TORSDOF 4
