REMARK  Name = ZINC62794778
REMARK  4 active torsions:
REMARK  status: ('A' for Active; 'I' for Inactive)
REMARK    1  A    between atoms: C_3  and  O_11
REMARK    2  A    between atoms: C_6  and  C_7
REMARK    3  A    between atoms: O_11  and  C_12
REMARK    4  A    between atoms: C_17  and  N_18
REMARK                            x       y       z     vdW  Elec       q    Type
REMARK                         _______ _______ _______ _____ _____    ______ ____
ROOT
ATOM      1  C   UNL     1      -0.009   1.352  -0.019  0.00  0.00    +0.015 A 
ATOM      2  C   UNL     1       1.168   2.069  -0.029  0.00  0.00    +0.048 A 
ATOM      3  C   UNL     1       2.388   1.405  -0.011  0.00  0.00    +0.147 A 
ATOM      4  C   UNL     1       2.428   0.015   0.019  0.00  0.00    +0.084 A 
ATOM      5  C   UNL     1       1.255  -0.708   0.028  0.00  0.00    +0.035 A 
ATOM      6  C   UNL     1       0.026  -0.044   0.010  0.00  0.00    +0.014 A 
ATOM      7 CL   UNL     1       3.955  -0.809   0.042  0.00  0.00    -0.080 Cl
ENDROOT
BRANCH   6   8
ATOM      8  C   UNL     1      -1.234  -0.816   0.021  0.00  0.00    +0.094 C 
ATOM      9  N   UNL     1      -1.199  -2.147   0.049  0.00  0.00    -0.387 N 
ATOM     10  N   UNL     1      -2.405  -0.180   0.004  0.00  0.00    -0.345 N 
ATOM     11  H   UNL     1      -0.346  -2.610   0.062  0.00  0.00    +0.157 HD
ATOM     12  H   UNL     1      -2.430   0.789  -0.017  0.00  0.00    +0.144 HD
ATOM     13  H   UNL     1      -3.232  -0.687   0.011  0.00  0.00    +0.144 HD
ATOM     14  H   UNL     1      -2.026  -2.654   0.057  0.00  0.00    +0.157 HD
ENDBRANCH   6   8
BRANCH   3  15
ATOM     15  O   UNL     1       3.545   2.115  -0.021  0.00  0.00    -0.452 OA
BRANCH  15  16
ATOM     16  C   UNL     1       4.188   2.270  -1.208  0.00  0.00    +0.160 A 
ATOM     17  C   UNL     1       3.602   1.814  -2.380  0.00  0.00    +0.068 A 
ATOM     18  C   UNL     1       4.258   1.974  -3.587  0.00  0.00    +0.045 A 
ATOM     19  C   UNL     1       5.498   2.587  -3.625  0.00  0.00    +0.022 A 
ATOM     20  C   UNL     1       6.083   3.041  -2.458  0.00  0.00    +0.038 A 
ATOM     21  C   UNL     1       5.429   2.889  -1.251  0.00  0.00    +0.168 A 
ATOM     22 CL   UNL     1       3.526   1.403  -5.054  0.00  0.00    -0.083 Cl
BRANCH  21  23
ATOM     23  N   UNL     1       6.054   3.381  -0.002  0.00  0.00    +0.060 N 
ATOM     24  O   UNL     1       7.136   3.920  -0.040  0.00  0.00    -0.126 OA
ATOM     25  O   UNL     1       5.484   3.244   1.054  0.00  0.00    -0.126 OA
ENDBRANCH  21  23
ENDBRANCH  15  16
ENDBRANCH   3  15
TORSDOF 4
