REMARK  Name = ZINC04631201
REMARK  8 active torsions:
REMARK  status: ('A' for Active; 'I' for Inactive)
REMARK    1  A    between atoms: C_1  and  C_2
REMARK    2  A    between atoms: N_7  and  C_8
REMARK    3  A    between atoms: C_8  and  C_10
REMARK    4  A    between atoms: C_8  and  C_18
REMARK    5  A    between atoms: C_13  and  O_16
REMARK    6  A    between atoms: O_16  and  C_17
REMARK    7  A    between atoms: C_24  and  C_29
REMARK    8  A    between atoms: C_27  and  O_28
REMARK                            x       y       z     vdW  Elec       q    Type
REMARK                         _______ _______ _______ _____ _____    ______ ____
ROOT
ATOM      1  C   UNL     1       1.360  -2.217  -0.036  0.00  0.00    +0.136 C 
ENDROOT
BRANCH   1   2
ATOM      2  C   UNL     1       1.603  -0.745   0.175  0.00  0.00    +0.021 A 
ATOM      3  C   UNL     1       2.902  -0.247   0.106  0.00  0.00    +0.010 A 
ATOM      4  C   UNL     1       3.155   1.078   0.292  0.00  0.00    +0.010 A 
ATOM      5  C   UNL     1       2.094   1.959   0.558  0.00  0.00    +0.004 A 
ATOM      6  C   UNL     1       2.317   3.335   0.756  0.00  0.00    +0.012 A 
ATOM      7  C   UNL     1       1.237   4.132   1.012  0.00  0.00    +0.023 A 
ATOM      8  C   UNL     1      -0.039   3.576   1.070  0.00  0.00    +0.039 A 
ATOM      9  N   UNL     1      -0.242   2.295   0.879  0.00  0.00    -0.248 NA
ATOM     10  C   UNL     1       0.771   1.460   0.631  0.00  0.00    +0.113 A 
ATOM     11  C   UNL     1       0.547   0.081   0.433  0.00  0.00    +0.148 A 
ATOM     12  C   UNL     1      -1.217   4.472   1.352  0.00  0.00    +0.065 C 
BRANCH  11  13
ATOM     13  O   UNL     1      -0.713  -0.422   0.498  0.00  0.00    -0.504 OA
ATOM     14  H   UNL     1      -1.179  -0.426  -0.350  0.00  0.00    +0.292 HD
ENDBRANCH  11  13
ENDBRANCH   1   2
BRANCH   1  21
ATOM     15  C   UNL     1       5.196  -5.375   3.531  0.00  0.00    +0.063 C 
ATOM     16  C   UNL     1       4.006  -4.503   3.222  0.00  0.00    +0.014 A 
ATOM     17  C   UNL     1       3.159  -4.119   4.243  0.00  0.00    +0.021 A 
ATOM     18  C   UNL     1       2.064  -3.316   3.953  0.00  0.00    +0.005 A 
ATOM     19  C   UNL     1       1.860  -2.928   2.641  0.00  0.00    +0.041 A 
ATOM     20  C   UNL     1       2.753  -3.352   1.663  0.00  0.00    +0.097 A 
ATOM     21  N   UNL     1       2.560  -2.969   0.341  0.00  0.00    -0.320 N 
ATOM     22  H   UNL     1       3.219  -3.200  -0.333  0.00  0.00    +0.148 HD
ATOM     23  N   UNL     1       3.833  -4.145   1.922  0.00  0.00    -0.347 N 
ATOM     24  H   UNL     1       4.474  -4.452   1.182  0.00  0.00    +0.167 HD
ENDBRANCH   1  21
BRANCH   1  25
ATOM     25  C   UNL     1       1.044  -2.470  -1.488  0.00  0.00    -0.023 A 
ATOM     26  C   UNL     1       2.055  -2.442  -2.430  0.00  0.00    +0.009 A 
ATOM     27  C   UNL     1       1.769  -2.680  -3.760  0.00  0.00    +0.046 A 
ATOM     28  C   UNL     1       0.463  -2.935  -4.152  0.00  0.00    +0.120 A 
ATOM     29  C   UNL     1      -0.551  -2.957  -3.206  0.00  0.00    +0.046 A 
ATOM     30  C   UNL     1      -0.259  -2.725  -1.876  0.00  0.00    +0.009 A 
BRANCH  28  31
ATOM     31  O   UNL     1       0.177  -3.163  -5.461  0.00  0.00    -0.495 OA
ATOM     32  C   UNL     1       1.271  -3.125  -6.380  0.00  0.00    +0.277 C 
ENDBRANCH  28  31
ENDBRANCH   1  25
TORSDOF 5
