REMARK  Name = ZINC13147417
REMARK  11 active torsions:
REMARK  status: ('A' for Active; 'I' for Inactive)
REMARK    1  A    between atoms: C_1  and  C_2
REMARK    2  A    between atoms: C_2  and  C_3
REMARK    3  A    between atoms: C_2  and  C_4
REMARK    4  A    between atoms: C_4  and  C_5
REMARK    5  A    between atoms: C_5  and  C_34
REMARK    6  A    between atoms: C_10  and  C_13
REMARK    7  A    between atoms: C_15  and  O_20
REMARK    8  A    between atoms: C_18  and  O_19
REMARK    9  A    between atoms: O_20  and  C_21
REMARK   10  A    between atoms: N_24  and  C_27
REMARK   11  A    between atoms: C_27  and  C_28
REMARK                            x       y       z     vdW  Elec       q    Type
REMARK                         _______ _______ _______ _____ _____    ______ ____
ROOT
ATOM      1  C   UNL     1      -1.645  -1.806   0.682  0.00  0.00    +0.048 C 
ATOM      2  C   UNL     1      -3.131  -2.095   0.558  0.00  0.00    +0.086 C 
ATOM      3  C   UNL     1      -3.171  -2.458  -0.975  0.00  0.00    +0.077 C 
ATOM      4  C   UNL     1      -2.056  -3.413  -1.092  0.00  0.00    -0.023 C 
ATOM      5  N   UNL     1      -0.975  -2.731  -0.282  0.00  0.00    +0.396 N 
ATOM      6  C   UNL     1      -4.581  -2.365  -1.261  0.00  0.00    +0.225 C 
ATOM      7  O   UNL     1      -5.221  -3.034  -2.044  0.00  0.00    -0.275 OA
ATOM      8  N   UNL     1      -5.043  -1.353  -0.455  0.00  0.00    -0.237 N 
ATOM      9  C   UNL     1      -4.141  -0.991   0.521  0.00  0.00    +0.225 C 
ATOM     10  O   UNL     1      -4.155   0.010   1.205  0.00  0.00    -0.275 OA
ATOM     11  H   UNL     1      -0.364  -2.206  -0.890  0.00  0.00    -0.083 HD
ATOM     12  H   UNL     1      -0.444  -3.425   0.222  0.00  0.00    -0.083 HD
ENDROOT
BRANCH   4  13
ATOM     13  C   UNL     1      -1.629  -3.564  -2.530  0.00  0.00    -0.016 A 
ATOM     14  C   UNL     1      -2.037  -2.640  -3.472  0.00  0.00    +0.051 A 
ATOM     15  C   UNL     1      -1.644  -2.779  -4.795  0.00  0.00    +0.121 A 
ATOM     16  C   UNL     1      -0.841  -3.846  -5.171  0.00  0.00    +0.049 A 
ATOM     17  C   UNL     1      -0.433  -4.770  -4.229  0.00  0.00    +0.049 A 
ATOM     18  C   UNL     1      -0.822  -4.628  -2.905  0.00  0.00    +0.119 A 
BRANCH  18  19
ATOM     19  O   UNL     1      -0.416  -5.534  -1.976  0.00  0.00    -0.507 OA
ATOM     20  H   UNL     1      -1.017  -6.284  -1.869  0.00  0.00    +0.292 HD
ENDBRANCH  18  19
BRANCH  15  21
ATOM     21  O   UNL     1      -2.045  -1.870  -5.723  0.00  0.00    -0.495 OA
ATOM     22  C   UNL     1      -1.603  -2.075  -7.066  0.00  0.00    +0.277 C 
ENDBRANCH  15  21
ENDBRANCH   4  13
BRANCH   1  23
ATOM     23  C   UNL     1      -1.173  -2.087   2.086  0.00  0.00    +0.346 C 
ATOM     24  O   UNL     1      -1.553  -1.386   3.008  0.00  0.00    -0.248 OA
ATOM     25  O   UNL     1      -0.411  -3.014   2.299  0.00  0.00    -0.248 OA
ENDBRANCH   1  23
BRANCH   1  26
ATOM     26  C   UNL     1      -1.355  -0.351   0.308  0.00  0.00    +0.002 C 
BRANCH  26  28
ATOM     27  C   UNL     1       0.443   1.262  -0.330  0.00  0.00    +0.007 C 
ATOM     28  C   UNL     1       0.157  -0.142   0.207  0.00  0.00    -0.018 C 
ATOM     29  C   UNL     1       0.787  -0.295   1.593  0.00  0.00    +0.007 C 
ENDBRANCH  26  28
ENDBRANCH   1  26
BRANCH   8  30
ATOM     30  C   UNL     1      -6.360  -0.730  -0.608  0.00  0.00    +0.151 C 
BRANCH  30  31
ATOM     31  C   UNL     1      -7.369  -1.477   0.226  0.00  0.00    -0.030 A 
ATOM     32  C   UNL     1      -8.061  -2.543  -0.317  0.00  0.00    +0.005 A 
ATOM     33  C   UNL     1      -8.986  -3.228   0.448  0.00  0.00    +0.000 A 
ATOM     34  C   UNL     1      -9.220  -2.847   1.756  0.00  0.00    +0.000 A 
ATOM     35  C   UNL     1      -8.527  -1.781   2.299  0.00  0.00    +0.000 A 
ATOM     36  C   UNL     1      -7.598  -1.099   1.535  0.00  0.00    +0.005 A 
ENDBRANCH  30  31
ENDBRANCH   8  30
TORSDOF 8
