REMARK  Name = ZINC46602167
REMARK  12 active torsions:
REMARK  status: ('A' for Active; 'I' for Inactive)
REMARK    1  A    between atoms: C_1  and  C_2
REMARK    2  A    between atoms: C_2  and  C_3
REMARK    3  A    between atoms: C_3  and  C_4
REMARK    4  A    between atoms: C_4  and  N_5
REMARK    5  A    between atoms: C_6  and  N_30
REMARK    6  A    between atoms: C_7  and  N_14
REMARK    7  A    between atoms: N_14  and  C_15
REMARK    8  A    between atoms: C_15  and  C_16
REMARK    9  A    between atoms: C_22  and  C_24
REMARK   10  A    between atoms: C_24  and  N_25
REMARK   11  A    between atoms: N_25  and  C_26
REMARK   12  A    between atoms: N_25  and  C_27
REMARK                            x       y       z     vdW  Elec       q    Type
REMARK                         _______ _______ _______ _____ _____    ______ ____
ROOT
ATOM      1  N   UNL     1       0.777  -3.425  -5.750  0.00  0.00    -0.261 N 
ATOM      2  C   UNL     1      -0.490  -3.050  -6.023  0.00  0.00    +0.204 C 
ATOM      3  O   UNL     1      -1.233  -2.723  -5.121  0.00  0.00    -0.277 OA
ENDROOT
BRANCH   1   6
ATOM      4  N   UNL     1       2.736  -2.417  -2.809  0.00  0.00    -0.280 N 
ATOM      5  C   UNL     1       2.280  -2.469  -4.106  0.00  0.00    +0.127 A 
ATOM      6  C   UNL     1       1.267  -3.349  -4.429  0.00  0.00    +0.140 A 
ATOM      7  C   UNL     1       0.730  -4.168  -3.418  0.00  0.00    +0.277 A 
ATOM      8  O   UNL     1      -0.166  -4.954  -3.676  0.00  0.00    -0.266 OA
ATOM      9  N   UNL     1       1.212  -4.077  -2.163  0.00  0.00    -0.273 N 
ATOM     10  H   UNL     1       0.843  -4.641  -1.466  0.00  0.00    +0.173 HD
ATOM     11  C   UNL     1       2.204  -3.218  -1.868  0.00  0.00    +0.331 A 
ATOM     12  O   UNL     1       2.624  -3.160  -0.728  0.00  0.00    -0.246 OA
BRANCH   5  13
ATOM     13  N   UNL     1       2.826  -1.655  -5.068  0.00  0.00    -0.343 N 
ATOM     14  H   UNL     1       3.489  -0.991  -4.822  0.00  0.00    +0.144 HD
ATOM     15  H   UNL     1       2.550  -1.744  -5.993  0.00  0.00    +0.144 HD
ENDBRANCH   5  13
BRANCH   4  16
ATOM     16  C   UNL     1       3.810  -1.488  -2.452  0.00  0.00    +0.128 C 
BRANCH  16  17
ATOM     17  C   UNL     1       5.163  -2.178  -2.637  0.00  0.00    +0.021 C 
BRANCH  17  19
ATOM     18  C   UNL     1       7.639  -1.898  -2.449  0.00  0.00    +0.004 C 
ATOM     19  C   UNL     1       6.286  -1.208  -2.264  0.00  0.00    -0.002 C 
ENDBRANCH  17  19
ENDBRANCH  16  17
ENDBRANCH   4  16
ENDBRANCH   1   6
BRANCH   1  20
ATOM     20  C   UNL     1       1.645  -3.913  -6.825  0.00  0.00    +0.149 C 
BRANCH  20  21
ATOM     21  C   UNL     1       1.473  -5.402  -6.973  0.00  0.00    -0.030 A 
ATOM     22  C   UNL     1       2.173  -6.264  -6.149  0.00  0.00    +0.005 A 
ATOM     23  C   UNL     1       2.015  -7.631  -6.285  0.00  0.00    +0.000 A 
ATOM     24  C   UNL     1       1.157  -8.136  -7.244  0.00  0.00    +0.000 A 
ATOM     25  C   UNL     1       0.457  -7.274  -8.068  0.00  0.00    +0.000 A 
ATOM     26  C   UNL     1       0.611  -5.907  -7.929  0.00  0.00    +0.005 A 
ENDBRANCH  20  21
ENDBRANCH   1  20
BRANCH   2  27
ATOM     27  C   UNL     1      -0.982  -3.037  -7.447  0.00  0.00    +0.019 C 
BRANCH  27  28
ATOM     28  N   UNL     1      -2.321  -2.437  -7.497  0.00  0.00    +0.385 N 
ATOM     29  C   UNL     1      -2.240  -1.024  -7.101  0.00  0.00    -0.095 C 
ATOM     30  H   UNL     1      -2.934  -2.929  -6.865  0.00  0.00    -0.081 HD
BRANCH  28  31
ATOM     31  C   UNL     1      -2.850  -2.532  -8.865  0.00  0.00    -0.068 C 
ATOM     32  C   UNL     1      -4.246  -3.132  -9.042  0.00  0.00    -0.017 C 
ATOM     33  C   UNL     1      -3.011  -3.931  -9.463  0.00  0.00    -0.017 C 
ENDBRANCH  28  31
ENDBRANCH  27  28
ENDBRANCH   2  27
TORSDOF 10
