REMARK  Name = ZINC24097286
REMARK  11 active torsions:
REMARK  status: ('A' for Active; 'I' for Inactive)
REMARK    1  A    between atoms: C_1  and  C_2
REMARK    2  A    between atoms: C_2  and  O_3
REMARK    3  A    between atoms: O_3  and  C_4
REMARK    4  A    between atoms: C_7  and  O_10
REMARK    5  A    between atoms: O_10  and  C_11
REMARK    6  A    between atoms: C_11  and  C_12
REMARK    7  A    between atoms: C_12  and  C_14
REMARK    8  A    between atoms: C_12  and  O_33
REMARK    9  A    between atoms: C_14  and  N_15
REMARK   10  A    between atoms: C_18  and  C_22
REMARK   11  A    between atoms: C_18  and  C_23
REMARK                            x       y       z     vdW  Elec       q    Type
REMARK                         _______ _______ _______ _____ _____    ______ ____
ROOT
ATOM      1  N   UNL     1       2.314  -9.843  -4.384  0.00  0.00    -0.221 N 
ATOM      2  C   UNL     1       3.263 -10.679  -3.917  0.00  0.00    +0.251 C 
ATOM      3  O   UNL     1       4.310 -10.375  -3.389  0.00  0.00    -0.272 OA
ATOM      4  C   UNL     1       2.746 -12.078  -4.190  0.00  0.00    +0.135 C 
ATOM      5  N   UNL     1       1.444 -11.846  -4.839  0.00  0.00    -0.281 N 
ATOM      6  C   UNL     1       1.279 -10.513  -4.904  0.00  0.00    +0.310 C 
ATOM      7  O   UNL     1       0.299  -9.976  -5.383  0.00  0.00    -0.252 OA
ATOM      8  C   UNL     1       3.692 -12.827  -5.131  0.00  0.00    +0.047 C 
ATOM      9  H   UNL     1       0.826 -12.523  -5.156  0.00  0.00    +0.152 HD
ENDROOT
BRANCH   4  10
ATOM     10  C   UNL     1       2.568 -12.837  -2.900  0.00  0.00    -0.012 A 
ATOM     11  C   UNL     1       3.377 -12.555  -1.815  0.00  0.00    +0.010 A 
ATOM     12  C   UNL     1       3.217 -13.251  -0.632  0.00  0.00    +0.050 A 
ATOM     13  C   UNL     1       2.244 -14.234  -0.529  0.00  0.00    +0.162 A 
ATOM     14  C   UNL     1       1.429 -14.516  -1.619  0.00  0.00    +0.162 A 
ATOM     15  C   UNL     1       1.592 -13.811  -2.803  0.00  0.00    +0.055 A 
ATOM     16  O   UNL     1       0.463 -15.471  -1.538  0.00  0.00    -0.485 OA
ATOM     17  C   UNL     1       0.572 -16.407  -0.460  0.00  0.00    +0.270 C 
ATOM     18  C   UNL     1       0.873 -15.625   0.826  0.00  0.00    +0.270 C 
ATOM     19  O   UNL     1       2.101 -14.913   0.641  0.00  0.00    -0.485 OA
ENDBRANCH   4  10
BRANCH   1  20
ATOM     20  C   UNL     1       2.403  -8.382  -4.324  0.00  0.00    +0.152 C 
BRANCH  20  21
ATOM     21  C   UNL     1       1.793  -7.887  -3.011  0.00  0.00    +0.170 C 
BRANCH  21  22
ATOM     22  O   UNL     1       2.579  -8.359  -1.914  0.00  0.00    -0.387 OA
ATOM     23  H   UNL     1       3.498  -8.061  -1.932  0.00  0.00    +0.210 HD
ENDBRANCH  21  22
BRANCH  21  24
ATOM     24  C   UNL     1       1.772  -6.357  -3.002  0.00  0.00    +0.261 C 
BRANCH  24  25
ATOM     25  O   UNL     1       1.099  -5.897  -1.829  0.00  0.00    -0.489 OA
BRANCH  25  29
ATOM     26  C   UNL     1       0.777  -1.811  -1.336  0.00  0.00    +0.121 A 
ATOM     27  C   UNL     1       0.242  -2.668  -0.386  0.00  0.00    +0.049 A 
ATOM     28  C   UNL     1       0.350  -4.035  -0.551  0.00  0.00    +0.049 A 
ATOM     29  C   UNL     1       0.992  -4.551  -1.667  0.00  0.00    +0.121 A 
ATOM     30  C   UNL     1       1.526  -3.693  -2.618  0.00  0.00    +0.049 A 
ATOM     31  C   UNL     1       1.414  -2.326  -2.455  0.00  0.00    +0.049 A 
BRANCH  26  32
ATOM     32  O   UNL     1       0.671  -0.465  -1.174  0.00  0.00    -0.492 OA
BRANCH  32  34
ATOM     33  C   UNL     1      -0.019   1.526   0.010  0.00  0.00    +0.048 C 
ATOM     34  C   UNL     1       0.002  -0.004   0.002  0.00  0.00    +0.225 C 
ENDBRANCH  32  34
ENDBRANCH  26  32
ENDBRANCH  25  29
ENDBRANCH  24  25
ENDBRANCH  21  24
ENDBRANCH  20  21
ENDBRANCH   1  20
TORSDOF 9
