REMARK  Name = ZINC39544287
REMARK  6 active torsions:
REMARK  status: ('A' for Active; 'I' for Inactive)
REMARK    1  A    between atoms: C_1  and  C_2
REMARK    2  A    between atoms: C_2  and  C_3
REMARK    3  A    between atoms: C_3  and  N_4
REMARK    4  A    between atoms: N_4  and  C_5
REMARK    5  A    between atoms: C_10  and  O_11
REMARK    6  A    between atoms: C_12  and  C_14
REMARK                            x       y       z     vdW  Elec       q    Type
REMARK                         _______ _______ _______ _____ _____    ______ ____
ROOT
ATOM      1  C   UNL     1      -1.368  -1.932   2.490  0.00  0.00    +0.150 C 
ATOM      2  C   UNL     1      -0.848  -1.100   3.678  0.00  0.00    +0.081 C 
ATOM      3  C   UNL     1      -1.589  -1.658   4.872  0.00  0.00    +0.055 C 
ATOM      4  C   UNL     1      -2.378  -2.626   4.481  0.00  0.00    +0.090 C 
ATOM      5  N   UNL     1      -3.255  -3.364   5.301  0.00  0.00    -0.303 N 
ATOM      6  C   UNL     1      -4.475  -3.713   4.698  0.00  0.00    +0.037 A 
ATOM      7  C   UNL     1      -5.461  -4.339   5.447  0.00  0.00    +0.023 A 
ATOM      8  C   UNL     1      -6.656  -4.691   4.851  0.00  0.00    +0.002 A 
ATOM      9  C   UNL     1      -6.864  -4.417   3.511  0.00  0.00    +0.000 A 
ATOM     10  C   UNL     1      -5.885  -3.789   2.767  0.00  0.00    +0.007 A 
ATOM     11  C   UNL     1      -4.684  -3.428   3.356  0.00  0.00    -0.010 A 
ATOM     12  C   UNL     1      -3.646  -2.722   2.524  0.00  0.00    +0.124 C 
ATOM     13  N   UNL     1      -2.310  -2.883   3.102  0.00  0.00    -0.369 NA
ATOM     14 CL   UNL     1      -1.420  -1.101   6.508  0.00  0.00    -0.085 Cl
ATOM     15  H   UNL     1      -3.033  -3.612   6.212  0.00  0.00    +0.153 HD
ATOM     16  H   UNL     1      -1.988  -3.827   2.947  0.00  0.00    +0.129 HD
ENDROOT
BRANCH   1  18
ATOM     17  N   UNL     1       0.762  -1.976   1.234  0.00  0.00    -0.267 N 
ATOM     18  C   UNL     1      -0.234  -2.667   1.823  0.00  0.00    +0.239 C 
ATOM     19  O   UNL     1      -0.218  -3.879   1.816  0.00  0.00    -0.273 OA
BRANCH  17  20
ATOM     20  C   UNL     1       1.816  -2.659   0.613  0.00  0.00    +0.078 A 
ATOM     21  C   UNL     1       2.947  -3.000   1.340  0.00  0.00    +0.027 A 
ATOM     22  C   UNL     1       3.986  -3.674   0.726  0.00  0.00    +0.002 A 
ATOM     23  C   UNL     1       3.902  -4.009  -0.613  0.00  0.00    +0.004 A 
ATOM     24  C   UNL     1       2.778  -3.671  -1.344  0.00  0.00    +0.047 A 
ATOM     25  C   UNL     1       1.730  -3.002  -0.734  0.00  0.00    +0.138 A 
BRANCH  25  26
ATOM     26  O   UNL     1       0.621  -2.675  -1.451  0.00  0.00    -0.505 OA
ATOM     27  H   UNL     1       0.670  -1.809  -1.878  0.00  0.00    +0.292 HD
ENDBRANCH  25  26
ENDBRANCH  17  20
BRANCH  17  28
ATOM     28  C   UNL     1       0.742  -0.511   1.242  0.00  0.00    +0.113 C 
BRANCH  28  30
ATOM     29  C   UNL     1      -0.019   1.526   0.010  0.00  0.00    +0.005 C 
ATOM     30  C   UNL     1       0.002  -0.004   0.002  0.00  0.00    +0.016 C 
ENDBRANCH  28  30
ENDBRANCH  17  28
ENDBRANCH   1  18
TORSDOF 5
