REMARK  Name = ZINC65547807
REMARK  5 active torsions:
REMARK  status: ('A' for Active; 'I' for Inactive)
REMARK    1  A    between atoms: C_1  and  C_2
REMARK    2  A    between atoms: C_7  and  C_8
REMARK    3  A    between atoms: C_7  and  C_9
REMARK    4  A    between atoms: C_11  and  N_13
REMARK    5  A    between atoms: C_14  and  C_16
REMARK                            x       y       z     vdW  Elec       q    Type
REMARK                         _______ _______ _______ _____ _____    ______ ____
ROOT
ATOM      1  N   UNL     1      -0.124  -0.708  -2.377  0.00  0.00    -0.312 N 
ATOM      2  C   UNL     1       0.414  -0.654  -3.611  0.00  0.00    +0.216 C 
ATOM      3  O   UNL     1       1.617  -0.572  -3.746  0.00  0.00    -0.276 OA
ATOM      4  H   UNL     1      -1.085  -0.773  -2.269  0.00  0.00    +0.149 HD
ENDROOT
BRANCH   2   5
ATOM      5  C   UNL     1      -0.478  -0.694  -4.825  0.00  0.00    +0.075 C 
ATOM      6  C   UNL     1      -1.443   0.493  -4.787  0.00  0.00    +0.015 C 
ATOM      7  C   UNL     1      -2.357   0.445  -6.014  0.00  0.00    +0.036 C 
ATOM      8  C   UNL     1      -1.511   0.496  -7.282  0.00  0.00    +0.112 C 
ATOM      9  C   UNL     1      -0.529  -0.670  -7.322  0.00  0.00    +0.036 C 
ATOM     10  C   UNL     1       0.378  -0.618  -6.090  0.00  0.00    +0.015 C 
ATOM     11  C   UNL     1      -2.395   0.485  -8.508  0.00  0.00    +0.244 C 
ATOM     12  O   UNL     1      -3.168  -0.385  -8.847  0.00  0.00    -0.273 OA
ATOM     13  N   UNL     1      -2.142   1.647  -9.145  0.00  0.00    -0.238 N 
ATOM     14  C   UNL     1      -1.230   2.378  -8.493  0.00  0.00    +0.307 C 
ATOM     15  O   UNL     1      -0.838   3.465  -8.872  0.00  0.00    -0.252 OA
ATOM     16  N   UNL     1      -0.794   1.775  -7.370  0.00  0.00    -0.285 N 
ATOM     17  H   UNL     1      -2.568   1.919  -9.973  0.00  0.00    +0.159 HD
ATOM     18  H   UNL     1      -0.138   2.117  -6.744  0.00  0.00    +0.151 HD
ENDBRANCH   2   5
BRANCH   1  28
ATOM     19  C   UNL     1       2.079   1.558  -1.534  0.00  0.00    +0.013 C 
ATOM     20  C   UNL     1       0.998   0.805  -0.757  0.00  0.00    -0.008 C 
ATOM     21  C   UNL     1      -0.411   1.472  -0.730  0.00  0.00    +0.009 C 
ATOM     22  C   UNL     1      -1.124   0.831   0.483  0.00  0.00    +0.005 C 
ATOM     23  C   UNL     1      -0.078  -0.163   1.074  0.00  0.00    -0.003 C 
ATOM     24  C   UNL     1       1.256   0.610   0.778  0.00  0.00    -0.025 C 
ATOM     25  C   UNL     1       1.324   1.944   1.523  0.00  0.00    +0.012 C 
ATOM     26  C   UNL     1       2.490  -0.254   1.047  0.00  0.00    +0.012 C 
ATOM     27  C   UNL     1      -0.004  -1.318   0.030  0.00  0.00    +0.027 C 
ATOM     28  C   UNL     1       0.744  -0.669  -1.197  0.00  0.00    +0.080 C 
ENDBRANCH   1  28
TORSDOF 2
