REMARK  Name = ZINC43352789
REMARK  7 active torsions:
REMARK  status: ('A' for Active; 'I' for Inactive)
REMARK    1  A    between atoms: C_1  and  C_2
REMARK    2  A    between atoms: C_2  and  C_4
REMARK    3  A    between atoms: C_2  and  N_21
REMARK    4  A    between atoms: C_4  and  C_6
REMARK    5  A    between atoms: C_4  and  S_12
REMARK    6  A    between atoms: S_12  and  C_13
REMARK    7  A    between atoms: C_17  and  N_19
REMARK                            x       y       z     vdW  Elec       q    Type
REMARK                         _______ _______ _______ _____ _____    ______ ____
ROOT
ATOM      1  C   UNL     1       0.836  -0.542   1.172  0.00  0.00    +0.071 C 
ENDROOT
BRANCH   1   2
ATOM      2  C   UNL     1       0.970  -2.042   1.115  0.00  0.00    -0.018 A 
ATOM      3  C   UNL     1       2.221  -2.631   1.002  0.00  0.00    +0.007 A 
ATOM      4  C   UNL     1       2.296  -4.015   0.953  0.00  0.00    +0.020 A 
ATOM      5  C   UNL     1       1.131  -4.755   1.016  0.00  0.00    +0.111 A 
ATOM      6  N   UNL     1      -0.041  -4.161   1.123  0.00  0.00    -0.263 NA
ATOM      7  C   UNL     1      -0.150  -2.848   1.179  0.00  0.00    +0.115 A 
ENDBRANCH   1   2
BRANCH   1   9
ATOM      8  C   UNL     1      -0.112   1.465   0.026  0.00  0.00    -0.013 C 
ATOM      9  C   UNL     1      -0.025  -0.062   0.002  0.00  0.00    -0.060 C 
BRANCH   9  10
ATOM     10  N   UNL     1       0.581  -0.498  -1.263  0.00  0.00    +0.381 N 
ATOM     11  H   UNL     1       1.508  -0.107  -1.345  0.00  0.00    -0.090 HD
ATOM     12  H   UNL     1       0.638  -1.505  -1.279  0.00  0.00    -0.090 HD
ATOM     13  H   UNL     1       0.013  -0.181  -2.035  0.00  0.00    -0.090 HD
ENDBRANCH   9  10
ENDBRANCH   1   9
BRANCH   1  14
ATOM     14  S   UNL     1       0.051  -0.065   2.736  0.00  0.00    -0.079 S 
BRANCH  14  15
ATOM     15  C   UNL     1       1.261  -0.454   3.957  0.00  0.00    +0.192 A 
ATOM     16  N   UNL     1       2.386  -1.046   3.584  0.00  0.00    -0.207 NA
ATOM     17  C   UNL     1       3.323  -1.354   4.478  0.00  0.00    +0.122 A 
ATOM     18  C   UNL     1       3.107  -1.046   5.818  0.00  0.00    +0.086 A 
ATOM     19  C   UNL     1       1.913  -0.425   6.172  0.00  0.00    +0.122 A 
ATOM     20  N   UNL     1       1.024  -0.142   5.223  0.00  0.00    -0.207 NA
ATOM     21  N   UNL     1       4.497  -1.973   4.080  0.00  0.00    -0.343 N 
ATOM     22  H   UNL     1       4.641  -2.185   3.144  0.00  0.00    +0.144 HD
ATOM     23  H   UNL     1       5.176  -2.195   4.737  0.00  0.00    +0.144 HD
BRANCH  19  24
ATOM     24  N   UNL     1       1.655  -0.100   7.495  0.00  0.00    -0.343 N 
ATOM     25  H   UNL     1       2.309  -0.306   8.181  0.00  0.00    +0.144 HD
ATOM     26  H   UNL     1       0.821   0.333   7.734  0.00  0.00    +0.144 HD
ENDBRANCH  19  24
ENDBRANCH  14  15
ENDBRANCH   1  14
TORSDOF 6
