REMARK  Name = ZINC35379037
REMARK  8 active torsions:
REMARK  status: ('A' for Active; 'I' for Inactive)
REMARK    1  A    between atoms: C_1  and  C_2
REMARK    2  A    between atoms: C_7  and  S_8
REMARK    3  A    between atoms: S_8  and  N_11
REMARK    4  A    between atoms: C_15  and  C_18
REMARK    5  A    between atoms: N_20  and  C_21
REMARK    6  A    between atoms: C_24  and  C_27
REMARK    7  A    between atoms: C_27  and  C_29
REMARK    8  A    between atoms: C_31  and  C_36
REMARK                            x       y       z     vdW  Elec       q    Type
REMARK                         _______ _______ _______ _____ _____    ______ ____
ROOT
ATOM      1  N   UNL     1       1.443   1.023   2.807  0.00  0.00    -0.176 NA
ATOM      2  C   UNL     1       2.634   0.415   3.416  0.00  0.00    +0.109 C 
ATOM      3  C   UNL     1       3.167   1.355   4.502  0.00  0.00    +0.018 C 
ATOM      4  C   UNL     1       3.408   2.741   3.899  0.00  0.00    +0.015 C 
ATOM      5  C   UNL     1       2.086   3.308   3.375  0.00  0.00    +0.091 C 
ATOM      6  C   UNL     1       1.543   2.388   2.271  0.00  0.00    +0.122 C 
ENDROOT
BRANCH   5   7
ATOM      7  C   UNL     1       2.319   4.686   2.811  0.00  0.00    +0.222 C 
ATOM      8  O   UNL     1       2.071   4.914   1.646  0.00  0.00    -0.275 OA
ATOM      9  N   UNL     1       2.802   5.665   3.601  0.00  0.00    -0.285 N 
ATOM     10  H   UNL     1       2.938   5.501   4.547  0.00  0.00    +0.155 HD
BRANCH   9  11
ATOM     11  C   UNL     1       3.107   6.911   3.058  0.00  0.00    +0.033 A 
ATOM     12  C   UNL     1       4.194   7.632   3.544  0.00  0.00    +0.024 A 
ATOM     13  C   UNL     1       4.498   8.859   3.013  0.00  0.00    +0.013 A 
ATOM     14  C   UNL     1       3.712   9.386   1.980  0.00  0.00    +0.017 A 
ATOM     15  C   UNL     1       2.619   8.657   1.495  0.00  0.00    +0.013 A 
ATOM     16  C   UNL     1       2.326   7.429   2.029  0.00  0.00    +0.024 A 
BRANCH  14  17
ATOM     17  C   UNL     1       4.033  10.700   1.408  0.00  0.00    +0.160 C 
ATOM     18  O   UNL     1       5.032  11.289   1.764  0.00  0.00    -0.292 OA
ATOM     19  C   UNL     1       3.122  11.317   0.379  0.00  0.00    +0.091 C 
ENDBRANCH  14  17
ENDBRANCH   9  11
ENDBRANCH   5   7
BRANCH   1  20
ATOM     20  S   UNL     1       0.018   0.184   2.720  0.00  0.00    +0.061 S 
ATOM     21  O   UNL     1      -1.018   1.152   2.621  0.00  0.00    -0.153 OA
ATOM     22  O   UNL     1       0.056  -0.789   3.755  0.00  0.00    -0.153 OA
BRANCH  20  29
ATOM     23  C   UNL     1       0.003   1.497   0.001  0.00  0.00    +0.046 C 
ATOM     24  C   UNL     1       0.020  -0.010  -0.001  0.00  0.00    -0.022 A 
ATOM     25  C   UNL     1       0.033  -0.697  -1.202  0.00  0.00    +0.032 A 
ATOM     26  C   UNL     1       0.047  -2.082  -1.201  0.00  0.00    +0.076 A 
ATOM     27  C   UNL     1       0.048  -2.779   0.006  0.00  0.00    +0.145 A 
ATOM     28  C   UNL     1       0.036  -2.084   1.203  0.00  0.00    +0.076 A 
ATOM     29  C   UNL     1       0.027  -0.700   1.196  0.00  0.00    +0.112 A 
ATOM     30  O   UNL     1       0.060  -4.138  -0.006  0.00  0.00    -0.478 OA
ATOM     31  C   UNL     1      -0.621  -4.777  -1.089  0.00  0.00    +0.256 C 
ATOM     32  C   UNL     1      -0.240  -4.115  -2.388  0.00  0.00    +0.258 C 
ATOM     33  O   UNL     1      -0.205  -4.762  -3.414  0.00  0.00    -0.271 OA
ATOM     34  N   UNL     1       0.061  -2.799  -2.406  0.00  0.00    -0.280 N 
ATOM     35  C   UNL     1      -0.229  -6.255  -1.137  0.00  0.00    +0.062 C 
ATOM     36  H   UNL     1       0.284  -2.356  -3.240  0.00  0.00    +0.155 HD
ENDBRANCH  20  29
ENDBRANCH   1  20
TORSDOF 5
