REMARK  Name = ZINC15829728
REMARK  5 active torsions:
REMARK  status: ('A' for Active; 'I' for Inactive)
REMARK    1  A    between atoms: C_1  and  C_2
REMARK    2  A    between atoms: C_5  and  N_9
REMARK    3  A    between atoms: C_10  and  C_12
REMARK    4  A    between atoms: C_12  and  S_13
REMARK    5  A    between atoms: S_13  and  C_14
REMARK                            x       y       z     vdW  Elec       q    Type
REMARK                         _______ _______ _______ _____ _____    ______ ____
ROOT
ATOM      1  C   UNL     1      -7.147  -0.057  -1.909  0.00  0.00    +0.198 A 
ATOM      2  N   UNL     1      -6.221  -0.068  -2.840  0.00  0.00    -0.122 NA
ATOM      3  N   UNL     1      -5.074   0.225  -2.333  0.00  0.00    -0.128 NA
ATOM      4  C   UNL     1      -5.203   0.440  -1.047  0.00  0.00    +0.173 A 
ATOM      5  N   UNL     1      -6.533   0.267  -0.731  0.00  0.00    -0.260 N 
ATOM      6  C   UNL     1      -6.968   0.429   0.552  0.00  0.00    +0.208 A 
ATOM      7  N   UNL     1      -6.147   0.748   1.512  0.00  0.00    -0.230 NA
ATOM      8  C   UNL     1      -4.847   0.934   1.304  0.00  0.00    +0.114 A 
ATOM      9  C   UNL     1      -4.262   0.802   0.036  0.00  0.00    +0.056 A 
ATOM     10  C   UNL     1      -2.865   1.028  -0.049  0.00  0.00    -0.024 A 
ATOM     11  C   UNL     1      -2.210   1.349   1.091  0.00  0.00    -0.004 A 
ATOM     12  S   UNL     1      -3.469   1.362   2.340  0.00  0.00    -0.073 S 
ATOM     13  C   UNL     1      -0.745   1.629   1.257  0.00  0.00    +0.043 C 
ATOM     14  C   UNL     1      -0.018   1.139  -0.004  0.00  0.00    +0.005 C 
ATOM     15  C   UNL     1      -0.771   1.648  -1.237  0.00  0.00    +0.005 C 
ATOM     16  C   UNL     1      -2.108   0.917  -1.371  0.00  0.00    +0.037 C 
ENDROOT
BRANCH   1  17
ATOM     17  S   UNL     1      -8.861  -0.398  -2.135  0.00  0.00    -0.076 S 
BRANCH  17  18
ATOM     18  C   UNL     1      -9.008  -0.750  -3.909  0.00  0.00    +0.173 C 
BRANCH  18  20
ATOM     19  N   UNL     1     -10.793  -1.357  -5.510  0.00  0.00    -0.285 N 
ATOM     20  C   UNL     1     -10.444  -1.062  -4.242  0.00  0.00    +0.227 C 
ATOM     21  O   UNL     1     -11.286  -1.048  -3.369  0.00  0.00    -0.275 OA
ATOM     22  H   UNL     1     -10.134  -1.303  -6.219  0.00  0.00    +0.155 HD
BRANCH  19  27
ATOM     23  C   UNL     1     -16.117  -2.917  -6.701  0.00  0.00    +0.047 C 
ATOM     24  C   UNL     1     -14.704  -2.502  -6.384  0.00  0.00    -0.015 A 
ATOM     25  C   UNL     1     -13.648  -3.063  -7.078  0.00  0.00    +0.008 A 
ATOM     26  C   UNL     1     -12.351  -2.681  -6.795  0.00  0.00    +0.024 A 
ATOM     27  C   UNL     1     -12.106  -1.740  -5.803  0.00  0.00    +0.036 A 
ATOM     28  C   UNL     1     -13.167  -1.177  -5.106  0.00  0.00    +0.062 A 
ATOM     29  C   UNL     1     -14.464  -1.559  -5.398  0.00  0.00    +0.128 A 
ATOM     30  F   UNL     1     -15.498  -1.012  -4.721  0.00  0.00    -0.205 F 
ENDBRANCH  19  27
ENDBRANCH  18  20
ENDBRANCH  17  18
ENDBRANCH   1  17
TORSDOF 4
