REMARK  Name = ZINC40642145
REMARK  5 active torsions:
REMARK  status: ('A' for Active; 'I' for Inactive)
REMARK    1  A    between atoms: C_1  and  C_2
REMARK    2  A    between atoms: C_8  and  C_10
REMARK    3  A    between atoms: C_10  and  C_12
REMARK    4  A    between atoms: C_10  and  C_18
REMARK    5  A    between atoms: C_12  and  C_13
REMARK                            x       y       z     vdW  Elec       q    Type
REMARK                         _______ _______ _______ _____ _____    ______ ____
ROOT
ATOM      1  C   UNL     1      -3.646  -4.389  -0.006  0.00  0.00    +0.112 C 
ENDROOT
BRANCH   1   9
ATOM      2  C   UNL     1      -0.018   1.503   0.010  0.00  0.00    +0.089 C 
ATOM      3  C   UNL     1       0.002  -0.004   0.002  0.00  0.00    +0.136 A 
ATOM      4  C   UNL     1      -1.076  -0.808   0.003  0.00  0.00    +0.091 A 
ATOM      5  C   UNL     1      -0.625  -2.147  -0.007  0.00  0.00    +0.168 A 
ATOM      6  N   UNL     1       0.683  -2.130  -0.013  0.00  0.00    -0.063 NA
ATOM      7  O   UNL     1       1.100  -0.776  -0.013  0.00  0.00    -0.358 OA
ATOM      8  N   UNL     1      -1.432  -3.285  -0.010  0.00  0.00    -0.267 N 
ATOM      9  C   UNL     1      -2.774  -3.159  -0.003  0.00  0.00    +0.226 C 
ATOM     10  O   UNL     1      -3.280  -2.057   0.006  0.00  0.00    -0.275 OA
ATOM     11  H   UNL     1      -1.027  -4.166  -0.017  0.00  0.00    +0.156 HD
ENDBRANCH   1   9
BRANCH   1  12
ATOM     12  C   UNL     1      -5.095  -3.977   0.004  0.00  0.00    -0.035 A 
ATOM     13  C   UNL     1      -5.590  -3.213   1.045  0.00  0.00    +0.007 A 
ATOM     14  C   UNL     1      -6.919  -2.835   1.054  0.00  0.00    +0.038 A 
ATOM     15  C   UNL     1      -7.755  -3.221   0.020  0.00  0.00    +0.123 A 
ATOM     16  C   UNL     1      -7.259  -3.985  -1.022  0.00  0.00    +0.038 A 
ATOM     17  C   UNL     1      -5.928  -4.358  -1.032  0.00  0.00    +0.007 A 
ATOM     18  F   UNL     1      -9.055  -2.852   0.029  0.00  0.00    -0.205 F 
ENDBRANCH   1  12
BRANCH   1  19
ATOM     19  C   UNL     1      -3.346  -5.229   1.237  0.00  0.00    +0.091 C 
BRANCH  19  20
ATOM     20  C   UNL     1      -4.127  -6.517   1.173  0.00  0.00    +0.106 A 
ATOM     21  C   UNL     1      -3.702  -7.668   0.622  0.00  0.00    +0.044 A 
ATOM     22  C   UNL     1      -4.745  -8.609   0.783  0.00  0.00    +0.041 A 
ATOM     23  C   UNL     1      -5.745  -7.976   1.423  0.00  0.00    +0.195 A 
ATOM     24  O   UNL     1      -5.362  -6.711   1.662  0.00  0.00    -0.468 OA
ENDBRANCH  19  20
ENDBRANCH   1  19
TORSDOF 4
