REMARK  Name = ZINC49232233
REMARK  10 active torsions:
REMARK  status: ('A' for Active; 'I' for Inactive)
REMARK    1  A    between atoms: C_1  and  C_2
REMARK    2  A    between atoms: C_2  and  N_3
REMARK    3  A    between atoms: C_4  and  C_6
REMARK    4  A    between atoms: C_6  and  C_8
REMARK    5  A    between atoms: C_6  and  N_9
REMARK    6  A    between atoms: N_9  and  S_10
REMARK    7  A    between atoms: S_10  and  C_13
REMARK    8  A    between atoms: C_16  and  C_19
REMARK    9  A    between atoms: C_20  and  C_21
REMARK   10  A    between atoms: C_21  and  N_22
REMARK                            x       y       z     vdW  Elec       q    Type
REMARK                         _______ _______ _______ _____ _____    ______ ____
ROOT
ATOM      1  S   UNL     1       2.919  -4.591   3.196  0.00  0.00    +0.059 S 
ATOM      2  O   UNL     1       2.627  -5.977   3.077  0.00  0.00    -0.153 OA
ATOM      3  O   UNL     1       4.064  -4.000   2.596  0.00  0.00    -0.153 OA
ENDROOT
BRANCH   1   4
ATOM      4  C   UNL     1       3.017  -4.244   4.920  0.00  0.00    +0.105 A 
ATOM      5  C   UNL     1       3.743  -3.152   5.363  0.00  0.00    +0.030 A 
ATOM      6  C   UNL     1       3.823  -2.874   6.712  0.00  0.00    +0.019 A 
ATOM      7  C   UNL     1       3.171  -3.697   7.631  0.00  0.00    +0.025 A 
ATOM      8  C   UNL     1       2.441  -4.797   7.178  0.00  0.00    +0.019 A 
ATOM      9  C   UNL     1       2.364  -5.061   5.826  0.00  0.00    +0.030 A 
BRANCH   7  10
ATOM     10  C   UNL     1       3.251  -3.415   9.032  0.00  0.00    -0.068 C 
ATOM     11  C   UNL     1       3.316  -3.183  10.181  0.00  0.00    -0.117 C 
BRANCH  11  12
ATOM     12  C   UNL     1       3.398  -2.893  11.622  0.00  0.00    +0.005 C 
BRANCH  12  13
ATOM     13  N   UNL     1       2.631  -3.900  12.369  0.00  0.00    +0.385 N 
ATOM     14  H   UNL     1       2.688  -3.700  13.356  0.00  0.00    -0.089 HD
ATOM     15  H   UNL     1       1.667  -3.874  12.075  0.00  0.00    -0.089 HD
ATOM     16  H   UNL     1       3.014  -4.816  12.188  0.00  0.00    -0.089 HD
ENDBRANCH  12  13
ENDBRANCH  11  12
ENDBRANCH   7  10
ENDBRANCH   1   4
BRANCH   1  17
ATOM     17  N   UNL     1       1.603  -3.778   2.607  0.00  0.00    -0.178 NA
ATOM     18  H   UNL     1       0.844  -4.271   2.256  0.00  0.00    +0.149 HD
BRANCH  17  19
ATOM     19  C   UNL     1       1.583  -2.313   2.615  0.00  0.00    +0.159 C 
ATOM     20  C   UNL     1       0.867  -1.820   3.873  0.00  0.00    +0.035 C 
BRANCH  19  22
ATOM     21  N   UNL     1       0.711  -0.489   1.189  0.00  0.00    -0.314 N 
ATOM     22  C   UNL     1       0.854  -1.814   1.394  0.00  0.00    +0.231 C 
ATOM     23  O   UNL     1       0.396  -2.604   0.595  0.00  0.00    -0.274 OA
ATOM     24  H   UNL     1       1.077   0.142   1.827  0.00  0.00    +0.149 HD
BRANCH  21  26
ATOM     25  C   UNL     1      -0.019   1.526   0.010  0.00  0.00    +0.024 C 
ATOM     26  C   UNL     1       0.002  -0.004   0.002  0.00  0.00    +0.101 C 
ENDBRANCH  21  26
ENDBRANCH  19  22
ENDBRANCH  17  19
ENDBRANCH   1  17
TORSDOF 8
