REMARK  Name = ZINC17087452
REMARK  8 active torsions:
REMARK  status: ('A' for Active; 'I' for Inactive)
REMARK    1  A    between atoms: C_1  and  C_2
REMARK    2  A    between atoms: C_2  and  C_3
REMARK    3  A    between atoms: C_2  and  C_4
REMARK    4  A    between atoms: C_2  and  C_5
REMARK    5  A    between atoms: C_10  and  C_15
REMARK    6  A    between atoms: N_17  and  N_18
REMARK    7  A    between atoms: C_19  and  C_21
REMARK    8  A    between atoms: C_27  and  C_29
REMARK                            x       y       z     vdW  Elec       q    Type
REMARK                         _______ _______ _______ _____ _____    ______ ____
ROOT
ATOM      1  C   UNL     1      -6.093   1.299   4.118  0.00  0.00    +0.261 C 
ATOM      2  O   UNL     1      -6.682   0.596   3.319  0.00  0.00    -0.269 OA
ATOM      3  N   UNL     1      -4.809   1.643   3.894  0.00  0.00    -0.230 N 
ATOM      4  H   UNL     1      -4.339   2.204   4.531  0.00  0.00    +0.173 HD
ENDROOT
BRANCH   1   9
ATOM      5  C   UNL     1     -10.710   0.556   6.511  0.00  0.00    -0.000 C 
ATOM      6  C   UNL     1     -10.484   0.760   5.010  0.00  0.00    +0.009 C 
ATOM      7  C   UNL     1      -9.008   0.546   4.671  0.00  0.00    +0.037 C 
ATOM      8  C   UNL     1      -8.165   1.422   5.590  0.00  0.00    -0.025 A 
ATOM      9  C   UNL     1      -6.782   1.774   5.329  0.00  0.00    +0.049 A 
ATOM     10  C   UNL     1      -6.136   2.571   6.248  0.00  0.00    +0.058 A 
ATOM     11  S   UNL     1      -7.349   2.847   7.454  0.00  0.00    -0.101 S 
ATOM     12  C   UNL     1      -8.676   1.919   6.740  0.00  0.00    -0.006 A 
ATOM     13  C   UNL     1     -10.061   1.722   7.272  0.00  0.00    +0.046 C 
BRANCH   5  15
ATOM     14  C   UNL     1     -12.846   1.841   6.354  0.00  0.00    +0.011 C 
ATOM     15  C   UNL     1     -12.211   0.524   6.804  0.00  0.00    -0.035 C 
ATOM     16  C   UNL     1     -12.854  -0.638   6.045  0.00  0.00    +0.011 C 
ATOM     17  C   UNL     1     -12.433   0.337   8.306  0.00  0.00    +0.011 C 
ENDBRANCH   5  15
ENDBRANCH   1   9
BRANCH   3  18
ATOM     18  N   UNL     1      -4.153   1.191   2.741  0.00  0.00    -0.234 N 
ATOM     19  C   UNL     1      -2.870   1.536   2.518  0.00  0.00    +0.233 C 
ATOM     20  O   UNL     1      -2.282   2.237   3.314  0.00  0.00    -0.274 OA
ATOM     21  H   UNL     1      -4.623   0.631   2.104  0.00  0.00    +0.173 HD
BRANCH  19  22
ATOM     22  C   UNL     1      -2.164   1.050   1.278  0.00  0.00    +0.090 C 
ATOM     23  C   UNL     1      -2.904   1.556   0.038  0.00  0.00    +0.013 C 
ATOM     24  C   UNL     1      -2.188   1.063  -1.221  0.00  0.00    +0.001 C 
ATOM     25  C   UNL     1      -0.753   1.593  -1.232  0.00  0.00    +0.001 C 
ATOM     26  C   UNL     1      -0.013   1.086   0.008  0.00  0.00    +0.015 C 
ATOM     27  C   UNL     1      -0.729   1.579   1.267  0.00  0.00    +0.114 C 
BRANCH  27  28
ATOM     28  C   UNL     1       0.000   1.080   2.488  0.00  0.00    +0.360 C 
ATOM     29  O   UNL     1      -0.570   0.373   3.285  0.00  0.00    -0.246 OA
ATOM     30  O   UNL     1       1.283   1.421   2.690  0.00  0.00    -0.246 OA
ENDBRANCH  27  28
ENDBRANCH  19  22
ENDBRANCH   3  18
TORSDOF 5
