REMARK  Name = ZINC04090060
REMARK  4 active torsions:
REMARK  status: ('A' for Active; 'I' for Inactive)
REMARK    1  A    between atoms: C_1  and  C_2
REMARK    2  A    between atoms: C_2  and  C_24
REMARK    3  A    between atoms: C_4  and  O_23
REMARK    4  A    between atoms: C_5  and  C_9
REMARK                            x       y       z     vdW  Elec       q    Type
REMARK                         _______ _______ _______ _____ _____    ______ ____
ROOT
ATOM      1  C   UNL     1       3.610   2.084  -0.576  0.00  0.00    +0.021 C 
ATOM      2  C   UNL     1       4.577   1.297   0.276  0.00  0.00    +0.011 A 
ATOM      3  C   UNL     1       5.844   1.019  -0.117  0.00  0.00    -0.022 A 
ATOM      4  C   UNL     1       6.459   0.251   0.942  0.00  0.00    +0.003 A 
ATOM      5  C   UNL     1       7.732  -0.306   1.097  0.00  0.00    +0.010 A 
ATOM      6  C   UNL     1       7.973  -0.990   2.263  0.00  0.00    +0.001 A 
ATOM      7  C   UNL     1       7.010  -1.128   3.249  0.00  0.00    +0.002 A 
ATOM      8  C   UNL     1       5.742  -0.587   3.122  0.00  0.00    +0.026 A 
ATOM      9  C   UNL     1       5.468   0.112   1.949  0.00  0.00    +0.047 A 
ATOM     10  N   UNL     1       4.347   0.755   1.508  0.00  0.00    -0.359 N 
ATOM     11  H   UNL     1       3.512   0.822   1.999  0.00  0.00    +0.166 HD
ATOM     12  C   UNL     1       6.426   1.471  -1.433  0.00  0.00    +0.018 C 
ATOM     13  C   UNL     1       5.516   2.568  -2.002  0.00  0.00    -0.076 C 
ATOM     14  N   UNL     1       4.111   2.114  -1.968  0.00  0.00    +0.388 N 
ATOM     15  H   UNL     1       3.534   2.758  -2.521  0.00  0.00    -0.084 HD
ATOM     16  H   UNL     1       4.051   1.170  -2.368  0.00  0.00    -0.084 HD
ENDROOT
BRANCH   1  21
ATOM     17  C   UNL     1       0.538  -0.520   1.339  0.00  0.00    +0.104 C 
ATOM     18  C   UNL     1       0.002  -0.004   0.002  0.00  0.00    +0.254 C 
ATOM     19  O   UNL     1      -0.018   1.452   0.010  0.00  0.00    -0.422 OA
ATOM     20  C   UNL     1       1.190   2.061   0.002  0.00  0.00    +0.291 C 
ATOM     21  C   UNL     1       2.256   1.421  -0.550  0.00  0.00    +0.108 C 
ATOM     22  C   UNL     1       2.087   0.135  -1.097  0.00  0.00    +0.344 C 
ATOM     23  O   UNL     1       3.030  -0.454  -1.594  0.00  0.00    -0.245 OA
ATOM     24  O   UNL     1       0.860  -0.438  -1.062  0.00  0.00    -0.419 OA
ATOM     25  C   UNL     1      -1.413  -0.537  -0.227  0.00  0.00    +0.104 C 
BRANCH  20  26
ATOM     26  O   UNL     1       1.335   3.291   0.535  0.00  0.00    -0.480 OA
ATOM     27  H   UNL     1       0.546   3.702   0.915  0.00  0.00    +0.295 HD
ENDBRANCH  20  26
ENDBRANCH   1  21
TORSDOF 2
