REMARK  Name = ZINC06821097
REMARK  11 active torsions:
REMARK  status: ('A' for Active; 'I' for Inactive)
REMARK    1  A    between atoms: C_1  and  C_2
REMARK    2  A    between atoms: C_2  and  C_3
REMARK    3  A    between atoms: C_3  and  C_5
REMARK    4  A    between atoms: C_3  and  N_13
REMARK    5  A    between atoms: N_7  and  C_8
REMARK    6  A    between atoms: N_13  and  C_14
REMARK    7  A    between atoms: C_18  and  C_21
REMARK    8  A    between atoms: C_19  and  C_20
REMARK    9  A    between atoms: C_22  and  C_24
REMARK   10  A    between atoms: C_25  and  N_32
REMARK   11  A    between atoms: C_26  and  C_29
REMARK                            x       y       z     vdW  Elec       q    Type
REMARK                         _______ _______ _______ _____ _____    ______ ____
ROOT
ATOM      1  N   UNL     1      -1.514   3.422   0.187  0.00  0.00    -0.255 N 
ATOM      2  C   UNL     1      -0.921   4.075  -0.832  0.00  0.00    +0.261 C 
ATOM      3  O   UNL     1       0.273   4.308  -0.793  0.00  0.00    -0.269 OA
ENDROOT
BRANCH   1   4
ATOM      4  C   UNL     1      -2.886   3.155   0.142  0.00  0.00    +0.041 A 
ATOM      5  C   UNL     1      -3.788   4.049   0.705  0.00  0.00    +0.024 A 
ATOM      6  C   UNL     1      -5.142   3.784   0.655  0.00  0.00    +0.002 A 
ATOM      7  C   UNL     1      -5.600   2.626   0.054  0.00  0.00    +0.004 A 
ATOM      8  C   UNL     1      -4.705   1.732  -0.503  0.00  0.00    -0.046 A 
ATOM      9  C   UNL     1      -3.349   1.992  -0.461  0.00  0.00    -0.026 A 
ATOM     10  C   UNL     1      -2.374   1.017  -1.068  0.00  0.00    +0.046 C 
ATOM     11  C   UNL     1      -5.209   0.471  -1.157  0.00  0.00    +0.044 C 
ENDBRANCH   1   4
BRANCH   2  12
ATOM     12  C   UNL     1      -1.713   4.505  -1.986  0.00  0.00    +0.116 A 
ATOM     13  C   UNL     1      -1.307   5.191  -3.132  0.00  0.00    +0.076 A 
ATOM     14  C   UNL     1      -2.360   5.421  -4.018  0.00  0.00    +0.155 A 
ATOM     15  N   UNL     1      -3.567   5.004  -3.705  0.00  0.00    -0.203 NA
ATOM     16  S   UNL     1      -3.454   4.300  -2.299  0.00  0.00    +0.019 S 
BRANCH  14  17
ATOM     17  C   UNL     1      -2.123   6.130  -5.289  0.00  0.00    +0.262 C 
ATOM     18  O   UNL     1      -1.004   6.513  -5.572  0.00  0.00    -0.269 OA
ATOM     19  N   UNL     1      -3.146   6.353  -6.137  0.00  0.00    -0.324 N 
ATOM     20  H   UNL     1      -4.038   6.047  -5.911  0.00  0.00    +0.145 HD
ATOM     21  H   UNL     1      -2.990   6.819  -6.973  0.00  0.00    +0.145 HD
ENDBRANCH  14  17
BRANCH  13  22
ATOM     22  N   UNL     1       0.000   5.598  -3.365  0.00  0.00    -0.355 N 
ATOM     23  H   UNL     1       0.691   5.407  -2.712  0.00  0.00    +0.142 HD
ATOM     24  H   UNL     1       0.222   6.072  -4.182  0.00  0.00    +0.142 HD
ENDBRANCH  13  22
ENDBRANCH   2  12
BRANCH   1  25
ATOM     25  C   UNL     1      -0.721   2.991   1.341  0.00  0.00    +0.167 C 
BRANCH  25  26
ATOM     26  C   UNL     1       0.341   2.023   0.888  0.00  0.00    +0.234 C 
ATOM     27  O   UNL     1       0.427   1.721  -0.283  0.00  0.00    -0.274 OA
ATOM     28  N   UNL     1       1.195   1.491   1.785  0.00  0.00    -0.311 N 
ATOM     29  H   UNL     1       1.126   1.732   2.722  0.00  0.00    +0.149 HD
BRANCH  28  30
ATOM     30  C   UNL     1       2.227   0.549   1.345  0.00  0.00    +0.073 C 
ATOM     31  C   UNL     1       1.668  -0.889   1.351  0.00  0.00    +0.022 C 
ATOM     32  C   UNL     1       2.859  -1.758   1.825  0.00  0.00    +0.002 C 
ATOM     33  C   UNL     1       3.527  -0.864   2.899  0.00  0.00    +0.002 C 
ATOM     34  C   UNL     1       3.409   0.565   2.329  0.00  0.00    +0.022 C 
ENDBRANCH  28  30
ENDBRANCH  25  26
BRANCH  25  36
ATOM     35  C   UNL     1      -1.137   5.161   2.509  0.00  0.00    +0.006 C 
ATOM     36  C   UNL     1      -0.058   4.209   1.987  0.00  0.00    +0.029 C 
ENDBRANCH  25  36
ENDBRANCH   1  25
TORSDOF 8
