REMARK  Name = ZINC35564809
REMARK  4 active torsions:
REMARK  status: ('A' for Active; 'I' for Inactive)
REMARK    1  A    between atoms: N_9  and  C_11
REMARK    2  A    between atoms: C_11  and  C_12
REMARK    3  A    between atoms: N_23  and  C_26
REMARK    4  A    between atoms: C_26  and  C_27
REMARK                            x       y       z     vdW  Elec       q    Type
REMARK                         _______ _______ _______ _____ _____    ______ ____
ROOT
ATOM      1  C   UNL     1       6.014  -2.319   1.153  0.00  0.00    +0.064 A 
ATOM      2  C   UNL     1       6.291  -3.050   2.272  0.00  0.00    +0.094 A 
ATOM      3  C   UNL     1       7.014  -2.446   3.316  0.00  0.00    +0.253 A 
ATOM      4  O   UNL     1       7.280  -3.071   4.330  0.00  0.00    -0.268 OA
ATOM      5  N   UNL     1       7.409  -1.163   3.175  0.00  0.00    -0.295 N 
ATOM      6  H   UNL     1       7.910  -0.727   3.882  0.00  0.00    +0.172 HD
ATOM      7  C   UNL     1       7.104  -0.484   2.036  0.00  0.00    +0.198 A 
ATOM      8  N   UNL     1       6.430  -1.058   1.060  0.00  0.00    -0.219 NA
ATOM      9  N   UNL     1       7.508   0.817   1.900  0.00  0.00    -0.305 N 
ATOM     10  C   UNL     1       8.369   1.451   2.911  0.00  0.00    +0.089 C 
ATOM     11  C   UNL     1       9.556   2.106   2.196  0.00  0.00    -0.059 C 
ATOM     12  N   UNL     1       9.058   3.023   1.162  0.00  0.00    +0.385 N 
ATOM     13  C   UNL     1       8.341   2.268   0.127  0.00  0.00    -0.059 C 
ATOM     14  C   UNL     1       7.098   1.619   0.737  0.00  0.00    +0.089 C 
ATOM     15  H   UNL     1       8.431   3.693   1.582  0.00  0.00    -0.081 HD
ENDROOT
BRANCH   1  16
ATOM     16  C   UNL     1       5.240  -2.942   0.020  0.00  0.00    +0.140 C 
BRANCH  16  25
ATOM     17  C   UNL     1       0.422   1.103  -1.296  0.00  0.00    +0.000 A 
ATOM     18  C   UNL     1       1.585   1.833  -1.136  0.00  0.00    +0.000 A 
ATOM     19  C   UNL     1       2.780   1.181  -0.907  0.00  0.00    +0.005 A 
ATOM     20  C   UNL     1       2.820  -0.204  -0.834  0.00  0.00    -0.030 A 
ATOM     21  C   UNL     1       1.660  -0.931  -0.990  0.00  0.00    -0.042 A 
ATOM     22  C   UNL     1       0.460  -0.275  -1.223  0.00  0.00    +0.004 A 
ATOM     23  C   UNL     1       1.651  -2.436  -0.908  0.00  0.00    +0.051 C 
ATOM     24  C   UNL     1       3.074  -2.975  -1.065  0.00  0.00    +0.090 C 
ATOM     25  N   UNL     1       3.953  -2.251  -0.133  0.00  0.00    -0.292 NA
ATOM     26  C   UNL     1       4.148  -0.871  -0.587  0.00  0.00    +0.120 C 
ENDBRANCH  16  25
ENDBRANCH   1  16
BRANCH  12  27
ATOM     27  C   UNL     1      10.190   3.732   0.552  0.00  0.00    -0.022 C 
BRANCH  27  28
ATOM     28  C   UNL     1       9.674   4.760  -0.421  0.00  0.00    +0.025 A 
ATOM     29  C   UNL     1       9.508   6.069  -0.008  0.00  0.00    +0.021 A 
ATOM     30  C   UNL     1       9.032   7.007  -0.910  0.00  0.00    +0.003 A 
ATOM     31  C   UNL     1       8.740   6.592  -2.201  0.00  0.00    +0.020 A 
ATOM     32  C   UNL     1       8.932   5.267  -2.542  0.00  0.00    +0.111 A 
ATOM     33  N   UNL     1       9.391   4.403  -1.658  0.00  0.00    -0.262 NA
ENDBRANCH  27  28
ENDBRANCH  12  27
TORSDOF 4
