REMARK  Name = ZINC34757672
REMARK  5 active torsions:
REMARK  status: ('A' for Active; 'I' for Inactive)
REMARK    1  A    between atoms: C_5  and  C_7
REMARK    2  A    between atoms: C_7  and  N_8
REMARK    3  A    between atoms: C_21  and  S_23
REMARK    4  A    between atoms: S_23  and  C_24
REMARK    5  A    between atoms: C_24  and  C_25
REMARK                            x       y       z     vdW  Elec       q    Type
REMARK                         _______ _______ _______ _____ _____    ______ ____
ROOT
ATOM      1  N   UNL     1       1.421  -2.565   1.400  0.00  0.00    +0.384 N 
ATOM      2  C   UNL     1       0.439  -2.146   2.408  0.00  0.00    -0.059 C 
ATOM      3  C   UNL     1       0.850  -2.694   3.779  0.00  0.00    +0.088 C 
ATOM      4  N   UNL     1       1.020  -4.151   3.667  0.00  0.00    -0.318 N 
ATOM      5  C   UNL     1       1.862  -4.668   2.576  0.00  0.00    +0.088 C 
ATOM      6  C   UNL     1       1.403  -4.027   1.263  0.00  0.00    -0.059 C 
ATOM      7  C   UNL     1       0.407  -5.010   4.561  0.00  0.00    +0.134 A 
ATOM      8  C   UNL     1       1.035  -5.333   5.795  0.00  0.00    +0.051 A 
ATOM      9  C   UNL     1       2.332  -4.863   6.311  0.00  0.00    -0.025 A 
ATOM     10  C   UNL     1       2.707  -5.319   7.517  0.00  0.00    -0.004 A 
ATOM     11  S   UNL     1       1.383  -6.384   8.041  0.00  0.00    -0.073 S 
ATOM     12  C   UNL     1       0.325  -6.214   6.630  0.00  0.00    +0.115 A 
ATOM     13  N   UNL     1      -0.849  -6.704   6.278  0.00  0.00    -0.214 NA
ATOM     14  C   UNL     1      -1.389  -6.369   5.113  0.00  0.00    +0.191 A 
ATOM     15  N   UNL     1      -0.773  -5.537   4.281  0.00  0.00    -0.206 NA
ATOM     16  C   UNL     1       4.047  -4.777   7.939  0.00  0.00    +0.043 C 
ATOM     17  C   UNL     1       4.676  -4.242   6.634  0.00  0.00    +0.010 C 
ATOM     18  C   UNL     1       3.426  -3.926   5.790  0.00  0.00    +0.037 C 
ATOM     19  H   UNL     1       2.341  -2.266   1.687  0.00  0.00    -0.081 HD
ENDROOT
BRANCH   1  20
ATOM     20  C   UNL     1       1.087  -1.949   0.109  0.00  0.00    -0.041 C 
BRANCH  20  25
ATOM     21  C   UNL     1       0.227   1.707   0.492  0.00  0.00    +0.000 A 
ATOM     22  C   UNL     1       1.475   2.295   0.411  0.00  0.00    +0.001 A 
ATOM     23  C   UNL     1       2.599   1.510   0.233  0.00  0.00    +0.020 A 
ATOM     24  C   UNL     1       2.474   0.136   0.135  0.00  0.00    +0.042 A 
ATOM     25  C   UNL     1       1.224  -0.452   0.216  0.00  0.00    -0.046 A 
ATOM     26  C   UNL     1       0.101   0.334   0.395  0.00  0.00    +0.003 A 
ATOM     27 CL   UNL     1       3.885  -0.851  -0.091  0.00  0.00    -0.083 Cl
ENDBRANCH  20  25
ENDBRANCH   1  20
BRANCH  14  28
ATOM     28  S   UNL     1      -2.957  -7.036   4.665  0.00  0.00    -0.077 S 
BRANCH  28  29
ATOM     29  C   UNL     1      -3.406  -8.087   6.073  0.00  0.00    +0.172 C 
BRANCH  29  30
ATOM     30  C   UNL     1      -4.746  -8.727   5.816  0.00  0.00    +0.221 C 
ATOM     31  O   UNL     1      -5.339  -8.497   4.783  0.00  0.00    -0.275 OA
ATOM     32  N   UNL     1      -5.284  -9.555   6.732  0.00  0.00    -0.329 N 
ATOM     33  H   UNL     1      -4.810  -9.739   7.558  0.00  0.00    +0.145 HD
ATOM     34  H   UNL     1      -6.147  -9.967   6.566  0.00  0.00    +0.145 HD
ENDBRANCH  29  30
ENDBRANCH  28  29
ENDBRANCH  14  28
TORSDOF 5
