REMARK  Name = ZINC64819178
REMARK  4 active torsions:
REMARK  status: ('A' for Active; 'I' for Inactive)
REMARK    1  A    between atoms: C_8  and  C_26
REMARK    2  A    between atoms: C_9  and  N_11
REMARK    3  A    between atoms: N_19  and  C_20
REMARK    4  A    between atoms: C_20  and  C_21
REMARK                            x       y       z     vdW  Elec       q    Type
REMARK                         _______ _______ _______ _____ _____    ______ ____
ROOT
ATOM      1  N   UNL     1       4.825  -2.535   0.192  0.00  0.00    -0.311 N 
ATOM      2  C   UNL     1       4.842  -4.000   0.076  0.00  0.00    +0.125 C 
ATOM      3  C   UNL     1       5.814  -4.392  -1.044  0.00  0.00    +0.128 C 
ATOM      4  N   UNL     1       7.085  -3.684  -0.832  0.00  0.00    -0.283 N 
ATOM      5  C   UNL     1       7.068  -2.219  -0.717  0.00  0.00    +0.128 C 
ATOM      6  C   UNL     1       6.096  -1.826   0.398  0.00  0.00    +0.125 C 
ATOM      7  C   UNL     1       8.244  -4.365  -0.746  0.00  0.00    +0.303 C 
ATOM      8  O   UNL     1       8.259  -5.566  -0.937  0.00  0.00    -0.253 OA
ATOM      9  N   UNL     1       9.387  -3.716  -0.446  0.00  0.00    -0.292 N 
ATOM     10  H   UNL     1       9.389  -2.749  -0.368  0.00  0.00    +0.151 HD
ENDROOT
BRANCH   1  19
ATOM     11  C   UNL     1      -0.380   0.589  -1.302  0.00  0.00    +0.002 A 
ATOM     12  C   UNL     1       0.308   0.252  -2.466  0.00  0.00    +0.002 A 
ATOM     13  C   UNL     1       1.481  -0.436  -2.411  0.00  0.00    +0.030 A 
ATOM     14  C   UNL     1       2.009  -0.814  -1.165  0.00  0.00    +0.091 A 
ATOM     15  C   UNL     1       1.310  -0.472   0.018  0.00  0.00    +0.090 A 
ATOM     16  C   UNL     1       0.102   0.240  -0.078  0.00  0.00    +0.030 A 
ATOM     17  N   UNL     1       1.806  -0.829   1.210  0.00  0.00    -0.238 NA
ATOM     18  C   UNL     1       2.935  -1.492   1.274  0.00  0.00    +0.184 A 
ATOM     19  C   UNL     1       3.632  -1.834   0.102  0.00  0.00    +0.152 A 
ATOM     20  N   UNL     1       3.161  -1.491  -1.081  0.00  0.00    -0.228 NA
BRANCH  18  21
ATOM     21  C   UNL     1       3.490  -1.892   2.617  0.00  0.00    +0.438 C 
ATOM     22  F   UNL     1       2.626  -1.455   3.627  0.00  0.00    -0.164 F 
ATOM     23  F   UNL     1       3.610  -3.284   2.676  0.00  0.00    -0.164 F 
ATOM     24  F   UNL     1       4.748  -1.307   2.795  0.00  0.00    -0.164 F 
ENDBRANCH  18  21
ENDBRANCH   1  19
BRANCH   9  25
ATOM     25  C   UNL     1      10.625  -4.471  -0.239  0.00  0.00    +0.180 C 
BRANCH  25  26
ATOM     26  C   UNL     1      11.747  -3.517   0.080  0.00  0.00    +0.122 A 
ATOM     27  C   UNL     1      12.106  -3.108   1.310  0.00  0.00    +0.046 A 
ATOM     28  C   UNL     1      13.197  -2.224   1.146  0.00  0.00    +0.041 A 
ATOM     29  C   UNL     1      13.440  -2.145  -0.175  0.00  0.00    +0.195 A 
ATOM     30  O   UNL     1      12.562  -2.935  -0.815  0.00  0.00    -0.466 OA
ENDBRANCH  25  26
ENDBRANCH   9  25
TORSDOF 4
