REMARK  Name = ZINC58227288
REMARK  7 active torsions:
REMARK  status: ('A' for Active; 'I' for Inactive)
REMARK    1  A    between atoms: C_1  and  C_2
REMARK    2  A    between atoms: C_2  and  C_4
REMARK    3  A    between atoms: C_2  and  N_16
REMARK    4  A    between atoms: C_17  and  C_19
REMARK    5  A    between atoms: C_20  and  C_24
REMARK    6  A    between atoms: C_24  and  O_25
REMARK    7  A    between atoms: O_25  and  C_26
REMARK                            x       y       z     vdW  Elec       q    Type
REMARK                         _______ _______ _______ _____ _____    ______ ____
ROOT
ATOM      1  N   UNL     1       0.688  -0.476  -1.203  0.00  0.00    -0.302 N 
ATOM      2  C   UNL     1       2.031  -0.587  -1.215  0.00  0.00    +0.280 C 
ATOM      3  O   UNL     1       2.674  -0.294  -0.224  0.00  0.00    -0.267 OA
ATOM      4  H   UNL     1       0.175  -0.710  -1.993  0.00  0.00    +0.150 HD
ENDROOT
BRANCH   2   5
ATOM      5  C   UNL     1       2.717  -1.060  -2.422  0.00  0.00    +0.195 A 
ATOM      6  C   UNL     1       4.065  -1.223  -2.566  0.00  0.00    +0.040 A 
ATOM      7  C   UNL     1       4.278  -1.691  -3.872  0.00  0.00    +0.049 A 
ATOM      8  C   UNL     1       3.065  -1.792  -4.460  0.00  0.00    +0.196 A 
ATOM      9  O   UNL     1       2.127  -1.416  -3.581  0.00  0.00    -0.458 OA
BRANCH   6  10
ATOM     10  C   UNL     1       5.121  -0.952  -1.525  0.00  0.00    +0.268 C 
BRANCH  10  11
ATOM     11  O   UNL     1       6.410  -1.247  -2.066  0.00  0.00    -0.487 OA
BRANCH  11  12
ATOM     12  C   UNL     1       7.480  -1.055  -1.250  0.00  0.00    +0.121 A 
ATOM     13  C   UNL     1       7.292  -0.598   0.046  0.00  0.00    +0.045 A 
ATOM     14  C   UNL     1       8.382  -0.404   0.874  0.00  0.00    +0.004 A 
ATOM     15  C   UNL     1       9.658  -0.665   0.410  0.00  0.00    +0.000 A 
ATOM     16  C   UNL     1       9.848  -1.120  -0.881  0.00  0.00    +0.004 A 
ATOM     17  C   UNL     1       8.761  -1.321  -1.711  0.00  0.00    +0.045 A 
ENDBRANCH  11  12
ENDBRANCH  10  11
ENDBRANCH   6  10
ENDBRANCH   2   5
BRANCH   1  19
ATOM     18  C   UNL     1      -0.019   1.526   0.010  0.00  0.00    +0.033 C 
ATOM     19  C   UNL     1       0.002  -0.004   0.002  0.00  0.00    +0.101 C 
BRANCH  19  20
ATOM     20  C   UNL     1      -1.412  -0.526   0.013  0.00  0.00    -0.025 A 
ATOM     21  C   UNL     1      -2.140  -0.568  -1.164  0.00  0.00    +0.007 A 
ATOM     22  C   UNL     1      -3.436  -1.044  -1.164  0.00  0.00    +0.028 A 
ATOM     23  C   UNL     1      -4.011  -1.482   0.019  0.00  0.00    +0.067 A 
ATOM     24  C   UNL     1      -3.276  -1.440   1.206  0.00  0.00    +0.067 A 
ATOM     25  C   UNL     1      -1.974  -0.965   1.195  0.00  0.00    +0.033 A 
ATOM     26  N   UNL     1      -4.104  -1.937   2.210  0.00  0.00    -0.306 N 
ATOM     27  H   UNL     1      -3.868  -2.030   3.146  0.00  0.00    +0.170 HD
ATOM     28  C   UNL     1      -5.288  -2.267   1.659  0.00  0.00    +0.325 A 
ATOM     29  O   UNL     1      -6.237  -2.732   2.262  0.00  0.00    -0.247 OA
ATOM     30  N   UNL     1      -5.262  -2.004   0.338  0.00  0.00    -0.306 N 
ATOM     31  H   UNL     1      -5.991  -2.152  -0.284  0.00  0.00    +0.170 HD
ENDBRANCH  19  20
ENDBRANCH   1  19
TORSDOF 6
