REMARK  Name = ZINC52907437
REMARK  13 active torsions:
REMARK  status: ('A' for Active; 'I' for Inactive)
REMARK    1  A    between atoms: C_1  and  C_2
REMARK    2  A    between atoms: C_5  and  C_8
REMARK    3  A    between atoms: C_8  and  C_10
REMARK    4  A    between atoms: C_8  and  N_11
REMARK    5  A    between atoms: N_11  and  C_12
REMARK    6  A    between atoms: N_11  and  C_13
REMARK    7  A    between atoms: C_13  and  C_14
REMARK    8  A    between atoms: N_16  and  C_17
REMARK    9  A    between atoms: C_17  and  C_18
REMARK   10  A    between atoms: N_20  and  C_21
REMARK   11  A    between atoms: C_22  and  C_29
REMARK   12  A    between atoms: C_24  and  C_28
REMARK   13  A    between atoms: C_26  and  C_27
REMARK                            x       y       z     vdW  Elec       q    Type
REMARK                         _______ _______ _______ _____ _____    ______ ____
ROOT
ATOM      1  C   UNL     1      -3.219  -5.720   2.498  0.00  0.00    +0.197 C 
ATOM      2  O   UNL     1      -2.596  -5.440   3.500  0.00  0.00    -0.278 OA
ATOM      3  N   UNL     1      -4.537  -5.449   2.426  0.00  0.00    -0.308 N 
ATOM      4  H   UNL     1      -5.035  -5.673   1.624  0.00  0.00    +0.149 HD
ENDROOT
BRANCH   1   5
ATOM      5  C   UNL     1      -2.519  -6.373   1.334  0.00  0.00    +0.019 C 
BRANCH   5   6
ATOM      6  N   UNL     1      -1.099  -6.561   1.659  0.00  0.00    +0.388 N 
ATOM      7  C   UNL     1      -0.973  -7.513   2.771  0.00  0.00    -0.095 C 
ATOM      8  H   UNL     1      -0.695  -5.676   1.927  0.00  0.00    -0.081 HD
BRANCH   6   9
ATOM      9  C   UNL     1      -0.392  -7.086   0.483  0.00  0.00    -0.041 C 
ATOM     10  C   UNL     1       1.087  -7.282   0.822  0.00  0.00    -0.008 C 
BRANCH   9  15
ATOM     11  C   UNL     1      -0.890  -3.341  -3.890  0.00  0.00    +0.044 C 
ATOM     12  C   UNL     1      -0.760  -4.318  -2.750  0.00  0.00    -0.050 A 
ATOM     13  C   UNL     1      -0.848  -5.676  -2.990  0.00  0.00    +0.003 A 
ATOM     14  C   UNL     1      -0.729  -6.572  -1.944  0.00  0.00    +0.002 A 
ATOM     15  C   UNL     1      -0.521  -6.109  -0.657  0.00  0.00    -0.061 A 
ATOM     16  C   UNL     1      -0.432  -4.751  -0.418  0.00  0.00    +0.002 A 
ATOM     17  C   UNL     1      -0.547  -3.855  -1.464  0.00  0.00    +0.003 A 
ENDBRANCH   9  15
ENDBRANCH   6   9
ENDBRANCH   5   6
ENDBRANCH   1   5
BRANCH   3  18
ATOM     18  C   UNL     1      -5.217  -4.814   3.558  0.00  0.00    +0.200 C 
BRANCH  18  19
ATOM     19  C   UNL     1      -6.674  -4.621   3.224  0.00  0.00    +0.234 C 
ATOM     20  O   UNL     1      -7.102  -4.978   2.147  0.00  0.00    -0.274 OA
ATOM     21  N   UNL     1      -7.502  -4.052   4.123  0.00  0.00    -0.284 N 
ATOM     22  H   UNL     1      -7.177  -3.833   5.010  0.00  0.00    +0.155 HD
BRANCH  21  23
ATOM     23  C   UNL     1      -8.829  -3.776   3.775  0.00  0.00    +0.039 A 
ATOM     24  C   UNL     1      -9.868  -4.258   4.560  0.00  0.00    -0.029 A 
ATOM     25  C   UNL     1     -11.177  -3.984   4.215  0.00  0.00    +0.008 A 
ATOM     26  C   UNL     1     -11.453  -3.231   3.088  0.00  0.00    -0.050 A 
ATOM     27  C   UNL     1     -10.420  -2.750   2.304  0.00  0.00    +0.008 A 
ATOM     28  C   UNL     1      -9.109  -3.015   2.648  0.00  0.00    -0.029 A 
ATOM     29  C   UNL     1      -7.984  -2.485   1.797  0.00  0.00    +0.045 C 
ATOM     30  C   UNL     1     -12.882  -2.933   2.714  0.00  0.00    +0.044 C 
ATOM     31  C   UNL     1      -9.568  -5.079   5.788  0.00  0.00    +0.045 C 
ENDBRANCH  21  23
ENDBRANCH  18  19
ENDBRANCH   3  18
TORSDOF 7
