REMARK  Name = ZINC08711548
REMARK  5 active torsions:
REMARK  status: ('A' for Active; 'I' for Inactive)
REMARK    1  A    between atoms: C_3  and  C_8
REMARK    2  A    between atoms: C_5  and  O_7
REMARK    3  A    between atoms: C_11  and  C_13
REMARK    4  A    between atoms: C_11  and  O_17
REMARK    5  A    between atoms: C_20  and  C_23
REMARK                            x       y       z     vdW  Elec       q    Type
REMARK                         _______ _______ _______ _____ _____    ______ ____
ROOT
ATOM      1  C   UNL     1      -2.524   3.865   0.047  0.00  0.00    +0.072 C 
ATOM      2  N   UNL     1      -2.658   5.147   0.054  0.00  0.00    -0.179 NA
ATOM      3  N   UNL     1      -3.982   5.581   0.070  0.00  0.00    -0.160 N 
ATOM      4  C   UNL     1      -4.868   4.406   0.073  0.00  0.00    +0.256 C 
ATOM      5  C   UNL     1      -3.889   3.215   0.051  0.00  0.00    +0.124 C 
ATOM      6  C   UNL     1      -4.396   6.903   0.080  0.00  0.00    +0.184 A 
ATOM      7  N   UNL     1      -3.670   8.006   0.077  0.00  0.00    -0.223 NA
ATOM      8  C   UNL     1      -4.239   9.203   0.088  0.00  0.00    +0.080 A 
ATOM      9  C   UNL     1      -5.603   9.297   0.102  0.00  0.00    +0.077 A 
ATOM     10  S   UNL     1      -6.055   7.568   0.092  0.00  0.00    -0.058 S 
ENDROOT
BRANCH   8  11
ATOM     11  C   UNL     1      -3.404  10.428   0.085  0.00  0.00    +0.001 A 
ATOM     12  C   UNL     1      -2.018  10.330  -0.028  0.00  0.00    +0.011 A 
ATOM     13  C   UNL     1      -1.246  11.474  -0.036  0.00  0.00    +0.020 A 
ATOM     14  C   UNL     1      -1.845  12.717   0.081  0.00  0.00    +0.041 A 
ATOM     15  C   UNL     1      -3.220  12.819   0.199  0.00  0.00    +0.020 A 
ATOM     16  C   UNL     1      -4.002  11.682   0.202  0.00  0.00    +0.011 A 
ATOM     17 CL   UNL     1      -0.867  14.151   0.077  0.00  0.00    -0.084 Cl
ENDBRANCH   8  11
BRANCH   1  20
ATOM     18  C   UNL     1      -0.013   1.076   0.008  0.00  0.00    +0.004 A 
ATOM     19  C   UNL     1      -1.218   1.747   0.017  0.00  0.00    +0.010 A 
ATOM     20  C   UNL     1      -1.238   3.144   0.031  0.00  0.00    +0.001 A 
ATOM     21  C   UNL     1      -0.036   3.854   0.023  0.00  0.00    +0.055 A 
ATOM     22  C   UNL     1       1.167   3.170   0.007  0.00  0.00    +0.117 A 
ATOM     23  C   UNL     1       1.177   1.781   0.000  0.00  0.00    +0.045 A 
BRANCH  22  24
ATOM     24  O   UNL     1       2.339   3.857  -0.001  0.00  0.00    -0.507 OA
ATOM     25  H   UNL     1       2.670   4.061  -0.887  0.00  0.00    +0.292 HD
ENDBRANCH  22  24
ENDBRANCH   1  20
BRANCH   4  26
ATOM     26  C   UNL     1      -5.725   4.382   1.340  0.00  0.00    +0.438 C 
ATOM     27  F   UNL     1      -6.532   5.524   1.378  0.00  0.00    -0.166 F 
ATOM     28  F   UNL     1      -6.533   3.240   1.334  0.00  0.00    -0.166 F 
ATOM     29  F   UNL     1      -4.894   4.360   2.465  0.00  0.00    -0.166 F 
ENDBRANCH   4  26
BRANCH   4  30
ATOM     30  O   UNL     1      -5.692   4.395  -1.094  0.00  0.00    -0.363 OA
ATOM     31  H   UNL     1      -6.280   5.160  -1.168  0.00  0.00    +0.212 HD
ENDBRANCH   4  30
TORSDOF 5
