REMARK  Name = ZINC44657929
REMARK  5 active torsions:
REMARK  status: ('A' for Active; 'I' for Inactive)
REMARK    1  A    between atoms: C_7  and  C_10
REMARK    2  A    between atoms: C_13  and  S_16
REMARK    3  A    between atoms: S_16  and  C_17
REMARK    4  A    between atoms: C_17  and  C_18
REMARK    5  A    between atoms: C_21  and  C_23
REMARK                            x       y       z     vdW  Elec       q    Type
REMARK                         _______ _______ _______ _____ _____    ______ ____
ROOT
ATOM      1  C   UNL     1       0.676  -3.129  -0.021  0.00  0.00    +0.238 C 
ATOM      2  N   UNL     1      -0.625  -3.009  -0.013  0.00  0.00    -0.145 NA
ATOM      3  N   UNL     1      -1.227  -4.276  -0.013  0.00  0.00    -0.219 N 
ATOM      4  C   UNL     1      -0.115  -5.241  -0.021  0.00  0.00    +0.339 C 
ATOM      5  O   UNL     1       1.066  -4.427  -0.031  0.00  0.00    -0.443 OA
ATOM      6  H   UNL     1      -2.177  -4.474  -0.008  0.00  0.00    +0.173 HD
ENDROOT
BRANCH   1  13
ATOM      7  C   UNL     1      -0.016   1.354   0.009  0.00  0.00    +0.001 A 
ATOM      8  C   UNL     1       1.163   2.101   0.002  0.00  0.00    +0.002 A 
ATOM      9  C   UNL     1       2.384   1.511  -0.013  0.00  0.00    +0.026 A 
ATOM     10  C   UNL     1       2.483   0.096  -0.021  0.00  0.00    +0.043 A 
ATOM     11  N   UNL     1       3.531  -0.705  -0.036  0.00  0.00    -0.380 N 
ATOM     12  C   UNL     1       3.075  -2.099  -0.039  0.00  0.00    +0.154 C 
ATOM     13  C   UNL     1       1.563  -2.044  -0.024  0.00  0.00    +0.043 C 
ATOM     14  C   UNL     1       1.237  -0.687  -0.013  0.00  0.00    +0.008 A 
ATOM     15  C   UNL     1       0.002  -0.004   0.002  0.00  0.00    +0.010 A 
ATOM     16  H   UNL     1       4.457  -0.418  -0.044  0.00  0.00    +0.160 HD
ENDBRANCH   1  13
BRANCH   4  17
ATOM     17  S   UNL     1      -0.183  -6.272  -1.512  0.00  0.00    -0.090 S 
BRANCH  17  18
ATOM     18  C   UNL     1      -0.050  -5.083  -2.875  0.00  0.00    +0.133 C 
BRANCH  18  19
ATOM     19  C   UNL     1      -0.094  -5.819  -4.190  0.00  0.00    +0.090 A 
ATOM     20  C   UNL     1       0.965  -6.309  -4.859  0.00  0.00    +0.221 A 
ATOM     21  O   UNL     1       0.497  -6.891  -5.982  0.00  0.00    -0.443 OA
ATOM     22  C   UNL     1      -0.841  -6.750  -5.987  0.00  0.00    +0.234 A 
ATOM     23  N   UNL     1      -1.198  -6.106  -4.898  0.00  0.00    -0.213 NA
BRANCH  22  24
ATOM     24  C   UNL     1      -1.752  -7.241  -7.032  0.00  0.00    +0.074 A 
ATOM     25  C   UNL     1      -1.456  -7.933  -8.192  0.00  0.00    +0.021 A 
ATOM     26  C   UNL     1      -2.492  -8.289  -9.024  0.00  0.00    +0.008 A 
ATOM     27  C   UNL     1      -3.764  -7.953  -8.683  0.00  0.00    +0.046 A 
ATOM     28  S   UNL     1      -3.530  -7.106  -7.130  0.00  0.00    -0.092 S 
ENDBRANCH  22  24
ENDBRANCH  18  19
ENDBRANCH  17  18
ENDBRANCH   4  17
TORSDOF 5
