REMARK  Name = ZINC36289866
REMARK  8 active torsions:
REMARK  status: ('A' for Active; 'I' for Inactive)
REMARK    1  A    between atoms: C_1  and  C_2
REMARK    2  A    between atoms: C_2  and  C_17
REMARK    3  A    between atoms: N_3  and  N_4
REMARK    4  A    between atoms: C_5  and  C_7
REMARK    5  A    between atoms: C_7  and  O_8
REMARK    6  A    between atoms: O_8  and  C_9
REMARK    7  A    between atoms: C_14  and  C_15
REMARK    8  A    between atoms: C_20  and  C_23
REMARK                            x       y       z     vdW  Elec       q    Type
REMARK                         _______ _______ _______ _____ _____    ______ ____
ROOT
ATOM      1  N   UNL     1       0.024   0.035   2.340  0.00  0.00    -0.204 N 
ATOM      2  C   UNL     1       0.044  -0.645   3.503  0.00  0.00    +0.270 C 
ATOM      3  O   UNL     1       0.060  -1.858   3.497  0.00  0.00    -0.270 OA
ATOM      4  H   UNL     1       0.011   1.005   2.345  0.00  0.00    +0.177 HD
ENDROOT
BRANCH   1   7
ATOM      5  C   UNL     1      -0.018   1.503   0.010  0.00  0.00    +0.068 C 
ATOM      6  C   UNL     1       0.002  -0.004   0.002  0.00  0.00    +0.063 C 
ATOM      7  N   UNL     1       0.022  -0.659   1.123  0.00  0.00    -0.184 NA
BRANCH   6   8
ATOM      8  C   UNL     1      -0.000  -0.734  -1.278  0.00  0.00    -0.002 A 
ATOM      9  C   UNL     1      -0.015  -0.028  -2.485  0.00  0.00    +0.011 A 
ATOM     10  C   UNL     1      -0.017  -0.705  -3.672  0.00  0.00    +0.019 A 
ATOM     11  C   UNL     1      -0.004  -2.103  -3.679  0.00  0.00    +0.052 A 
ATOM     12  C   UNL     1       0.011  -2.809  -2.472  0.00  0.00    +0.019 A 
ATOM     13  C   UNL     1       0.019  -2.132  -1.286  0.00  0.00    +0.011 A 
BRANCH  11  14
ATOM     14  C   UNL     1      -0.006  -2.812  -4.923  0.00  0.00    +0.099 C 
ATOM     15  N   UNL     1      -0.007  -3.375  -5.910  0.00  0.00    -0.191 NA
ENDBRANCH  11  14
ENDBRANCH   6   8
ENDBRANCH   1   7
BRANCH   2  16
ATOM     16  C   UNL     1       0.046   0.101   4.812  0.00  0.00    +0.326 C 
BRANCH  16  17
ATOM     17  O   UNL     1       0.069  -0.833   5.894  0.00  0.00    -0.481 OA
BRANCH  17  18
ATOM     18  C   UNL     1       0.074  -0.321   7.150  0.00  0.00    +0.138 A 
ATOM     19  C   UNL     1       0.051   1.051   7.343  0.00  0.00    +0.047 A 
ATOM     20  C   UNL     1       0.057   1.571   8.623  0.00  0.00    +0.004 A 
ATOM     21  C   UNL     1       0.084   0.728   9.721  0.00  0.00    +0.001 A 
ATOM     22  C   UNL     1       0.106  -0.639   9.548  0.00  0.00    +0.022 A 
ATOM     23  C   UNL     1       0.096  -1.178   8.259  0.00  0.00    +0.093 A 
BRANCH  23  24
ATOM     24  C   UNL     1       0.114  -2.598   8.072  0.00  0.00    +0.103 C 
ATOM     25  N   UNL     1       0.128  -3.724   7.924  0.00  0.00    -0.191 NA
ENDBRANCH  23  24
ENDBRANCH  17  18
ENDBRANCH  16  17
ENDBRANCH   2  16
TORSDOF 7
