REMARK  Name = ZINC04009929
REMARK  2 active torsions:
REMARK  status: ('A' for Active; 'I' for Inactive)
REMARK    1  A    between atoms: C_9  and  C_12
REMARK    2  A    between atoms: C_12  and  N_14
REMARK                            x       y       z     vdW  Elec       q    Type
REMARK                         _______ _______ _______ _____ _____    ______ ____
ROOT
ATOM      1  C   UNL     1      -0.017   1.378   0.010  0.00  0.00    +0.004 A 
ATOM      2  C   UNL     1       1.170   2.088   0.002  0.00  0.00    +0.004 A 
ATOM      3  C   UNL     1       2.378   1.418  -0.014  0.00  0.00    +0.049 A 
ATOM      4  C   UNL     1       2.404   0.031  -0.023  0.00  0.00    +0.163 A 
ATOM      5  C   UNL     1       1.212  -0.683  -0.013  0.00  0.00    +0.162 A 
ATOM      6  C   UNL     1       0.002  -0.004   0.002  0.00  0.00    +0.049 A 
ATOM      7  O   UNL     1       1.214  -2.044  -0.013  0.00  0.00    -0.484 OA
ATOM      8  C   UNL     1       2.434  -2.685  -0.404  0.00  0.00    +0.280 C 
ATOM      9  C   UNL     1       3.594  -1.997   0.328  0.00  0.00    +0.262 C 
ATOM     10  O   UNL     1       3.602  -0.615  -0.043  0.00  0.00    -0.475 OA
ENDROOT
BRANCH   9  11
ATOM     11  C   UNL     1       4.898  -2.639  -0.071  0.00  0.00    +0.091 C 
ATOM     12  S   UNL     1       5.991  -1.795  -0.876  0.00  0.00    -0.037 S 
BRANCH  11  13
ATOM     13  N   UNL     1       5.143  -3.925   0.251  0.00  0.00    -0.353 N 
ATOM     14  H   UNL     1       4.479  -4.437   0.740  0.00  0.00    +0.143 HD
ATOM     15  H   UNL     1       5.982  -4.338  -0.006  0.00  0.00    +0.143 HD
ENDBRANCH  11  13
ENDBRANCH   9  11
TORSDOF 2
