REMARK  Name = ZINC00793395
REMARK  3 active torsions:
REMARK  status: ('A' for Active; 'I' for Inactive)
REMARK    1  A    between atoms: C_3  and  S_6
REMARK    2  A    between atoms: S_6  and  N_9
REMARK    3  A    between atoms: N_9  and  C_10
REMARK                            x       y       z     vdW  Elec       q    Type
REMARK                         _______ _______ _______ _____ _____    ______ ____
ROOT
ATOM      1  C   UNL     1       1.168   3.171   0.008  0.00  0.00    +0.049 A 
ATOM      2  C   UNL     1       1.172   1.778   0.000  0.00  0.00    +0.028 A 
ATOM      3  C   UNL     1      -0.013   1.076   0.008  0.00  0.00    +0.049 A 
ATOM      4  C   UNL     1      -1.226   1.752   0.017  0.00  0.00    +0.136 A 
ATOM      5  C   UNL     1      -1.233   3.157   0.030  0.00  0.00    +0.033 A 
ATOM      6  C   UNL     1      -0.033   3.860   0.022  0.00  0.00    +0.036 A 
ATOM      7  C   UNL     1      -2.649   3.527   0.044  0.00  0.00    +0.066 A 
ATOM      8  C   UNL     1      -3.362   2.354   0.048  0.00  0.00    +0.117 A 
ATOM      9  O   UNL     1      -2.512   1.329   0.034  0.00  0.00    -0.459 OA
ATOM     10  C   UNL     1      -4.871   2.319   0.065  0.00  0.00    +0.075 C 
ATOM     11  C   UNL     1      -5.404   3.656   0.587  0.00  0.00    +0.016 C 
ATOM     12  C   UNL     1      -4.799   4.822  -0.203  0.00  0.00    +0.080 C 
ATOM     13  C   UNL     1      -3.299   4.839   0.051  0.00  0.00    +0.167 C 
ATOM     14  O   UNL     1      -2.684   5.868   0.245  0.00  0.00    -0.292 OA
ENDROOT
BRANCH   1  15
ATOM     15  N   UNL     1       2.377   3.874   0.001  0.00  0.00    -0.216 N 
ATOM     16  H   UNL     1       2.503   4.628   0.598  0.00  0.00    +0.174 HD
BRANCH  15  17
ATOM     17  S   UNL     1       3.593   3.418  -1.026  0.00  0.00    +0.079 S 
ATOM     18  O   UNL     1       4.664   4.330  -0.818  0.00  0.00    -0.149 OA
ATOM     19  O   UNL     1       3.748   2.014  -0.875  0.00  0.00    -0.149 OA
BRANCH  17  22
ATOM     20  C   UNL     1       2.590   4.781  -4.716  0.00  0.00    +0.010 A 
ATOM     21  C   UNL     1       3.124   4.797  -3.441  0.00  0.00    +0.036 A 
ATOM     22  C   UNL     1       3.016   3.688  -2.669  0.00  0.00    +0.146 A 
ATOM     23  S   UNL     1       2.145   2.568  -3.753  0.00  0.00    -0.077 S 
ATOM     24  C   UNL     1       1.975   3.657  -5.157  0.00  0.00    +0.047 A 
ENDBRANCH  17  22
ENDBRANCH  15  17
ENDBRANCH   1  15
TORSDOF 3
