REMARK  Name = ZINC57342438
REMARK  5 active torsions:
REMARK  status: ('A' for Active; 'I' for Inactive)
REMARK    1  A    between atoms: C_1  and  C_2
REMARK    2  A    between atoms: C_2  and  O_3
REMARK    3  A    between atoms: O_3  and  C_4
REMARK    4  A    between atoms: C_4  and  C_6
REMARK    5  A    between atoms: C_15  and  C_20
REMARK                            x       y       z     vdW  Elec       q    Type
REMARK                         _______ _______ _______ _____ _____    ______ ____
ROOT
ATOM      1  C   UNL     1       1.459  -2.363  -2.537  0.00  0.00    +0.115 C 
ATOM      2  C   UNL     1       0.740  -1.886  -3.801  0.00  0.00    +0.018 C 
ATOM      3  C   UNL     1       1.471  -2.417  -5.037  0.00  0.00    +0.020 C 
ATOM      4  C   UNL     1       1.450  -3.949  -5.018  0.00  0.00    +0.108 C 
ATOM      5  N   UNL     1       2.009  -4.414  -3.741  0.00  0.00    -0.300 N 
ATOM      6  C   UNL     1       1.439  -3.894  -2.490  0.00  0.00    +0.122 C 
ATOM      7  C   UNL     1       3.040  -5.314  -3.716  0.00  0.00    +0.199 A 
ATOM      8  N   UNL     1       3.596  -5.630  -2.564  0.00  0.00    -0.212 NA
ATOM      9  C   UNL     1       4.601  -6.501  -2.496  0.00  0.00    +0.152 A 
ATOM     10  C   UNL     1       5.077  -7.087  -3.633  0.00  0.00    +0.102 A 
ATOM     11  C   UNL     1       4.489  -6.755  -4.866  0.00  0.00    +0.253 A 
ATOM     12  N   UNL     1       3.469  -5.870  -4.881  0.00  0.00    -0.295 N 
ATOM     13  O   UNL     1       4.890  -7.260  -5.902  0.00  0.00    -0.268 OA
ATOM     14  H   UNL     1       3.046  -5.630  -5.720  0.00  0.00    +0.172 HD
ENDROOT
BRANCH   9  15
ATOM     15  C   UNL     1       5.214  -6.839  -1.162  0.00  0.00    +0.434 C 
ATOM     16  F   UNL     1       6.244  -7.768  -1.344  0.00  0.00    -0.164 F 
ATOM     17  F   UNL     1       5.732  -5.678  -0.578  0.00  0.00    -0.164 F 
ATOM     18  F   UNL     1       4.236  -7.385  -0.324  0.00  0.00    -0.164 F 
ENDBRANCH   9  15
BRANCH   1  19
ATOM     19  C   UNL     1       0.758  -1.813  -1.322  0.00  0.00    +0.312 C 
ATOM     20  O   UNL     1       0.292  -2.566  -0.501  0.00  0.00    -0.250 OA
BRANCH  19  21
ATOM     21  O   UNL     1       0.652  -0.486  -1.152  0.00  0.00    -0.465 OA
BRANCH  21  23
ATOM     22  C   UNL     1      -0.046   1.496   0.043  0.00  0.00    +0.048 C 
ATOM     23  C   UNL     1      -0.025  -0.034   0.023  0.00  0.00    +0.229 C 
ENDBRANCH  21  23
ENDBRANCH  19  21
ENDBRANCH   1  19
TORSDOF 4
