REMARK  Name = ZINC66908179
REMARK  9 active torsions:
REMARK  status: ('A' for Active; 'I' for Inactive)
REMARK    1  A    between atoms: C_1  and  N_2
REMARK    2  A    between atoms: N_2  and  C_3
REMARK    3  A    between atoms: N_2  and  C_4
REMARK    4  A    between atoms: C_4  and  C_5
REMARK    5  A    between atoms: C_10  and  C_11
REMARK    6  A    between atoms: C_11  and  N_12
REMARK    7  A    between atoms: N_15  and  C_16
REMARK    8  A    between atoms: C_16  and  C_17
REMARK    9  A    between atoms: C_17  and  O_27
REMARK                            x       y       z     vdW  Elec       q    Type
REMARK                         _______ _______ _______ _____ _____    ______ ____
ROOT
ATOM      1  N   UNL     1      -2.537  -2.369   2.704  0.00  0.00    -0.295 N 
ATOM      2  C   UNL     1      -2.716  -1.655   3.834  0.00  0.00    +0.300 C 
ATOM      3  O   UNL     1      -1.773  -1.435   4.570  0.00  0.00    -0.253 OA
ATOM      4  N   UNL     1      -3.939  -1.185   4.147  0.00  0.00    -0.296 N 
ATOM      5  H   UNL     1      -3.288  -2.544   2.117  0.00  0.00    +0.151 HD
ATOM      6  H   UNL     1      -4.691  -1.360   3.560  0.00  0.00    +0.150 HD
ENDROOT
BRANCH   1   7
ATOM      7  C   UNL     1      -1.206  -2.880   2.364  0.00  0.00    +0.141 C 
BRANCH   7  13
ATOM      8  C   UNL     1      -1.175  -2.736  -0.135  0.00  0.00    -0.059 A 
ATOM      9  C   UNL     1      -1.208  -3.325  -1.385  0.00  0.00    +0.002 A 
ATOM     10  C   UNL     1      -1.320  -4.698  -1.500  0.00  0.00    +0.000 A 
ATOM     11  C   UNL     1      -1.398  -5.482  -0.364  0.00  0.00    +0.000 A 
ATOM     12  C   UNL     1      -1.364  -4.894   0.886  0.00  0.00    +0.005 A 
ATOM     13  C   UNL     1      -1.248  -3.521   1.001  0.00  0.00    -0.029 A 
BRANCH   8  14
ATOM     14  C   UNL     1      -1.054  -1.239  -0.010  0.00  0.00    -0.043 C 
BRANCH  14  16
ATOM     15  C   UNL     1      -2.249   0.782   0.483  0.00  0.00    -0.096 C 
ATOM     16  N   UNL     1      -2.383  -0.658   0.223  0.00  0.00    +0.379 N 
ATOM     17  C   UNL     1      -3.223  -0.866  -0.964  0.00  0.00    -0.096 C 
ATOM     18  H   UNL     1      -2.811  -1.105   1.020  0.00  0.00    -0.082 HD
ENDBRANCH  14  16
ENDBRANCH   8  14
ENDBRANCH   7  13
ENDBRANCH   1   7
BRANCH   4  19
ATOM     19  C   UNL     1      -4.134  -0.409   5.374  0.00  0.00    +0.145 C 
BRANCH  19  20
ATOM     20  C   UNL     1      -5.621  -0.095   5.549  0.00  0.00    +0.107 C 
ATOM     21  C   UNL     1      -6.137   0.614   4.298  0.00  0.00    +0.041 C 
ATOM     22  C   UNL     1      -7.560   1.111   4.577  0.00  0.00    +0.008 C 
ATOM     23  C   UNL     1      -7.481   2.256   5.584  0.00  0.00    +0.035 C 
ATOM     24  C   UNL     1      -6.663   1.852   6.782  0.00  0.00    -0.041 A 
ATOM     25  C   UNL     1      -5.806   0.774   6.765  0.00  0.00    -0.011 A 
ATOM     26  C   UNL     1      -5.075   0.459   7.903  0.00  0.00    +0.007 A 
ATOM     27  C   UNL     1      -5.203   1.214   9.050  0.00  0.00    +0.000 A 
ATOM     28  C   UNL     1      -6.066   2.293   9.069  0.00  0.00    +0.000 A 
ATOM     29  C   UNL     1      -6.792   2.609   7.939  0.00  0.00    +0.004 A 
BRANCH  20  30
ATOM     30  O   UNL     1      -6.342  -1.316   5.729  0.00  0.00    -0.382 OA
ATOM     31  H   UNL     1      -6.064  -1.827   6.501  0.00  0.00    +0.211 HD
ENDBRANCH  20  30
ENDBRANCH  19  20
ENDBRANCH   4  19
TORSDOF 7
