REMARK  Name = ZINC67575343
REMARK  6 active torsions:
REMARK  status: ('A' for Active; 'I' for Inactive)
REMARK    1  A    between atoms: N_4  and  C_6
REMARK    2  A    between atoms: C_10  and  N_12
REMARK    3  A    between atoms: N_15  and  C_16
REMARK    4  A    between atoms: C_16  and  C_17
REMARK    5  A    between atoms: C_17  and  C_18
REMARK    6  A    between atoms: C_18  and  N_19
REMARK                            x       y       z     vdW  Elec       q    Type
REMARK                         _______ _______ _______ _____ _____    ______ ____
ROOT
ATOM      1  N   UNL     1       0.331  -5.143  -0.042  0.00  0.00    -0.269 N 
ATOM      2  C   UNL     1       0.754  -6.418  -0.156  0.00  0.00    +0.304 C 
ATOM      3  O   UNL     1       1.944  -6.665  -0.164  0.00  0.00    -0.253 OA
ATOM      4  N   UNL     1      -0.143  -7.419  -0.261  0.00  0.00    -0.299 N 
ATOM      5  H   UNL     1      -0.616  -4.952   0.043  0.00  0.00    +0.156 HD
ATOM      6  H   UNL     1      -1.093  -7.221  -0.254  0.00  0.00    +0.150 HD
ENDROOT
BRANCH   1  11
ATOM      7  C   UNL     1       1.942  -1.919   0.702  0.00  0.00    +0.048 A 
ATOM      8  C   UNL     1       3.100  -2.025  -0.058  0.00  0.00    +0.026 A 
ATOM      9  C   UNL     1       3.334  -3.162  -0.807  0.00  0.00    +0.004 A 
ATOM     10  C   UNL     1       2.418  -4.196  -0.803  0.00  0.00    +0.023 A 
ATOM     11  C   UNL     1       1.259  -4.096  -0.045  0.00  0.00    +0.037 A 
ATOM     12  C   UNL     1       1.024  -2.957   0.713  0.00  0.00    +0.049 A 
BRANCH   7  16
ATOM     13  C   UNL     1       0.745   0.676   2.818  0.00  0.00    +0.019 A 
ATOM     14  C   UNL     1       1.961   1.225   2.363  0.00  0.00    +0.019 A 
ATOM     15  C   UNL     1       2.528   0.323   1.536  0.00  0.00    +0.091 A 
ATOM     16  N   UNL     1       1.705  -0.764   1.462  0.00  0.00    -0.323 N 
ATOM     17  C   UNL     1       0.613  -0.541   2.251  0.00  0.00    +0.091 A 
ENDBRANCH   7  16
ENDBRANCH   1  11
BRANCH   4  18
ATOM     18  C   UNL     1       0.316  -8.804  -0.385  0.00  0.00    +0.107 C 
BRANCH  18  19
ATOM     19  C   UNL     1      -0.894  -9.735  -0.487  0.00  0.00    +0.038 C 
BRANCH  19  20
ATOM     20  C   UNL     1      -0.414 -11.182  -0.616  0.00  0.00    +0.119 C 
BRANCH  20  21
ATOM     21  N   UNL     1      -1.572 -12.074  -0.714  0.00  0.00    -0.225 N 
ATOM     22  C   UNL     1      -2.188 -12.634   0.346  0.00  0.00    +0.240 C 
ATOM     23  O   UNL     1      -1.899 -12.501   1.515  0.00  0.00    -0.273 OA
ATOM     24  C   UNL     1      -3.318 -13.466  -0.229  0.00  0.00    +0.202 C 
ATOM     25  N   UNL     1      -3.196 -13.257  -1.683  0.00  0.00    -0.290 N 
ATOM     26  C   UNL     1      -2.153 -12.428  -1.866  0.00  0.00    +0.309 C 
ATOM     27  O   UNL     1      -1.778 -12.045  -2.957  0.00  0.00    -0.252 OA
ATOM     28  H   UNL     1      -3.760 -13.641  -2.372  0.00  0.00    +0.151 HD
ENDBRANCH  20  21
ENDBRANCH  19  20
ENDBRANCH  18  19
ENDBRANCH   4  18
TORSDOF 6
