REMARK  Name = ZINC47036812
REMARK  7 active torsions:
REMARK  status: ('A' for Active; 'I' for Inactive)
REMARK    1  A    between atoms: C_3  and  N_21
REMARK    2  A    between atoms: C_6  and  C_7
REMARK    3  A    between atoms: C_7  and  N_8
REMARK    4  A    between atoms: N_11  and  N_12
REMARK    5  A    between atoms: N_12  and  C_13
REMARK    6  A    between atoms: C_13  and  N_15
REMARK    7  A    between atoms: N_15  and  C_16
REMARK                            x       y       z     vdW  Elec       q    Type
REMARK                         _______ _______ _______ _____ _____    ______ ____
ROOT
ATOM      1  N   UNL     1      -1.739  -0.995  -1.367  0.00  0.00    -0.294 N 
ATOM      2  C   UNL     1      -2.883  -1.667  -1.606  0.00  0.00    +0.316 C 
ATOM      3  O   UNL     1      -3.545  -2.089  -0.677  0.00  0.00    -0.251 OA
ATOM      4  N   UNL     1      -3.293  -1.871  -2.873  0.00  0.00    -0.219 N 
ATOM      5  H   UNL     1      -1.211  -0.659  -2.108  0.00  0.00    +0.151 HD
ATOM      6  H   UNL     1      -4.116  -2.355  -3.045  0.00  0.00    +0.174 HD
ENDROOT
BRANCH   4   7
ATOM      7  N   UNL     1      -2.530  -1.385  -3.943  0.00  0.00    -0.245 N 
ATOM      8  H   UNL     1      -1.706  -0.902  -3.771  0.00  0.00    +0.172 HD
BRANCH   7   9
ATOM      9  C   UNL     1      -2.939  -1.589  -5.211  0.00  0.00    +0.147 C 
ATOM     10  S   UNL     1      -2.007  -0.995  -6.518  0.00  0.00    -0.017 S 
BRANCH   9  11
ATOM     11  N   UNL     1      -4.083  -2.261  -5.449  0.00  0.00    -0.323 N 
ATOM     12  H   UNL     1      -4.612  -2.598  -4.709  0.00  0.00    +0.148 HD
BRANCH  11  13
ATOM     13  C   UNL     1      -4.529  -2.483  -6.827  0.00  0.00    +0.072 C 
ATOM     14  C   UNL     1      -3.906  -3.781  -7.381  0.00  0.00    +0.022 C 
ATOM     15  C   UNL     1      -4.995  -4.856  -7.143  0.00  0.00    +0.002 C 
ATOM     16  C   UNL     1      -6.306  -4.086  -7.438  0.00  0.00    +0.002 C 
ATOM     17  C   UNL     1      -6.055  -2.677  -6.863  0.00  0.00    +0.022 C 
ENDBRANCH  11  13
ENDBRANCH   9  11
ENDBRANCH   7   9
ENDBRANCH   4   7
BRANCH   1  18
ATOM     18  C   UNL     1      -1.294  -0.773   0.011  0.00  0.00    +0.141 C 
BRANCH  18  24
ATOM     19  C   UNL     1      -0.016   1.378   0.030  0.00  0.00    +0.007 A 
ATOM     20  C   UNL     1       1.169   2.087   0.022  0.00  0.00    +0.023 A 
ATOM     21  C   UNL     1       2.381   1.409  -0.013  0.00  0.00    +0.030 A 
ATOM     22  C   UNL     1       2.396   0.020  -0.041  0.00  0.00    +0.023 A 
ATOM     23  C   UNL     1       1.207  -0.682  -0.033  0.00  0.00    +0.007 A 
ATOM     24  C   UNL     1       0.002  -0.004   0.002  0.00  0.00    -0.030 A 
BRANCH  21  25
ATOM     25  N   UNL     1       3.582   2.122  -0.021  0.00  0.00    -0.328 N 
ATOM     26  C   UNL     1       4.852   1.400   0.068  0.00  0.00    +0.116 C 
ATOM     27  C   UNL     1       5.632   1.575  -1.241  0.00  0.00    +0.088 C 
ATOM     28  S   UNL     1       5.869   3.352  -1.543  0.00  0.00    -0.158 S 
ATOM     29  C   UNL     1       4.180   4.017  -1.450  0.00  0.00    +0.088 C 
ATOM     30  C   UNL     1       3.555   3.582  -0.124  0.00  0.00    +0.116 C 
ENDBRANCH  21  25
ENDBRANCH  18  24
ENDBRANCH   1  18
TORSDOF 7
