REMARK  Name = ZINC44967876
REMARK  6 active torsions:
REMARK  status: ('A' for Active; 'I' for Inactive)
REMARK    1  A    between atoms: CB_1  and  CA_2
REMARK    2  A    between atoms: CA_2  and  C_4
REMARK    3  A    between atoms: CA_2  and  N_6
REMARK    4  A    between atoms: C_4  and  O_5
REMARK    5  A    between atoms: N_9  and  C_10
REMARK    6  A    between atoms: C_10  and  C_11
REMARK                            x       y       z     vdW  Elec       q    Type
REMARK                         _______ _______ _______ _____ _____    ______ ____
ROOT
ATOM      1  C   UNK A   0       0.935  -1.746   5.770  0.00  0.00    -0.014 A 
ATOM      2  C   UNK A   0       1.124  -3.111   5.943  0.00  0.00    +0.010 A 
ATOM      3  C   UNK A   0       2.005  -3.537   6.920  0.00  0.00    +0.042 A 
ATOM      4  C   UNK A   0       2.668  -2.589   7.693  0.00  0.00    +0.099 A 
ATOM      5  N   UNK A   0       2.460  -1.296   7.497  0.00  0.00    -0.349 N 
ATOM      6  C   UNK A   0       1.630  -0.861   6.568  0.00  0.00    +0.089 A 
ATOM      7  N   UNK A   0       3.555  -3.002   8.679  0.00  0.00    -0.312 N 
ATOM      8  C   UNK A   0       3.716  -4.427   9.016  0.00  0.00    +0.111 C 
ATOM      9  C   UNK A   0       5.146  -4.834   8.664  0.00  0.00    +0.054 C 
ATOM     10  C   UNK A   0       6.136  -3.832   9.196  0.00  0.00    -0.041 A 
ATOM     11  C   UNK A   0       7.454  -4.245   9.344  0.00  0.00    +0.004 A 
ATOM     12  C   UNK A   0       8.413  -3.374   9.817  0.00  0.00    +0.000 A 
ATOM     13  C   UNK A   0       8.063  -2.078  10.146  0.00  0.00    +0.000 A 
ATOM     14  C   UNK A   0       6.754  -1.666  10.004  0.00  0.00    +0.005 A 
ATOM     15  C   UNK A   0       5.786  -2.544   9.533  0.00  0.00    -0.027 A 
ATOM     16  C   UNK A   0       4.374  -2.038   9.422  0.00  0.00    +0.141 C 
ATOM     17  H   UNK A   0       2.933  -0.652   8.048  0.00  0.00    +0.167 HD
ENDROOT
BRANCH   1  18
ATOM     18  C   UNK A   0      -0.015  -1.237   4.717  0.00  0.00    +0.142 C 
BRANCH  18  22
ATOM     19  N   ALA A   1       0.720  -0.429   1.206  0.00  0.00    -0.295 N 
ATOM     20  C   UNK A   0       0.055  -0.600   2.366  0.00  0.00    +0.300 C 
ATOM     21  O   UNK A   0      -1.132  -0.346   2.429  0.00  0.00    -0.253 OA
ATOM     22  N   UNK A   0       0.707  -1.051   3.456  0.00  0.00    -0.295 N 
ATOM     23  H   ALA A   1       1.667  -0.631   1.155  0.00  0.00    +0.151 HD
ATOM     24  H   UNK A   0       1.654  -1.253   3.405  0.00  0.00    +0.151 HD
BRANCH  19  26
ATOM     25  CB  ALA A   1      -0.033   1.591   0.051  0.00  0.00    +0.030 C 
ATOM     26  CA  ALA A   1       0.011   0.062   0.021  0.00  0.00    +0.097 C 
BRANCH  26  27
ATOM     27  C   ALA A   1       0.743  -0.402  -1.240  0.00  0.00    +0.177 C 
BRANCH  27  28
ATOM     28  O   ALA A   1       2.035   0.206  -1.292  0.00  0.00    -0.393 OA
ATOM     29  H   ALA A   1       2.556  -0.043  -2.067  0.00  0.00    +0.209 HD
ENDBRANCH  27  28
ENDBRANCH  26  27
ENDBRANCH  19  26
ENDBRANCH  18  22
ENDBRANCH   1  18
TORSDOF 5
