REMARK  Name = ZINC21047538
REMARK  3 active torsions:
REMARK  status: ('A' for Active; 'I' for Inactive)
REMARK    1  A    between atoms: C_3  and  O_10
REMARK    2  A    between atoms: C_6  and  C_7
REMARK    3  A    between atoms: O_10  and  C_11
REMARK                            x       y       z     vdW  Elec       q    Type
REMARK                         _______ _______ _______ _____ _____    ______ ____
ROOT
ATOM      1  C   UNL     1      -2.333   5.478   0.362  0.00  0.00    +0.018 A 
ATOM      2  C   UNL     1      -2.369   4.103   0.243  0.00  0.00    +0.068 A 
ATOM      3  C   UNL     1      -1.174   3.399   0.130  0.00  0.00    +0.221 A 
ATOM      4  N   UNL     1      -0.011   4.030   0.126  0.00  0.00    -0.220 NA
ATOM      5  C   UNL     1       0.068   5.341   0.231  0.00  0.00    +0.125 A 
ATOM      6  C   UNL     1      -1.085   6.114   0.353  0.00  0.00    +0.030 A 
ENDROOT
BRANCH   6   7
ATOM      7  C   UNL     1      -0.992   7.586   0.472  0.00  0.00    +0.096 C 
ATOM      8  N   UNL     1      -2.076   8.300   0.585  0.00  0.00    -0.387 N 
ATOM      9  N   UNL     1       0.241   8.202   0.463  0.00  0.00    -0.345 N 
ATOM     10  H   UNL     1      -2.007   9.395   0.674  0.00  0.00    +0.157 HD
ATOM     11  H   UNL     1       0.310   9.296   0.551  0.00  0.00    +0.144 HD
ATOM     12  H   UNL     1       1.156   7.599   0.367  0.00  0.00    +0.144 HD
ATOM     13  H   UNL     1      -3.060   7.809   0.593  0.00  0.00    +0.157 HD
ENDBRANCH   6   7
BRANCH   3  14
ATOM     14  O   UNL     1      -1.203   2.049   0.019  0.00  0.00    -0.437 OA
BRANCH  14  15
ATOM     15  C   UNL     1      -0.018   1.383   0.026  0.00  0.00    +0.150 A 
ATOM     16  C   UNL     1       0.578   1.011  -1.170  0.00  0.00    +0.069 A 
ATOM     17  C   UNL     1       1.780   0.329  -1.160  0.00  0.00    +0.063 A 
ATOM     18  C   UNL     1       2.390   0.017   0.044  0.00  0.00    +0.061 A 
ATOM     19  C   UNL     1       1.798   0.387   1.238  0.00  0.00    +0.045 A 
ATOM     20  C   UNL     1       0.596   1.069   1.232  0.00  0.00    +0.085 A 
ATOM     21 CL   UNL     1      -0.147   1.532   2.731  0.00  0.00    -0.080 Cl
ATOM     22 CL   UNL     1       3.900  -0.840   0.054  0.00  0.00    -0.082 Cl
ATOM     23 CL   UNL     1       2.526  -0.136  -2.657  0.00  0.00    -0.082 Cl
ENDBRANCH  14  15
ENDBRANCH   3  14
TORSDOF 3
