REMARK  Name = ZINC67609839
REMARK  6 active torsions:
REMARK  status: ('A' for Active; 'I' for Inactive)
REMARK    1  A    between atoms: C_1  and  C_2
REMARK    2  A    between atoms: C_4  and  C_7
REMARK    3  A    between atoms: C_7  and  N_8
REMARK    4  A    between atoms: N_11  and  C_12
REMARK    5  A    between atoms: C_12  and  C_14
REMARK    6  A    between atoms: C_12  and  C_15
REMARK                            x       y       z     vdW  Elec       q    Type
REMARK                         _______ _______ _______ _____ _____    ______ ____
ROOT
ATOM      1  C   UNL     1      -3.435  -6.533  -3.171  0.00  0.00    +0.102 C 
ATOM      2  C   UNL     1      -4.908  -6.129  -3.256  0.00  0.00    +0.033 C 
ENDROOT
BRANCH   1   3
ATOM      3  C   UNL     1      -3.007  -7.151  -4.478  0.00  0.00    -0.025 A 
ATOM      4  C   UNL     1      -2.683  -6.341  -5.550  0.00  0.00    +0.009 A 
ATOM      5  C   UNL     1      -2.288  -6.901  -6.752  0.00  0.00    +0.048 A 
ATOM      6  C   UNL     1      -2.218  -8.277  -6.881  0.00  0.00    +0.142 A 
ATOM      7  C   UNL     1      -2.546  -9.093  -5.800  0.00  0.00    +0.076 A 
ATOM      8  C   UNL     1      -2.934  -8.527  -4.598  0.00  0.00    +0.032 A 
ATOM      9  N   UNL     1      -2.473 -10.486  -5.946  0.00  0.00    -0.280 N 
ATOM     10  C   UNL     1      -1.798 -11.000  -6.997  0.00  0.00    +0.255 C 
ATOM     11  O   UNL     1      -1.748 -12.200  -7.161  0.00  0.00    -0.272 OA
ATOM     12  C   UNL     1      -1.108 -10.074  -7.967  0.00  0.00    +0.325 C 
ATOM     13  O   UNL     1      -1.831  -8.844  -8.055  0.00  0.00    -0.481 OA
ATOM     14  H   UNL     1      -2.900 -11.072  -5.301  0.00  0.00    +0.155 HD
ENDBRANCH   1   3
BRANCH   1  18
ATOM     15  N   UNL     1      -1.691  -3.832  -1.387  0.00  0.00    -0.294 N 
ATOM     16  C   UNL     1      -2.442  -4.923  -1.635  0.00  0.00    +0.300 C 
ATOM     17  O   UNL     1      -2.961  -5.526  -0.715  0.00  0.00    -0.253 OA
ATOM     18  N   UNL     1      -2.619  -5.346  -2.902  0.00  0.00    -0.293 N 
ATOM     19  H   UNL     1      -1.278  -3.351  -2.121  0.00  0.00    +0.151 HD
ATOM     20  H   UNL     1      -2.205  -4.865  -3.636  0.00  0.00    +0.151 HD
BRANCH  15  21
ATOM     21  C   UNL     1      -1.500  -3.372  -0.010  0.00  0.00    +0.164 C 
BRANCH  21  25
ATOM     22  C   UNL     1      -0.018   1.503   0.010  0.00  0.00    +0.089 C 
ATOM     23  C   UNL     1       0.002  -0.004   0.002  0.00  0.00    +0.135 A 
ATOM     24  C   UNL     1      -1.077  -0.810   0.003  0.00  0.00    +0.072 A 
ATOM     25  C   UNL     1      -0.627  -2.143  -0.007  0.00  0.00    +0.101 A 
ATOM     26  N   UNL     1       0.676  -2.130  -0.013  0.00  0.00    -0.081 NA
ATOM     27  O   UNL     1       1.098  -0.778  -0.013  0.00  0.00    -0.360 OA
ENDBRANCH  21  25
ENDBRANCH  15  21
ENDBRANCH   1  18
TORSDOF 4
