REMARK  Name = ZINC37486824
REMARK  8 active torsions:
REMARK  status: ('A' for Active; 'I' for Inactive)
REMARK    1  A    between atoms: C_1  and  C_2
REMARK    2  A    between atoms: C_2  and  C_3
REMARK    3  A    between atoms: C_3  and  N_4
REMARK    4  A    between atoms: C_5  and  N_25
REMARK    5  A    between atoms: C_6  and  N_13
REMARK    6  A    between atoms: N_13  and  C_14
REMARK    7  A    between atoms: C_19  and  C_24
REMARK    8  A    between atoms: C_21  and  C_23
REMARK                            x       y       z     vdW  Elec       q    Type
REMARK                         _______ _______ _______ _____ _____    ______ ____
ROOT
ATOM      1  N   UNL     1       0.884  -1.983  -1.537  0.00  0.00    -0.281 N 
ATOM      2  C   UNL     1       1.911  -2.654  -0.911  0.00  0.00    +0.127 A 
ATOM      3  C   UNL     1       1.816  -4.007  -0.731  0.00  0.00    +0.131 A 
ATOM      4  C   UNL     1       0.669  -4.678  -1.192  0.00  0.00    +0.277 A 
ATOM      5  O   UNL     1       0.562  -5.884  -1.042  0.00  0.00    -0.266 OA
ATOM      6  N   UNL     1      -0.311  -3.981  -1.799  0.00  0.00    -0.273 N 
ATOM      7  H   UNL     1      -1.103  -4.442  -2.117  0.00  0.00    +0.173 HD
ATOM      8  C   UNL     1      -0.204  -2.650  -1.963  0.00  0.00    +0.331 A 
ATOM      9  O   UNL     1      -1.103  -2.040  -2.510  0.00  0.00    -0.246 OA
ENDROOT
BRANCH   2  10
ATOM     10  N   UNL     1       3.021  -1.970  -0.472  0.00  0.00    -0.343 N 
ATOM     11  H   UNL     1       3.083  -1.011  -0.602  0.00  0.00    +0.144 HD
ATOM     12  H   UNL     1       3.741  -2.448  -0.031  0.00  0.00    +0.144 HD
ENDBRANCH   2  10
BRANCH   3  13
ATOM     13  N   UNL     1       2.857  -4.720  -0.092  0.00  0.00    -0.334 N 
ATOM     14  H   UNL     1       3.606  -4.242   0.295  0.00  0.00    +0.147 HD
BRANCH  13  15
ATOM     15  C   UNL     1       2.803  -6.182  -0.014  0.00  0.00    +0.074 C 
ATOM     16  C   UNL     1       1.914  -6.598   1.160  0.00  0.00    +0.022 C 
ATOM     17  C   UNL     1       1.857  -8.125   1.241  0.00  0.00    +0.002 C 
ATOM     18  C   UNL     1       3.269  -8.677   1.449  0.00  0.00    +0.003 C 
ATOM     19  C   UNL     1       4.157  -8.261   0.276  0.00  0.00    -0.009 C 
ATOM     20  C   UNL     1       4.214  -6.734   0.194  0.00  0.00    +0.009 C 
ATOM     21  C   UNL     1       4.793  -6.176   1.496  0.00  0.00    +0.009 C 
ATOM     22  C   UNL     1       5.569  -8.813   0.484  0.00  0.00    +0.008 C 
ENDBRANCH  13  15
ENDBRANCH   3  13
BRANCH   1  23
ATOM     23  C   UNL     1       0.975  -0.535  -1.735  0.00  0.00    +0.128 C 
BRANCH  23  25
ATOM     24  C   UNL     1       0.469   1.697  -0.731  0.00  0.00    +0.005 C 
ATOM     25  C   UNL     1       0.374   0.184  -0.525  0.00  0.00    +0.018 C 
ENDBRANCH  23  25
ENDBRANCH   1  23
TORSDOF 5
