REMARK  Name = ZINC64328908
REMARK  2 active torsions:
REMARK  status: ('A' for Active; 'I' for Inactive)
REMARK    1  A    between atoms: C_1  and  C_2
REMARK    2  A    between atoms: C_16  and  C_18
REMARK                            x       y       z     vdW  Elec       q    Type
REMARK                         _______ _______ _______ _____ _____    ______ ____
ROOT
ATOM      1  C   UNL     1       0.499  -2.492  -2.303  0.00  0.00    +0.041 C 
ATOM      2  C   UNL     1       0.006  -3.793  -1.667  0.00  0.00    +0.151 C 
ATOM      3  N   UNL     1      -1.401  -3.675  -1.220  0.00  0.00    -0.254 N 
ATOM      4  N   UNL     1      -1.600  -3.821   0.134  0.00  0.00    -0.163 NA
ATOM      5  C   UNL     1      -0.640  -4.047   0.976  0.00  0.00    +0.180 C 
ATOM      6  S   UNL     1       0.825  -4.100  -0.047  0.00  0.00    -0.065 S 
ATOM      7  N   UNL     1      -0.729  -4.210   2.355  0.00  0.00    -0.247 N 
ATOM      8  C   UNL     1      -1.928  -4.139   2.966  0.00  0.00    +0.309 C 
ATOM      9  O   UNL     1      -2.919  -3.843   2.328  0.00  0.00    -0.252 OA
ATOM     10  N   UNL     1      -2.028  -4.396   4.285  0.00  0.00    -0.275 N 
ATOM     11  C   UNL     1      -0.825  -4.626   5.097  0.00  0.00    +0.110 C 
ATOM     12  C   UNL     1      -0.849  -3.672   6.295  0.00  0.00    +0.019 C 
ATOM     13  C   UNL     1      -2.164  -3.848   7.057  0.00  0.00    +0.004 C 
ATOM     14  C   UNL     1      -3.338  -3.499   6.139  0.00  0.00    +0.030 C 
ATOM     15  C   UNL     1      -3.343  -4.446   4.941  0.00  0.00    +0.141 C 
ATOM     16  H   UNL     1      -2.130  -3.506  -1.838  0.00  0.00    +0.169 HD
ATOM     17  H   UNL     1       0.072  -4.375   2.877  0.00  0.00    +0.158 HD
ENDROOT
BRANCH  15  18
ATOM     18  C   UNL     1      -4.410  -4.019   3.966  0.00  0.00    +0.105 A 
ATOM     19  N   UNL     1      -5.451  -4.747   3.596  0.00  0.00    -0.348 N 
ATOM     20  H   UNL     1      -5.657  -5.643   3.905  0.00  0.00    +0.166 HD
ATOM     21  C   UNL     1      -6.178  -4.027   2.716  0.00  0.00    +0.101 A 
ATOM     22  C   UNL     1      -5.556  -2.842   2.555  0.00  0.00    +0.101 A 
ATOM     23  N   UNL     1      -4.461  -2.852   3.343  0.00  0.00    -0.348 N 
ATOM     24  H   UNL     1      -3.821  -2.130   3.436  0.00  0.00    +0.166 HD
ENDBRANCH  15  18
TORSDOF 1
