REMARK  Name = ZINC08698793
REMARK  3 active torsions:
REMARK  status: ('A' for Active; 'I' for Inactive)
REMARK    1  A    between atoms: C_4  and  N_28
REMARK    2  A    between atoms: C_6  and  C_9
REMARK    3  A    between atoms: C_11  and  N_28
REMARK                            x       y       z     vdW  Elec       q    Type
REMARK                         _______ _______ _______ _____ _____    ______ ____
ROOT
ATOM      1  C   UNL     1      -0.729   1.579   1.267  0.00  0.00    +0.001 C 
ATOM      2  C   UNL     1      -2.164   1.050   1.278  0.00  0.00    -0.002 C 
ATOM      3  C   UNL     1      -2.904   1.556   0.038  0.00  0.00    -0.015 C 
ATOM      4  C   UNL     1      -2.188   1.063  -1.221  0.00  0.00    -0.058 C 
ATOM      5  C   UNL     1      -0.753   1.593  -1.232  0.00  0.00    +0.088 C 
ATOM      6  C   UNL     1      -0.013   1.086   0.008  0.00  0.00    +0.013 C 
ENDROOT
BRANCH   5   7
ATOM      7  C   UNL     1      -0.047   1.107  -2.471  0.00  0.00    +0.357 C 
ATOM      8  O   UNL     1      -0.633   0.408  -3.265  0.00  0.00    -0.246 OA
ATOM      9  O   UNL     1       1.231   1.450  -2.694  0.00  0.00    -0.246 OA
ENDBRANCH   5   7
BRANCH   4  10
ATOM     10  N   UNL     1      -2.160  -0.412  -1.225  0.00  0.00    +0.383 N 
ATOM     11  H   UNL     1      -2.058  -0.751  -0.262  0.00  0.00    -0.085 HD
ATOM     12  H   UNL     1      -1.364  -0.734  -1.788  0.00  0.00    -0.085 HD
BRANCH  10  13
ATOM     13  C   UNL     1      -3.409  -0.946  -1.799  0.00  0.00    -0.072 C 
ATOM     14  C   UNL     1      -4.062  -2.127  -1.079  0.00  0.00    -0.017 C 
ATOM     15  C   UNL     1      -3.353  -2.344  -2.418  0.00  0.00    -0.017 C 
ENDBRANCH  10  13
ENDBRANCH   4  10
TORSDOF 3
