REMARK  Name = ZINC07591417
REMARK  12 active torsions:
REMARK  status: ('A' for Active; 'I' for Inactive)
REMARK    1  A    between atoms: C_1  and  C_2
REMARK    2  A    between atoms: C_2  and  N_3
REMARK    3  A    between atoms: N_3  and  C_4
REMARK    4  A    between atoms: C_4  and  C_5
REMARK    5  A    between atoms: C_6  and  C_8
REMARK    6  A    between atoms: C_8  and  N_53
REMARK    7  A    between atoms: C_9  and  N_53
REMARK    8  A    between atoms: C_10  and  C_11
REMARK    9  A    between atoms: C_10  and  N_53
REMARK   10  A    between atoms: N_16  and  C_17
REMARK   11  A    between atoms: C_20  and  C_24
REMARK   12  A    between atoms: C_22  and  C_23
REMARK                            x       y       z     vdW  Elec       q    Type
REMARK                         _______ _______ _______ _____ _____    ______ ____
ROOT
ATOM      1  C   UNL     1       2.320   1.244  -0.034  0.00  0.00    +0.204 C 
ATOM      2  O   UNL     1       2.336   0.032  -0.032  0.00  0.00    -0.277 OA
ATOM      3  N   UNL     1       1.143   1.901  -0.015  0.00  0.00    -0.241 N 
ATOM      4  C   UNL     1      -0.014   1.212   0.005  0.00  0.00    +0.310 C 
ATOM      5  O   UNL     1       0.003  -0.004   0.006  0.00  0.00    -0.252 OA
ATOM      6  N   UNL     1      -1.191   1.869   0.018  0.00  0.00    -0.269 N 
ATOM      7  H   UNL     1       1.130   2.871  -0.016  0.00  0.00    +0.159 HD
ATOM      8  H   UNL     1      -1.205   2.836   0.099  0.00  0.00    +0.156 HD
ENDROOT
BRANCH   6   9
ATOM      9  C   UNL     1      -2.391   1.158  -0.086  0.00  0.00    +0.038 A 
ATOM     10  C   UNL     1      -2.411  -0.089  -0.699  0.00  0.00    +0.024 A 
ATOM     11  C   UNL     1      -3.597  -0.788  -0.799  0.00  0.00    +0.005 A 
ATOM     12  C   UNL     1      -4.765  -0.250  -0.290  0.00  0.00    -0.050 A 
ATOM     13  C   UNL     1      -4.748   0.991   0.321  0.00  0.00    +0.008 A 
ATOM     14  C   UNL     1      -3.564   1.694   0.428  0.00  0.00    -0.029 A 
ATOM     15  C   UNL     1      -3.546   3.043   1.099  0.00  0.00    +0.045 C 
ATOM     16  C   UNL     1      -6.057  -1.016  -0.401  0.00  0.00    +0.044 C 
ENDBRANCH   6   9
BRANCH   1  17
ATOM     17  C   UNL     1       3.614   2.015  -0.056  0.00  0.00    +0.019 C 
BRANCH  17  19
ATOM     18  C   UNL     1       4.813   0.313   1.180  0.00  0.00    -0.095 C 
ATOM     19  N   UNL     1       4.739   1.058  -0.095  0.00  0.00    +0.389 N 
ATOM     20  H   UNL     1       4.584   0.392  -0.861  0.00  0.00    -0.081 HD
BRANCH  19  21
ATOM     21  C   UNL     1       6.008   1.778  -0.333  0.00  0.00    +0.019 C 
BRANCH  21  23
ATOM     22  N   UNL     1       8.353   1.187  -0.851  0.00  0.00    -0.304 N 
ATOM     23  C   UNL     1       7.099   0.770  -0.587  0.00  0.00    +0.199 C 
ATOM     24  O   UNL     1       6.848  -0.416  -0.555  0.00  0.00    -0.278 OA
BRANCH  22  26
ATOM     25  C   UNL     1       9.066   3.093   0.507  0.00  0.00    +0.024 C 
ATOM     26  C   UNL     1       8.656   2.620  -0.889  0.00  0.00    +0.104 C 
ENDBRANCH  22  26
BRANCH  22  27
ATOM     27  C   UNL     1       9.414   0.207  -1.097  0.00  0.00    +0.104 C 
ATOM     28  C   UNL     1       9.479  -0.108  -2.593  0.00  0.00    +0.024 C 
ENDBRANCH  22  27
ENDBRANCH  21  23
ENDBRANCH  19  21
ENDBRANCH  17  19
ENDBRANCH   1  17
TORSDOF 7
