REMARK  Name = ZINC17197227
REMARK  5 active torsions:
REMARK  status: ('A' for Active; 'I' for Inactive)
REMARK    1  A    between atoms: C_1  and  C_2
REMARK    2  A    between atoms: C_2  and  C_39
REMARK    3  A    between atoms: C_8  and  C_38
REMARK    4  A    between atoms: C_22  and  C_37
REMARK    5  A    between atoms: C_30  and  C_32
REMARK                            x       y       z     vdW  Elec       q    Type
REMARK                         _______ _______ _______ _____ _____    ______ ____
ROOT
ATOM      1  C   UNL     1       2.045   2.781   0.709  0.00  0.00    +0.041 C 
ATOM      2  C   UNL     1       1.828   1.595  -0.219  0.00  0.00    +0.068 C 
ATOM      3  C   UNL     1       0.286   1.224  -0.188  0.00  0.00    +0.040 C 
ATOM      4  C   UNL     1      -0.646   1.647   0.807  0.00  0.00    +0.082 C 
ATOM      5  C   UNL     1      -1.904   0.952   0.564  0.00  0.00    +0.143 C 
ATOM      6  O   UNL     1      -2.777   0.846   1.433  0.00  0.00    -0.297 OA
ATOM      7  C   UNL     1      -2.195   0.396  -0.798  0.00  0.00    +0.062 C 
ATOM      8  C   UNL     1      -1.474   1.176  -1.895  0.00  0.00    +0.017 C 
ATOM      9  C   UNL     1      -0.164   1.683  -1.553  0.00  0.00    +0.041 C 
ATOM     10  C   UNL     1      -0.297   3.214  -1.458  0.00  0.00    +0.242 C 
ATOM     11  O   UNL     1      -0.615   3.778  -2.744  0.00  0.00    -0.464 OA
ATOM     12  C   UNL     1       0.004   3.313  -3.817  0.00  0.00    +0.310 C 
ATOM     13  O   UNL     1      -0.150   3.860  -4.976  0.00  0.00    -0.251 OA
ATOM     14  C   UNL     1       1.000   2.218  -3.771  0.00  0.00    +0.152 C 
ATOM     15  C   UNL     1       1.050   1.437  -2.458  0.00  0.00    +0.140 C 
ATOM     16  O   UNL     1       2.128   1.940  -1.616  0.00  0.00    -0.369 OA
ATOM     17  C   UNL     1      -1.600   0.428  -3.243  0.00  0.00    +0.006 C 
ATOM     18  C   UNL     1      -2.891  -0.316  -3.498  0.00  0.00    +0.014 C 
ATOM     19  C   UNL     1      -4.033   0.294  -2.603  0.00  0.00    +0.042 C 
ATOM     20  C   UNL     1      -3.663   0.257  -1.124  0.00  0.00    +0.128 C 
ATOM     21  C   UNL     1      -4.855   0.673  -0.180  0.00  0.00    +0.260 C 
ATOM     22  O   UNL     1      -4.361  -0.699  -0.291  0.00  0.00    -0.351 OA
ATOM     23  C   UNL     1      -6.154   0.694  -0.791  0.00  0.00    +0.340 C 
ATOM     24  O   UNL     1      -7.104   1.292  -0.252  0.00  0.00    -0.248 OA
ATOM     25  O   UNL     1      -6.447   0.160  -1.991  0.00  0.00    -0.454 OA
ATOM     26  C   UNL     1      -5.431  -0.363  -2.891  0.00  0.00    +0.218 C 
ATOM     27  C   UNL     1      -4.304   1.712  -3.004  0.00  0.00    +0.018 C 
ATOM     28  C   UNL     1      -1.670  -1.139  -0.767  0.00  0.00    +0.022 C 
ATOM     29  C   UNL     1       2.623   0.401   0.174  0.00  0.00    +0.041 C 
ENDROOT
BRANCH  26  30
ATOM     30  C   UNL     1      -5.284  -1.854  -2.725  0.00  0.00    +0.031 A 
ATOM     31  C   UNL     1      -5.590  -2.607  -1.568  0.00  0.00    +0.048 A 
ATOM     32  C   UNL     1      -5.313  -3.892  -1.855  0.00  0.00    +0.195 A 
ATOM     33  O   UNL     1      -4.859  -3.957  -3.117  0.00  0.00    -0.471 OA
ATOM     34  C   UNL     1      -4.844  -2.724  -3.652  0.00  0.00    +0.202 A 
ENDBRANCH  26  30
TORSDOF 1
