REMARK  Name = ZINC16182362
REMARK  13 active torsions:
REMARK  status: ('A' for Active; 'I' for Inactive)
REMARK    1  A    between atoms: C_1  and  C_2
REMARK    2  A    between atoms: C_2  and  C_3
REMARK    3  A    between atoms: C_3  and  N_4
REMARK    4  A    between atoms: N_4  and  C_5
REMARK    5  A    between atoms: C_5  and  N_7
REMARK    6  A    between atoms: N_7  and  N_8
REMARK    7  A    between atoms: N_8  and  C_9
REMARK    8  A    between atoms: C_12  and  N_27
REMARK    9  A    between atoms: C_14  and  S_15
REMARK   10  A    between atoms: S_15  and  N_18
REMARK   11  A    between atoms: N_18  and  C_19
REMARK   12  A    between atoms: C_22  and  C_26
REMARK   13  A    between atoms: C_24  and  C_25
REMARK                            x       y       z     vdW  Elec       q    Type
REMARK                         _______ _______ _______ _____ _____    ______ ____
ROOT
ATOM      1  C   UNL     1      -1.061  -6.633   0.774  0.00  0.00    +0.071 A 
ATOM      2  C   UNL     1      -2.063  -7.593   0.835  0.00  0.00    +0.028 A 
ATOM      3  C   UNL     1      -1.732  -8.932   0.890  0.00  0.00    +0.035 A 
ATOM      4  C   UNL     1      -0.404  -9.318   0.884  0.00  0.00    +0.128 A 
ATOM      5  C   UNL     1       0.596  -8.365   0.824  0.00  0.00    +0.063 A 
ATOM      6  C   UNL     1       0.271  -7.024   0.762  0.00  0.00    +0.133 A 
ENDROOT
BRANCH   6   7
ATOM      7  S   UNL     1       1.546  -5.811   0.677  0.00  0.00    +0.074 S 
ATOM      8  O   UNL     1       2.780  -6.513   0.743  0.00  0.00    -0.150 OA
ATOM      9  O   UNL     1       1.216  -4.950  -0.405  0.00  0.00    -0.150 OA
BRANCH   7  10
ATOM     10  N   UNL     1       1.447  -4.898   2.055  0.00  0.00    -0.216 N 
ATOM     11  H   UNL     1       1.282  -3.944   1.994  0.00  0.00    +0.174 HD
BRANCH  10  12
ATOM     12  C   UNL     1       1.600  -5.502   3.305  0.00  0.00    +0.051 A 
ATOM     13  C   UNL     1       2.495  -6.553   3.465  0.00  0.00    +0.025 A 
ATOM     14  C   UNL     1       2.644  -7.147   4.703  0.00  0.00    +0.005 A 
ATOM     15  C   UNL     1       1.905  -6.698   5.782  0.00  0.00    -0.050 A 
ATOM     16  C   UNL     1       1.014  -5.653   5.625  0.00  0.00    +0.008 A 
ATOM     17  C   UNL     1       0.863  -5.050   4.392  0.00  0.00    -0.028 A 
ATOM     18  C   UNL     1      -0.104  -3.906   4.224  0.00  0.00    +0.046 C 
ATOM     19  C   UNL     1       2.071  -7.350   7.130  0.00  0.00    +0.044 C 
ENDBRANCH  10  12
ENDBRANCH   7  10
ENDBRANCH   6   7
BRANCH   4  20
ATOM     20  N   UNL     1      -0.052 -10.755   0.944  0.00  0.00    +0.056 N 
ATOM     21  O   UNL     1      -0.925 -11.589   0.997  0.00  0.00    -0.126 OA
ATOM     22  O   UNL     1       1.109 -11.094   0.939  0.00  0.00    -0.126 OA
ENDBRANCH   4  20
BRANCH   1  23
ATOM     23  N   UNL     1      -1.393  -5.277   0.718  0.00  0.00    -0.263 N 
ATOM     24  H   UNL     1      -0.697  -4.612   0.603  0.00  0.00    +0.170 HD
BRANCH  23  25
ATOM     25  N   UNL     1      -2.732  -4.879   0.827  0.00  0.00    -0.248 N 
ATOM     26  H   UNL     1      -3.435  -5.546   0.868  0.00  0.00    +0.172 HD
BRANCH  25  27
ATOM     27  C   UNL     1      -3.043  -3.568   0.875  0.00  0.00    +0.147 C 
ATOM     28  S   UNL     1      -4.664  -3.083   1.136  0.00  0.00    -0.017 S 
BRANCH  27  29
ATOM     29  N   UNL     1      -2.078  -2.640   0.717  0.00  0.00    -0.325 N 
ATOM     30  H   UNL     1      -1.174  -2.914   0.498  0.00  0.00    +0.148 HD
BRANCH  29  31
ATOM     31  C   UNL     1      -2.396  -1.219   0.876  0.00  0.00    +0.103 C 
BRANCH  31  33
ATOM     32  C   UNL     1      -1.444   1.090   0.935  0.00  0.00    +0.005 C 
ATOM     33  C   UNL     1      -1.112  -0.395   0.769  0.00  0.00    +0.015 C 
ENDBRANCH  31  33
ENDBRANCH  29  31
ENDBRANCH  27  29
ENDBRANCH  25  27
ENDBRANCH  23  25
ENDBRANCH   1  23
TORSDOF 10
