REMARK  Name = ZINC41585955
REMARK  4 active torsions:
REMARK  status: ('A' for Active; 'I' for Inactive)
REMARK    1  A    between atoms: C_5  and  C_7
REMARK    2  A    between atoms: C_12  and  O_31
REMARK    3  A    between atoms: C_13  and  C_18
REMARK    4  A    between atoms: C_18  and  N_19
REMARK                            x       y       z     vdW  Elec       q    Type
REMARK                         _______ _______ _______ _____ _____    ______ ____
ROOT
ATOM      1  C   UNL     1       1.246  -2.134  -0.025  0.00  0.00    +0.085 A 
ATOM      2  C   UNL     1       2.454  -2.811  -0.013  0.00  0.00    +0.028 A 
ATOM      3  C   UNL     1       2.426  -4.229  -0.044  0.00  0.00    +0.019 A 
ATOM      4  C   UNL     1       3.600  -4.967   0.167  0.00  0.00    +0.015 A 
ATOM      5  C   UNL     1       3.553  -6.330   0.175  0.00  0.00    +0.046 A 
ATOM      6  C   UNL     1       2.347  -6.998  -0.031  0.00  0.00    +0.125 A 
ATOM      7  C   UNL     1       1.180  -6.286  -0.261  0.00  0.00    +0.051 A 
ATOM      8  C   UNL     1       1.212  -4.900  -0.280  0.00  0.00    +0.147 A 
ATOM      9  O   UNL     1       0.086  -4.193  -0.545  0.00  0.00    -0.421 OA
ATOM     10  C   UNL     1       0.016  -2.942  -0.028  0.00  0.00    +0.347 A 
ATOM     11  O   UNL     1      -1.028  -2.500   0.414  0.00  0.00    -0.244 OA
ENDROOT
BRANCH   1  16
ATOM     12  C   UNL     1      -0.073   1.377  -0.036  0.00  0.00    +0.004 A 
ATOM     13  C   UNL     1       1.131   2.068  -0.033  0.00  0.00    +0.020 A 
ATOM     14  C   UNL     1       2.319   1.362  -0.026  0.00  0.00    +0.111 A 
ATOM     15  N   UNL     1       2.323   0.044  -0.024  0.00  0.00    -0.255 NA
ATOM     16  C   UNL     1       1.194  -0.655  -0.027  0.00  0.00    +0.078 A 
ATOM     17  C   UNL     1      -0.041  -0.006  -0.033  0.00  0.00    +0.028 A 
ENDBRANCH   1  16
BRANCH   6  18
ATOM     18  O   UNL     1       2.314  -8.354  -0.007  0.00  0.00    -0.506 OA
ATOM     19  H   UNL     1       2.146  -8.729   0.868  0.00  0.00    +0.292 HD
ENDBRANCH   6  18
BRANCH   7  20
ATOM     20  C   UNL     1      -0.119  -7.016  -0.487  0.00  0.00    +0.127 C 
BRANCH  20  21
ATOM     21  N   UNL     1      -0.793  -7.227   0.801  0.00  0.00    -0.295 NA
ATOM     22  C   UNL     1      -0.018  -8.135   1.658  0.00  0.00    +0.103 C 
ATOM     23  C   UNL     1      -0.657  -8.186   3.050  0.00  0.00    +0.122 C 
ATOM     24  N   UNL     1      -2.078  -8.534   2.900  0.00  0.00    -0.314 N 
ATOM     25  C   UNL     1      -2.889  -7.754   1.952  0.00  0.00    +0.122 C 
ATOM     26  C   UNL     1      -2.163  -7.719   0.604  0.00  0.00    +0.103 C 
ATOM     27  C   UNL     1      -2.640  -9.572   3.634  0.00  0.00    +0.099 A 
ATOM     28  C   UNL     1      -1.827 -10.371   4.432  0.00  0.00    +0.042 A 
ATOM     29  C   UNL     1      -2.399 -11.400   5.157  0.00  0.00    +0.005 A 
ATOM     30  C   UNL     1      -3.771 -11.597   5.060  0.00  0.00    +0.018 A 
ATOM     31  C   UNL     1      -4.517 -10.766   4.248  0.00  0.00    +0.084 A 
ATOM     32  N   UNL     1      -3.944  -9.788   3.572  0.00  0.00    -0.350 N 
ATOM     33  H   UNL     1      -4.493  -9.216   3.012  0.00  0.00    +0.166 HD
ENDBRANCH  20  21
ENDBRANCH   7  20
TORSDOF 4
