REMARK  Name = ZINC14230240
REMARK  6 active torsions:
REMARK  status: ('A' for Active; 'I' for Inactive)
REMARK    1  A    between atoms: C_1  and  C_2
REMARK    2  A    between atoms: C_2  and  C_4
REMARK    3  A    between atoms: C_2  and  N_23
REMARK    4  A    between atoms: N_6  and  C_7
REMARK    5  A    between atoms: C_15  and  N_56
REMARK    6  A    between atoms: C_24  and  C_26
REMARK                            x       y       z     vdW  Elec       q    Type
REMARK                         _______ _______ _______ _____ _____    ______ ____
ROOT
ATOM      1  C   UNL     1       2.392  -0.024   0.680  0.00  0.00    +0.111 C 
ATOM      2  C   UNL     1       0.987  -0.488   1.073  0.00  0.00    +0.075 C 
ATOM      3  C   UNL     1       0.002  -0.004   0.002  0.00  0.00    +0.109 C 
ATOM      4  C   UNL     1       0.449  -0.511  -1.370  0.00  0.00    +0.029 C 
ATOM      5  C   UNL     1      -0.573  -0.086  -2.426  0.00  0.00    -0.075 C 
ATOM      6  C   UNL     1      -2.362  -0.116  -0.793  0.00  0.00    -0.075 C 
ATOM      7  C   UNL     1      -1.395  -0.543   0.314  0.00  0.00    +0.029 C 
ATOM      8  C   UNL     1      -2.867  -0.365  -3.147  0.00  0.00    -0.096 C 
ATOM      9  O   UNL     1      -0.017   1.422   0.010  0.00  0.00    -0.485 OA
ATOM     10  C   UNL     1       1.173   2.078   0.002  0.00  0.00    +0.126 A 
ATOM     11  C   UNL     1       2.360   1.439   0.318  0.00  0.00    +0.015 A 
ATOM     12  C   UNL     1       3.548   2.149   0.304  0.00  0.00    +0.009 A 
ATOM     13  C   UNL     1       3.556   3.490  -0.026  0.00  0.00    +0.001 A 
ATOM     14  C   UNL     1       2.373   4.130  -0.345  0.00  0.00    +0.004 A 
ATOM     15  C   UNL     1       1.185   3.428  -0.332  0.00  0.00    +0.046 A 
ATOM     16  N   UNL     1      -1.889  -0.665  -2.081  0.00  0.00    +0.378 N 
ATOM     17  H   UNL     1      -1.792  -1.683  -1.994  0.00  0.00    -0.082 HD
ENDROOT
BRANCH   1  20
ATOM     18  C   UNL     1       4.625  -0.381   1.586  0.00  0.00    +0.234 C 
ATOM     19  O   UNL     1       5.058  -0.352   0.453  0.00  0.00    -0.274 OA
ATOM     20  N   UNL     1       3.305  -0.227   1.807  0.00  0.00    -0.307 N 
ATOM     21  H   UNL     1       2.959  -0.249   2.713  0.00  0.00    +0.149 HD
BRANCH  18  23
ATOM     22  C   UNL     1       5.166  -1.857   3.503  0.00  0.00    +0.038 C 
ATOM     23  C   UNL     1       5.565  -0.589   2.746  0.00  0.00    +0.156 C 
BRANCH  23  24
ATOM     24  N   UNL     1       6.934  -0.730   2.245  0.00  0.00    -0.298 N 
ATOM     25  C   UNL     1       7.978  -0.425   3.043  0.00  0.00    +0.280 C 
ATOM     26  O   UNL     1       7.781  -0.034   4.179  0.00  0.00    -0.267 OA
ATOM     27  H   UNL     1       7.091  -1.041   1.340  0.00  0.00    +0.150 HD
BRANCH  25  28
ATOM     28  C   UNL     1       9.349  -0.566   2.542  0.00  0.00    +0.189 A 
ATOM     29  C   UNL     1      10.490  -0.288   3.239  0.00  0.00    +0.054 A 
ATOM     30  C   UNL     1      11.565  -0.566   2.381  0.00  0.00    +0.042 A 
ATOM     31  C   UNL     1      11.039  -0.987   1.209  0.00  0.00    +0.196 A 
ATOM     32  O   UNL     1       9.704  -0.986   1.310  0.00  0.00    -0.458 OA
ENDBRANCH  25  28
ENDBRANCH  23  24
ENDBRANCH  18  23
ENDBRANCH   1  20
TORSDOF 4
