REMARK  Name = ZINC62846238
REMARK  5 active torsions:
REMARK  status: ('A' for Active; 'I' for Inactive)
REMARK    1  A    between atoms: C_1  and  C_2
REMARK    2  A    between atoms: C_2  and  C_3
REMARK    3  A    between atoms: C_3  and  C_19
REMARK    4  A    between atoms: N_6  and  C_9
REMARK    5  A    between atoms: C_16  and  O_18
REMARK                            x       y       z     vdW  Elec       q    Type
REMARK                         _______ _______ _______ _____ _____    ______ ____
ROOT
ATOM      1  C   UNL     1       0.602  -0.278  -1.406  0.00  0.00    +0.068 C 
ATOM      2  C   UNL     1      -0.313  -0.045  -2.612  0.00  0.00    -0.001 C 
ATOM      3  C   UNL     1       0.364  -0.590  -3.871  0.00  0.00    -0.077 C 
ATOM      4  N   UNL     1       0.613  -2.029  -3.714  0.00  0.00    +0.384 N 
ATOM      5  C   UNL     1       1.546  -2.254  -2.603  0.00  0.00    -0.077 C 
ATOM      6  C   UNL     1       0.914  -1.773  -1.296  0.00  0.00    -0.001 C 
ATOM      7  H   UNL     1      -0.258  -2.500  -3.521  0.00  0.00    -0.081 HD
ENDROOT
BRANCH   4   8
ATOM      8  C   UNL     1       1.192  -2.562  -4.954  0.00  0.00    -0.017 C 
ATOM      9  C   UNL     1       0.346  -2.063  -6.147  0.00  0.00    +0.153 C 
ATOM     10  S   UNL     1       0.391  -3.535  -7.261  0.00  0.00    -0.030 S 
ATOM     11  O   UNL     1       1.606  -3.530  -7.998  0.00  0.00    -0.174 OA
ATOM     12  O   UNL     1      -0.849  -3.644  -7.946  0.00  0.00    -0.174 OA
ATOM     13  C   UNL     1       0.480  -4.825  -5.944  0.00  0.00    +0.195 C 
ATOM     14  C   UNL     1       1.261  -4.078  -4.844  0.00  0.00    +0.123 C 
BRANCH  14  15
ATOM     15  O   UNL     1       0.740  -4.468  -3.572  0.00  0.00    -0.392 OA
ATOM     16  H   UNL     1       0.747  -5.422  -3.419  0.00  0.00    +0.210 HD
ENDBRANCH  14  15
ENDBRANCH   4   8
BRANCH   1  17
ATOM     17  C   UNL     1       1.884   0.493  -1.587  0.00  0.00    +0.362 C 
ATOM     18  O   UNL     1       2.206   1.341  -0.773  0.00  0.00    -0.246 OA
ATOM     19  O   UNL     1       2.599   0.268  -2.548  0.00  0.00    -0.246 OA
ENDBRANCH   1  17
BRANCH   1  21
ATOM     20  C   UNL     1      -0.414   1.687  -0.243  0.00  0.00    +0.005 C 
ATOM     21  C   UNL     1      -0.102   0.193  -0.132  0.00  0.00    +0.015 C 
ENDBRANCH   1  21
TORSDOF 4
