REMARK  Name = ZINC13189398
REMARK  10 active torsions:
REMARK  status: ('A' for Active; 'I' for Inactive)
REMARK    1  A    between atoms: C_1  and  C_2
REMARK    2  A    between atoms: C_5  and  N_8
REMARK    3  A    between atoms: C_9  and  C_11
REMARK    4  A    between atoms: C_11  and  S_12
REMARK    5  A    between atoms: S_12  and  C_13
REMARK    6  A    between atoms: C_14  and  C_34
REMARK    7  A    between atoms: C_15  and  C_25
REMARK    8  A    between atoms: C_28  and  O_33
REMARK    9  A    between atoms: C_29  and  O_31
REMARK   10  A    between atoms: O_31  and  C_32
REMARK                            x       y       z     vdW  Elec       q    Type
REMARK                         _______ _______ _______ _____ _____    ______ ____
ROOT
ATOM      1  C   UNL     1       0.593  -8.709   2.636  0.00  0.00    +0.080 C 
ATOM      2  C   UNL     1       0.711  -9.502   3.735  0.00  0.00    +0.069 C 
ATOM      3  C   UNL     1       0.847 -10.990   3.604  0.00  0.00    +0.097 C 
ATOM      4  C   UNL     1       0.407 -11.460   2.241  0.00  0.00    +0.024 C 
ATOM      5  C   UNL     1       0.298 -10.595   1.210  0.00  0.00    +0.016 C 
ATOM      6  N   UNL     1       0.582  -9.269   1.380  0.00  0.00    -0.311 N 
ATOM      7  C   UNL     1      -0.148 -11.062  -0.153  0.00  0.00    +0.051 C 
ATOM      8  C   UNL     1       0.294 -12.511  -0.370  0.00  0.00    +0.014 C 
ATOM      9  C   UNL     1      -0.311 -13.375   0.741  0.00  0.00    +0.080 C 
ATOM     10  C   UNL     1       0.115 -12.825   2.075  0.00  0.00    +0.162 C 
ATOM     11  O   UNL     1       0.209 -13.575   3.026  0.00  0.00    -0.292 OA
ATOM     12  H   UNL     1       0.781  -8.718   0.606  0.00  0.00    +0.152 HD
ENDROOT
BRANCH   3  13
ATOM     13  C   UNL     1       2.289 -11.375   3.816  0.00  0.00    -0.031 A 
ATOM     14  C   UNL     1       3.268 -10.865   2.984  0.00  0.00    +0.008 A 
ATOM     15  C   UNL     1       4.592 -11.216   3.175  0.00  0.00    +0.049 A 
ATOM     16  C   UNL     1       4.940 -12.079   4.202  0.00  0.00    +0.158 A 
ATOM     17  C   UNL     1       3.954 -12.591   5.039  0.00  0.00    +0.162 A 
ATOM     18  C   UNL     1       2.630 -12.233   4.846  0.00  0.00    +0.054 A 
BRANCH  17  19
ATOM     19  O   UNL     1       4.290 -13.439   6.048  0.00  0.00    -0.491 OA
ATOM     20  C   UNL     1       3.226 -13.926   6.868  0.00  0.00    +0.277 C 
ENDBRANCH  17  19
BRANCH  16  21
ATOM     21  O   UNL     1       6.241 -12.424   4.390  0.00  0.00    -0.503 OA
ATOM     22  H   UNL     1       6.722 -11.836   4.988  0.00  0.00    +0.292 HD
ENDBRANCH  16  21
ENDBRANCH   3  13
BRANCH   2  23
ATOM     23  C   UNL     1       0.707  -8.906   5.037  0.00  0.00    +0.098 C 
ATOM     24  N   UNL     1       0.703  -8.434   6.070  0.00  0.00    -0.191 NA
ENDBRANCH   2  23
BRANCH   1  25
ATOM     25  S   UNL     1       0.446  -6.963   2.823  0.00  0.00    -0.100 S 
BRANCH  25  26
ATOM     26  C   UNL     1       0.309  -6.349   1.121  0.00  0.00    +0.171 C 
BRANCH  26  28
ATOM     27  N   UNL     1       0.059  -4.170  -0.021  0.00  0.00    -0.285 N 
ATOM     28  C   UNL     1       0.175  -4.848   1.138  0.00  0.00    +0.227 C 
ATOM     29  O   UNL     1       0.173  -4.251   2.193  0.00  0.00    -0.275 OA
ATOM     30  H   UNL     1      -0.017  -4.651  -0.860  0.00  0.00    +0.155 HD
BRANCH  27  35
ATOM     31  C   UNL     1       0.008   1.503   0.007  0.00  0.00    +0.044 C 
ATOM     32  C   UNL     1       0.022  -0.004  -0.001  0.00  0.00    -0.050 A 
ATOM     33  C   UNL     1       0.777  -0.692   0.931  0.00  0.00    +0.005 A 
ATOM     34  C   UNL     1       0.791  -2.073   0.927  0.00  0.00    +0.023 A 
ATOM     35  C   UNL     1       0.046  -2.771  -0.014  0.00  0.00    +0.033 A 
ATOM     36  C   UNL     1      -0.712  -2.077  -0.948  0.00  0.00    +0.023 A 
ATOM     37  C   UNL     1      -0.726  -0.696  -0.936  0.00  0.00    +0.005 A 
ENDBRANCH  27  35
ENDBRANCH  26  28
ENDBRANCH  25  26
ENDBRANCH   1  25
TORSDOF 8
