REMARK  Name = ZINC38517100
REMARK  8 active torsions:
REMARK  status: ('A' for Active; 'I' for Inactive)
REMARK    1  A    between atoms: C_1  and  C_2
REMARK    2  A    between atoms: C_2  and  O_3
REMARK    3  A    between atoms: O_3  and  C_4
REMARK    4  A    between atoms: C_4  and  C_6
REMARK    5  A    between atoms: C_16  and  C_18
REMARK    6  A    between atoms: C_18  and  C_19
REMARK    7  A    between atoms: C_19  and  C_20
REMARK    8  A    between atoms: C_26  and  C_28
REMARK                            x       y       z     vdW  Elec       q    Type
REMARK                         _______ _______ _______ _____ _____    ______ ____
ROOT
ATOM      1  C   UNL     1      -2.333   1.192  -8.033  0.00  0.00    +0.102 C 
ENDROOT
BRANCH   1  11
ATOM      2  C   UNL     1       1.396  -2.463  -2.587  0.00  0.00    +0.147 C 
ATOM      3  C   UNL     1       1.352  -4.005  -2.569  0.00  0.00    +0.026 C 
ATOM      4  C   UNL     1       1.214  -4.336  -4.073  0.00  0.00    +0.045 C 
ATOM      5  C   UNL     1       0.569  -3.122  -4.669  0.00  0.00    +0.015 A 
ATOM      6  C   UNL     1       0.654  -2.044  -3.853  0.00  0.00    +0.067 A 
ATOM      7  N   UNL     1       0.091  -0.927  -4.335  0.00  0.00    -0.228 NA
ATOM      8  C   UNL     1      -0.491  -0.892  -5.508  0.00  0.00    +0.165 A 
ATOM      9  S   UNL     1      -0.305  -2.471  -6.073  0.00  0.00    -0.057 S 
ATOM     10  N   UNL     1      -1.112   0.183  -6.134  0.00  0.00    -0.265 N 
ATOM     11  C   UNL     1      -1.661   0.027  -7.355  0.00  0.00    +0.219 C 
ATOM     12  O   UNL     1      -1.613  -1.052  -7.908  0.00  0.00    -0.275 OA
ATOM     13  H   UNL     1      -1.150   1.045  -5.691  0.00  0.00    +0.157 HD
BRANCH   2  14
ATOM     14  C   UNL     1       0.704  -1.909  -1.369  0.00  0.00    +0.316 C 
ATOM     15  O   UNL     1       0.236  -2.659  -0.545  0.00  0.00    -0.250 OA
BRANCH  14  16
ATOM     16  O   UNL     1       0.607  -0.581  -1.198  0.00  0.00    -0.464 OA
BRANCH  16  18
ATOM     17  C   UNL     1      -0.074   1.405  -0.001  0.00  0.00    +0.048 C 
ATOM     18  C   UNL     1      -0.062  -0.125  -0.021  0.00  0.00    +0.229 C 
ENDBRANCH  16  18
ENDBRANCH  14  16
ENDBRANCH   2  14
ENDBRANCH   1  11
BRANCH   1  19
ATOM     19  C   UNL     1      -2.867   0.750  -9.397  0.00  0.00    +0.065 C 
BRANCH  19  20
ATOM     20  C   UNL     1      -3.540   1.915 -10.075  0.00  0.00    +0.051 A 
ATOM     21  C   UNL     1      -3.178   2.317 -11.318  0.00  0.00    +0.071 A 
ATOM     22  S   UNL     1      -4.294   3.688 -11.564  0.00  0.00    -0.060 S 
ATOM     23  C   UNL     1      -5.091   3.607 -10.084  0.00  0.00    +0.165 A 
ATOM     24  N   UNL     1      -4.513   2.587  -9.487  0.00  0.00    -0.230 NA
ATOM     25  N   UNL     1      -6.115   4.417  -9.610  0.00  0.00    -0.261 N 
ATOM     26  C   UNL     1      -6.589   5.421 -10.374  0.00  0.00    +0.255 C 
ATOM     27  O   UNL     1      -6.057   5.679 -11.437  0.00  0.00    -0.270 OA
ATOM     28  H   UNL     1      -6.489   4.260  -8.729  0.00  0.00    +0.157 HD
BRANCH  26  29
ATOM     29  C   UNL     1      -7.748   6.205  -9.922  0.00  0.00    +0.101 A 
ATOM     30  C   UNL     1      -8.321   7.167 -10.752  0.00  0.00    +0.020 A 
ATOM     31  C   UNL     1      -9.419   7.891 -10.289  0.00  0.00    +0.018 A 
ATOM     32  C   UNL     1      -9.916   7.656  -9.048  0.00  0.00    +0.086 A 
ATOM     33  N   UNL     1      -9.364   6.723  -8.235  0.00  0.00    -0.328 N 
ATOM     34  H   UNL     1      -9.740   6.577  -7.353  0.00  0.00    +0.168 HD
ATOM     35  C   UNL     1      -8.307   5.992  -8.635  0.00  0.00    +0.261 A 
ATOM     36  O   UNL     1      -7.828   5.153  -7.892  0.00  0.00    -0.267 OA
ENDBRANCH  26  29
ENDBRANCH  19  20
ENDBRANCH   1  19
TORSDOF 7
