REMARK  Name = ZINC11708890
REMARK  6 active torsions:
REMARK  status: ('A' for Active; 'I' for Inactive)
REMARK    1  A    between atoms: C_1  and  C_2
REMARK    2  A    between atoms: C_5  and  S_8
REMARK    3  A    between atoms: S_8  and  C_9
REMARK    4  A    between atoms: C_9  and  C_10
REMARK    5  A    between atoms: N_12  and  C_13
REMARK    6  A    between atoms: C_13  and  C_18
REMARK                            x       y       z     vdW  Elec       q    Type
REMARK                         _______ _______ _______ _____ _____    ______ ____
ROOT
ATOM      1  C   UNL     1       3.711  -0.718  -0.051  0.00  0.00    +0.060 C 
ATOM      2  C   UNL     1       3.937  -0.914  -1.564  0.00  0.00    +0.030 C 
ATOM      3  C   UNL     1       4.689  -2.265  -1.663  0.00  0.00    +0.002 C 
ATOM      4  C   UNL     1       4.011  -3.117  -0.561  0.00  0.00    +0.002 C 
ATOM      5  C   UNL     1       3.759  -2.118   0.587  0.00  0.00    +0.030 C 
ENDROOT
BRANCH   1   6
ATOM      6  C   UNL     1       2.365  -0.086   0.193  0.00  0.00    -0.020 A 
ATOM      7  C   UNL     1       2.231   0.905   1.148  0.00  0.00    +0.009 A 
ATOM      8  C   UNL     1       0.998   1.486   1.376  0.00  0.00    +0.050 A 
ATOM      9  C   UNL     1      -0.108   1.077   0.647  0.00  0.00    +0.162 A 
ATOM     10  C   UNL     1       0.027   0.084  -0.316  0.00  0.00    +0.162 A 
ATOM     11  C   UNL     1       1.267  -0.497  -0.539  0.00  0.00    +0.055 A 
ATOM     12  O   UNL     1      -1.044  -0.327  -1.049  0.00  0.00    -0.485 OA
ATOM     13  C   UNL     1      -2.339   0.010  -0.540  0.00  0.00    +0.270 C 
ATOM     14  C   UNL     1      -2.322   1.486  -0.120  0.00  0.00    +0.270 C 
ATOM     15  O   UNL     1      -1.318   1.652   0.888  0.00  0.00    -0.485 OA
ENDBRANCH   1   6
BRANCH   1  18
ATOM     16  C   UNL     1       4.987   1.357   0.007  0.00  0.00    +0.224 C 
ATOM     17  O   UNL     1       4.248   1.804  -0.844  0.00  0.00    -0.275 OA
ATOM     18  N   UNL     1       4.770   0.125   0.509  0.00  0.00    -0.305 N 
ATOM     19  H   UNL     1       5.315  -0.204   1.241  0.00  0.00    +0.150 HD
BRANCH  16  20
ATOM     20  C   UNL     1       6.149   2.178   0.504  0.00  0.00    +0.173 C 
BRANCH  20  21
ATOM     21  S   UNL     1       6.172   3.771  -0.356  0.00  0.00    -0.077 S 
BRANCH  21  26
ATOM     22  C   UNL     1      10.096   7.075   1.032  0.00  0.00    +0.088 C 
ATOM     23  C   UNL     1       9.186   5.877   0.948  0.00  0.00    +0.128 A 
ATOM     24  N   UNL     1       8.097   5.742   0.131  0.00  0.00    -0.320 N 
ATOM     25  H   UNL     1       7.758   6.392  -0.505  0.00  0.00    +0.169 HD
ATOM     26  C   UNL     1       7.587   4.504   0.397  0.00  0.00    +0.189 A 
ATOM     27  N   UNL     1       8.346   3.966   1.322  0.00  0.00    -0.123 NA
ATOM     28  N   UNL     1       9.290   4.778   1.640  0.00  0.00    -0.134 NA
ENDBRANCH  21  26
ENDBRANCH  20  21
ENDBRANCH  16  20
ENDBRANCH   1  18
TORSDOF 5
