REMARK  Name = ZINC43367721
REMARK  9 active torsions:
REMARK  status: ('A' for Active; 'I' for Inactive)
REMARK    1  A    between atoms: C_1  and  C_2
REMARK    2  A    between atoms: C_2  and  C_3
REMARK    3  A    between atoms: C_3  and  C_5
REMARK    4  A    between atoms: C_3  and  N_23
REMARK    5  A    between atoms: C_5  and  C_7
REMARK    6  A    between atoms: C_5  and  S_13
REMARK    7  A    between atoms: C_10  and  C_12
REMARK    8  A    between atoms: S_13  and  C_14
REMARK    9  A    between atoms: C_20  and  N_22
REMARK                            x       y       z     vdW  Elec       q    Type
REMARK                         _______ _______ _______ _____ _____    ______ ____
ROOT
ATOM      1  C   UNL     1      -1.429  -2.041  -0.250  0.00  0.00    +0.106 C 
ENDROOT
BRANCH   1   2
ATOM      2  C   UNL     1      -2.892  -2.350  -0.436  0.00  0.00    +0.117 A 
ATOM      3  C   UNL     1      -3.603  -3.247   0.270  0.00  0.00    +0.046 A 
ATOM      4  C   UNL     1      -4.923  -3.213  -0.234  0.00  0.00    +0.044 A 
ATOM      5  C   UNL     1      -4.941  -2.297  -1.219  0.00  0.00    +0.102 A 
ATOM      6  O   UNL     1      -3.709  -1.773  -1.333  0.00  0.00    -0.464 OA
ATOM      7  C   UNL     1      -6.140  -1.917  -2.049  0.00  0.00    +0.086 C 
ENDBRANCH   1   2
BRANCH   1   8
ATOM      8  C   UNL     1      -1.263  -0.565   0.118  0.00  0.00    -0.054 C 
BRANCH   8   9
ATOM      9  N   UNL     1      -2.048  -0.270   1.325  0.00  0.00    +0.381 N 
ATOM     10  H   UNL     1      -1.938   0.703   1.567  0.00  0.00    -0.090 HD
ATOM     11  H   UNL     1      -3.022  -0.465   1.148  0.00  0.00    -0.090 HD
ATOM     12  H   UNL     1      -1.722  -0.846   2.087  0.00  0.00    -0.090 HD
ENDBRANCH   8   9
BRANCH   8  14
ATOM     13  C   UNL     1       0.399   1.231   0.621  0.00  0.00    +0.002 C 
ATOM     14  C   UNL     1       0.214  -0.270   0.386  0.00  0.00    -0.018 C 
ENDBRANCH   8  14
ENDBRANCH   1   8
BRANCH   1  15
ATOM     15  S   UNL     1      -0.537  -2.384  -1.792  0.00  0.00    -0.078 S 
BRANCH  15  16
ATOM     16  C   UNL     1      -0.611  -4.137  -1.946  0.00  0.00    +0.171 A 
ATOM     17  N   UNL     1      -0.116  -4.730  -3.068  0.00  0.00    -0.302 N 
ATOM     18  H   UNL     1       0.274  -4.186  -3.771  0.00  0.00    +0.171 HD
ATOM     19  C   UNL     1      -0.164  -6.071  -3.204  0.00  0.00    +0.254 A 
ATOM     20  O   UNL     1       0.278  -6.611  -4.206  0.00  0.00    -0.268 OA
ATOM     21  C   UNL     1      -0.729  -6.834  -2.177  0.00  0.00    +0.113 A 
ATOM     22  C   UNL     1      -1.220  -6.182  -1.054  0.00  0.00    +0.124 A 
ATOM     23  N   UNL     1      -1.140  -4.849  -0.973  0.00  0.00    -0.209 NA
BRANCH  22  24
ATOM     24  N   UNL     1      -1.784  -6.907  -0.024  0.00  0.00    -0.343 N 
ATOM     25  H   UNL     1      -1.837  -7.873  -0.083  0.00  0.00    +0.144 HD
ATOM     26  H   UNL     1      -2.127  -6.449   0.760  0.00  0.00    +0.144 HD
ENDBRANCH  22  24
ENDBRANCH  15  16
ENDBRANCH   1  15
TORSDOF 7
