REMARK  Name = ZINC36991032
REMARK  4 active torsions:
REMARK  status: ('A' for Active; 'I' for Inactive)
REMARK    1  A    between atoms: C_1  and  C_2
REMARK    2  A    between atoms: C_7  and  N_10
REMARK    3  A    between atoms: N_10  and  C_11
REMARK    4  A    between atoms: C_15  and  N_17
REMARK                            x       y       z     vdW  Elec       q    Type
REMARK                         _______ _______ _______ _____ _____    ______ ____
ROOT
ATOM      1  C   UNL     1      -0.882  -3.821   1.750  0.00  0.00    +0.029 A 
ATOM      2  C   UNL     1       0.150  -4.605   2.251  0.00  0.00    +0.023 A 
ATOM      3  C   UNL     1      -0.117  -5.864   2.752  0.00  0.00    +0.004 A 
ATOM      4  C   UNL     1      -1.412  -6.347   2.759  0.00  0.00    +0.026 A 
ATOM      5  C   UNL     1      -2.448  -5.569   2.260  0.00  0.00    +0.051 A 
ATOM      6  C   UNL     1      -2.184  -4.302   1.761  0.00  0.00    +0.049 A 
ENDROOT
BRANCH   5   7
ATOM      7  N   UNL     1      -3.762  -6.061   2.267  0.00  0.00    -0.288 N 
ATOM      8  C   UNL     1      -4.879  -5.427   1.812  0.00  0.00    +0.229 A 
ATOM      9  N   UNL     1      -5.886  -6.235   2.005  0.00  0.00    -0.138 NA
ATOM     10  N   UNL     1      -5.475  -7.325   2.548  0.00  0.00    -0.138 NA
ATOM     11  C   UNL     1      -4.183  -7.274   2.724  0.00  0.00    +0.229 A 
ENDBRANCH   5   7
BRANCH   1  12
ATOM     12  N   UNL     1      -0.612  -2.548   1.244  0.00  0.00    -0.341 N 
ATOM     13  H   UNL     1      -1.333  -2.000   0.898  0.00  0.00    +0.146 HD
BRANCH  12  19
ATOM     14  C   UNL     1      -0.019   1.526   0.010  0.00  0.00    +0.007 C 
ATOM     15  C   UNL     1       0.002  -0.004   0.002  0.00  0.00    -0.012 C 
ATOM     16  C   UNL     1       0.718  -0.497  -1.257  0.00  0.00    +0.003 C 
ATOM     17  C   UNL     1       0.739  -2.027  -1.265  0.00  0.00    +0.002 C 
ATOM     18  C   UNL     1       1.479  -2.534  -0.026  0.00  0.00    +0.022 C 
ATOM     19  C   UNL     1       0.763  -2.041   1.233  0.00  0.00    +0.071 C 
ATOM     20  C   UNL     1       0.742  -0.511   1.242  0.00  0.00    +0.025 C 
ENDBRANCH  12  19
ENDBRANCH   1  12
TORSDOF 3
