REMARK  Name = ZINC57043430
REMARK  7 active torsions:
REMARK  status: ('A' for Active; 'I' for Inactive)
REMARK    1  A    between atoms: C_1  and  C_2
REMARK    2  A    between atoms: C_2  and  C_4
REMARK    3  A    between atoms: C_2  and  C_21
REMARK    4  A    between atoms: C_4  and  N_5
REMARK    5  A    between atoms: N_8  and  N_9
REMARK    6  A    between atoms: N_9  and  C_10
REMARK    7  A    between atoms: C_21  and  N_22
REMARK                            x       y       z     vdW  Elec       q    Type
REMARK                         _______ _______ _______ _____ _____    ______ ____
ROOT
ATOM      1  N   UNL     1       2.059   0.279  -1.407  0.00  0.00    -0.298 N 
ATOM      2  C   UNL     1       2.907  -0.148  -2.363  0.00  0.00    +0.316 C 
ATOM      3  O   UNL     1       2.475  -0.706  -3.354  0.00  0.00    -0.251 OA
ATOM      4  N   UNL     1       4.234   0.042  -2.222  0.00  0.00    -0.220 N 
ATOM      5  H   UNL     1       2.404   0.723  -0.616  0.00  0.00    +0.150 HD
ATOM      6  H   UNL     1       4.844  -0.265  -2.910  0.00  0.00    +0.174 HD
ENDROOT
BRANCH   4   7
ATOM      7  N   UNL     1       4.731   0.684  -1.081  0.00  0.00    -0.258 N 
ATOM      8  H   UNL     1       4.131   0.922  -0.357  0.00  0.00    +0.170 HD
BRANCH   7   9
ATOM      9  C   UNL     1       6.098   0.983  -0.984  0.00  0.00    +0.121 A 
ATOM     10  C   UNL     1       6.810   1.356  -2.117  0.00  0.00    +0.186 A 
ATOM     11  C   UNL     1       8.160   1.651  -2.019  0.00  0.00    +0.198 A 
ATOM     12  C   UNL     1       8.800   1.574  -0.793  0.00  0.00    +0.199 A 
ATOM     13  C   UNL     1       8.091   1.202   0.339  0.00  0.00    +0.198 A 
ATOM     14  C   UNL     1       6.740   0.912   0.246  0.00  0.00    +0.186 A 
ATOM     15  F   UNL     1       6.048   0.554   1.350  0.00  0.00    -0.200 F 
ATOM     16  F   UNL     1       8.717   1.128   1.534  0.00  0.00    -0.199 F 
ATOM     17  F   UNL     1      10.116   1.862  -0.700  0.00  0.00    -0.199 F 
ATOM     18  F   UNL     1       8.853   2.013  -3.121  0.00  0.00    -0.199 F 
ATOM     19  F   UNL     1       6.186   1.430  -3.313  0.00  0.00    -0.200 F 
ENDBRANCH   7   9
ENDBRANCH   4   7
BRANCH   1  20
ATOM     20  C   UNL     1       0.617   0.071  -1.560  0.00  0.00    +0.107 C 
BRANCH  20  22
ATOM     21  C   UNL     1       0.076   2.163  -0.304  0.00  0.00    +0.007 C 
ATOM     22  C   UNL     1      -0.113   0.645  -0.344  0.00  0.00    -0.014 C 
BRANCH  22  23
ATOM     23  C   UNL     1      -1.605   0.319  -0.444  0.00  0.00    -0.074 C 
BRANCH  23  24
ATOM     24  N   UNL     1      -2.286   0.764   0.779  0.00  0.00    +0.380 N 
ATOM     25  C   UNL     1      -1.787  -0.008   1.924  0.00  0.00    -0.079 C 
ATOM     26  C   UNL     1      -2.434   0.506   3.211  0.00  0.00    -0.019 C 
ATOM     27  C   UNL     1      -3.954   0.348   3.111  0.00  0.00    -0.004 C 
ATOM     28  C   UNL     1      -4.454   1.096   1.871  0.00  0.00    -0.019 C 
ATOM     29  C   UNL     1      -3.732   0.560   0.633  0.00  0.00    -0.079 C 
ATOM     30  H   UNL     1      -2.099   1.744   0.930  0.00  0.00    -0.082 HD
ENDBRANCH  23  24
ENDBRANCH  22  23
ENDBRANCH  20  22
ENDBRANCH   1  20
TORSDOF 6
