REMARK  Name = ZINC21231276
REMARK  8 active torsions:
REMARK  status: ('A' for Active; 'I' for Inactive)
REMARK    1  A    between atoms: C_1  and  C_2
REMARK    2  A    between atoms: C_2  and  C_3
REMARK    3  A    between atoms: C_2  and  C_4
REMARK    4  A    between atoms: C_4  and  C_6
REMARK    5  A    between atoms: C_4  and  S_12
REMARK    6  A    between atoms: S_12  and  C_13
REMARK    7  A    between atoms: C_17  and  C_20
REMARK    8  A    between atoms: N_28  and  C_29
REMARK                            x       y       z     vdW  Elec       q    Type
REMARK                         _______ _______ _______ _____ _____    ______ ____
ROOT
ATOM      1  C   UNL     1       0.694  -0.061  -1.714  0.00  0.00    +0.173 A 
ATOM      2  N   UNL     1       0.991   0.974  -2.474  0.00  0.00    -0.216 NA
ATOM      3  C   UNL     1       1.418   0.806  -3.720  0.00  0.00    +0.117 A 
ATOM      4  C   UNL     1       1.573  -0.471  -4.288  0.00  0.00    +0.080 A 
ATOM      5  C   UNL     1       2.050  -0.478  -5.667  0.00  0.00    +0.004 A 
ATOM      6  C   UNL     1       2.300   0.705  -6.276  0.00  0.00    +0.056 A 
ATOM      7  S   UNL     1       1.905   1.908  -5.022  0.00  0.00    -0.076 S 
ATOM      8  C   UNL     1       1.244  -1.574  -3.442  0.00  0.00    +0.263 A 
ATOM      9  O   UNL     1       1.347  -2.718  -3.850  0.00  0.00    -0.267 OA
ATOM     10  N   UNL     1       0.822  -1.335  -2.186  0.00  0.00    -0.290 N 
ATOM     11  C   UNL     1       0.489  -2.462  -1.313  0.00  0.00    +0.154 C 
ENDROOT
BRANCH   5  12
ATOM     12  C   UNL     1       2.257  -1.757  -6.388  0.00  0.00    -0.017 A 
ATOM     13  C   UNL     1       3.002  -2.779  -5.800  0.00  0.00    +0.008 A 
ATOM     14  C   UNL     1       3.187  -3.969  -6.473  0.00  0.00    +0.001 A 
ATOM     15  C   UNL     1       2.645  -4.145  -7.734  0.00  0.00    +0.000 A 
ATOM     16  C   UNL     1       1.910  -3.132  -8.325  0.00  0.00    +0.001 A 
ATOM     17  C   UNL     1       1.714  -1.940  -7.659  0.00  0.00    +0.008 A 
ENDBRANCH   5  12
BRANCH   1  18
ATOM     18  S   UNL     1       0.132   0.203  -0.065  0.00  0.00    -0.075 S 
BRANCH  18  19
ATOM     19  C   UNL     1       0.110   2.013  -0.026  0.00  0.00    +0.143 C 
BRANCH  19  20
ATOM     20  C   UNL     1      -0.987   2.522  -0.926  0.00  0.00    +0.234 C 
ATOM     21  O   UNL     1      -1.945   1.821  -1.169  0.00  0.00    -0.274 OA
ATOM     22  N   UNL     1      -0.902   3.757  -1.459  0.00  0.00    -0.239 N 
ATOM     23  C   UNL     1      -1.883   4.212  -2.263  0.00  0.00    +0.303 C 
ATOM     24  O   UNL     1      -2.844   3.509  -2.507  0.00  0.00    -0.253 OA
ATOM     25  N   UNL     1      -1.799   5.447  -2.797  0.00  0.00    -0.313 N 
ATOM     26  H   UNL     1      -0.033   4.393  -1.238  0.00  0.00    +0.159 HD
ATOM     27  H   UNL     1      -2.600   5.818  -3.453  0.00  0.00    +0.146 HD
ATOM     28  H   UNL     1      -0.929   6.083  -2.576  0.00  0.00    +0.146 HD
ENDBRANCH  19  20
BRANCH  19  30
ATOM     29  C   UNL     1       0.997   2.013   2.309  0.00  0.00    +0.009 C 
ATOM     30  C   UNL     1      -0.142   2.489   1.405  0.00  0.00    +0.005 C 
ATOM     31  C   UNL     1      -0.208   4.018   1.430  0.00  0.00    +0.009 C 
ENDBRANCH  19  30
ENDBRANCH  18  19
ENDBRANCH   1  18
TORSDOF 5
