REMARK  Name = ZINC36677011
REMARK  5 active torsions:
REMARK  status: ('A' for Active; 'I' for Inactive)
REMARK    1  A    between atoms: C_1  and  C_2
REMARK    2  A    between atoms: C_2  and  C_3
REMARK    3  A    between atoms: C_2  and  C_4
REMARK    4  A    between atoms: C_4  and  C_5
REMARK    5  A    between atoms: C_9  and  C_10
REMARK                            x       y       z     vdW  Elec       q    Type
REMARK                         _______ _______ _______ _____ _____    ______ ____
ROOT
ATOM      1  C   UNL     1      -1.521  -2.035  -0.112  0.00  0.00    -0.044 C 
ATOM      2  C   UNL     1      -1.550  -2.703  -1.470  0.00  0.00    +0.107 C 
ATOM      3  S   UNL     1      -1.339  -4.474  -1.022  0.00  0.00    -0.101 S 
ATOM      4  C   UNL     1      -1.233  -4.279   0.750  0.00  0.00    +0.101 C 
ATOM      5  C   UNL     1      -1.363  -2.815   0.939  0.00  0.00    +0.068 C 
ATOM      6  N   UNL     1      -1.075  -5.201   1.659  0.00  0.00    -0.292 NA
ATOM      7  H   UNL     1      -1.107  -4.966   2.599  0.00  0.00    +0.187 HD
ENDROOT
BRANCH   5   8
ATOM      8  C   UNL     1      -1.319  -2.234   2.296  0.00  0.00    +0.249 C 
ATOM      9  O   UNL     1      -0.251  -2.065   2.851  0.00  0.00    -0.270 OA
ATOM     10  N   UNL     1      -2.464  -1.891   2.919  0.00  0.00    -0.297 N 
ATOM     11  C   UNL     1      -3.755  -1.997   2.225  0.00  0.00    +0.108 C 
ATOM     12  C   UNL     1      -4.708  -2.837   3.080  0.00  0.00    +0.019 C 
ATOM     13  C   UNL     1      -4.796  -2.231   4.483  0.00  0.00    +0.003 C 
ATOM     14  C   UNL     1      -3.413  -2.252   5.138  0.00  0.00    +0.019 C 
ATOM     15  C   UNL     1      -2.446  -1.411   4.308  0.00  0.00    +0.108 C 
ENDBRANCH   5   8
BRANCH   1  16
ATOM     16  C   UNL     1      -1.661  -0.541   0.033  0.00  0.00    +0.035 C 
BRANCH  16  18
ATOM     17  C   UNL     1      -0.464   1.643  -0.161  0.00  0.00    +0.007 C 
ATOM     18  C   UNL     1      -0.300   0.122  -0.183  0.00  0.00    -0.013 C 
ATOM     19  C   UNL     1       0.658  -0.304   0.931  0.00  0.00    +0.007 C 
ENDBRANCH  16  18
ENDBRANCH   1  16
TORSDOF 3
