REMARK  Name = ZINC51062459
REMARK  12 active torsions:
REMARK  status: ('A' for Active; 'I' for Inactive)
REMARK    1  A    between atoms: C_1  and  C_2
REMARK    2  A    between atoms: C_2  and  C_3
REMARK    3  A    between atoms: C_3  and  C_4
REMARK    4  A    between atoms: C_4  and  N_5
REMARK    5  A    between atoms: C_6  and  C_8
REMARK    6  A    between atoms: N_13  and  C_15
REMARK    7  A    between atoms: C_15  and  C_17
REMARK    8  A    between atoms: C_15  and  C_18
REMARK    9  A    between atoms: C_18  and  C_20
REMARK   10  A    between atoms: C_21  and  N_30
REMARK   11  A    between atoms: N_22  and  C_29
REMARK   12  A    between atoms: N_25  and  C_28
REMARK                            x       y       z     vdW  Elec       q    Type
REMARK                         _______ _______ _______ _____ _____    ______ ____
ROOT
ATOM      1  C   UNL     1       2.899  -7.790  -5.203  0.00  0.00    +0.001 C 
ATOM      2  C   UNL     1       1.443  -8.257  -5.251  0.00  0.00    -0.005 C 
ENDROOT
BRANCH   1   7
ATOM      3  C   UNL     1       2.202  -4.323  -3.948  0.00  0.00    +0.058 C 
ATOM      4  C   UNL     1       3.638  -3.792  -3.930  0.00  0.00    +0.009 C 
ATOM      5  C   UNL     1       4.393  -4.348  -5.140  0.00  0.00    -0.018 C 
ATOM      6  C   UNL     1       4.340  -5.877  -5.108  0.00  0.00    -0.078 C 
ATOM      7  N   UNL     1       2.942  -6.323  -5.155  0.00  0.00    +0.387 N 
ATOM      8  C   UNL     1       2.229  -5.853  -3.961  0.00  0.00    -0.065 C 
ATOM      9  H   UNL     1       2.498  -5.948  -5.979  0.00  0.00    -0.081 HD
BRANCH   3  11
ATOM     10  N   UNL     1       1.326  -2.522  -2.496  0.00  0.00    -0.315 N 
ATOM     11  C   UNL     1       1.472  -3.843  -2.720  0.00  0.00    +0.214 C 
ATOM     12  O   UNL     1       1.017  -4.646  -1.933  0.00  0.00    -0.276 OA
ATOM     13  H   UNL     1       1.690  -1.880  -3.125  0.00  0.00    +0.149 HD
BRANCH  10  14
ATOM     14  C   UNL     1       0.616  -2.056  -1.302  0.00  0.00    +0.104 C 
BRANCH  14  15
ATOM     15  C   UNL     1       0.592  -0.526  -1.288  0.00  0.00    +0.018 C 
BRANCH  15  17
ATOM     16  C   UNL     1      -0.174   1.491  -0.028  0.00  0.00    +0.004 C 
ATOM     17  C   UNL     1      -0.149  -0.039  -0.042  0.00  0.00    -0.002 C 
ENDBRANCH  15  17
ENDBRANCH  14  15
ENDBRANCH  10  14
ENDBRANCH   3  11
ENDBRANCH   1   7
BRANCH   1  18
ATOM     18  C   UNL     1       3.623  -8.274  -6.433  0.00  0.00    +0.158 C 
ATOM     19  O   UNL     1       3.885  -7.496  -7.328  0.00  0.00    -0.294 OA
BRANCH  18  20
ATOM     20  C   UNL     1       3.994  -9.631  -6.546  0.00  0.00    +0.118 A 
ATOM     21  C   UNL     1       4.557 -10.133  -7.732  0.00  0.00    +0.116 A 
ATOM     22  N   UNL     1       4.901 -11.453  -7.792  0.00  0.00    -0.284 N 
ATOM     23  C   UNL     1       4.712 -12.272  -6.746  0.00  0.00    +0.333 A 
ATOM     24  O   UNL     1       5.035 -13.440  -6.851  0.00  0.00    -0.246 OA
ATOM     25  N   UNL     1       4.178 -11.850  -5.588  0.00  0.00    -0.263 N 
ATOM     26  C   UNL     1       3.811 -10.562  -5.425  0.00  0.00    +0.269 A 
ATOM     27  O   UNL     1       3.332 -10.181  -4.373  0.00  0.00    -0.267 OA
ATOM     28  C   UNL     1       3.999 -12.798  -4.486  0.00  0.00    +0.157 C 
ATOM     29  C   UNL     1       5.489 -11.986  -9.024  0.00  0.00    +0.155 C 
BRANCH  21  30
ATOM     30  N   UNL     1       4.756  -9.317  -8.802  0.00  0.00    -0.344 N 
ATOM     31  H   UNL     1       4.580  -8.366  -8.726  0.00  0.00    +0.144 HD
ATOM     32  H   UNL     1       5.073  -9.686  -9.641  0.00  0.00    +0.144 HD
ENDBRANCH  21  30
ENDBRANCH  18  20
ENDBRANCH   1  18
TORSDOF 8
