REMARK  Name = ZINC35744122
REMARK  17 active torsions:
REMARK  status: ('A' for Active; 'I' for Inactive)
REMARK    1  A    between atoms: C_1  and  C_2
REMARK    2  A    between atoms: C_2  and  C_3
REMARK    3  A    between atoms: C_2  and  C_4
REMARK    4  A    between atoms: C_2  and  O_5
REMARK    5  A    between atoms: O_5  and  C_6
REMARK    6  A    between atoms: C_6  and  C_7
REMARK    7  A    between atoms: C_7  and  C_9
REMARK    8  A    between atoms: C_7  and  O_38
REMARK    9  A    between atoms: C_9  and  N_10
REMARK   10  A    between atoms: N_10  and  C_11
REMARK   11  A    between atoms: N_10  and  C_15
REMARK   12  A    between atoms: C_11  and  C_12
REMARK   13  A    between atoms: C_12  and  O_13
REMARK   14  A    between atoms: O_13  and  C_14
REMARK   15  A    between atoms: C_15  and  C_16
REMARK   16  A    between atoms: N_28  and  C_31
REMARK   17  A    between atoms: C_31  and  C_32
REMARK                            x       y       z     vdW  Elec       q    Type
REMARK                         _______ _______ _______ _____ _____    ______ ____
ROOT
ATOM      1  C   UNL     1       6.342  -0.432  -5.901  0.00  0.00    +0.094 A 
ATOM      2  N   UNL     1       7.628  -0.376  -6.334  0.00  0.00    -0.312 N 
ATOM      3  H   UNL     1       8.322  -0.080  -5.724  0.00  0.00    +0.170 HD
ATOM      4  C   UNL     1       7.960  -0.722  -7.592  0.00  0.00    +0.260 A 
ATOM      5  O   UNL     1       9.119  -0.666  -7.964  0.00  0.00    -0.267 OA
ATOM      6  C   UNL     1       6.927  -1.157  -8.486  0.00  0.00    +0.075 A 
ATOM      7  C   UNL     1       7.048  -1.576  -9.880  0.00  0.00    -0.020 A 
ATOM      8  C   UNL     1       5.912  -1.944 -10.512  0.00  0.00    +0.010 A 
ATOM      9  S   UNL     1       4.633  -1.757  -9.301  0.00  0.00    -0.072 S 
ATOM     10  C   UNL     1       5.630  -1.182  -7.949  0.00  0.00    +0.116 A 
ATOM     11  N   UNL     1       5.380  -0.830  -6.691  0.00  0.00    -0.229 NA
ATOM     12  C   UNL     1       5.788  -2.404 -11.931  0.00  0.00    +0.127 C 
ATOM     13  N   UNL     1       7.035  -2.057 -12.639  0.00  0.00    -0.293 NA
ATOM     14  C   UNL     1       8.207  -2.494 -11.867  0.00  0.00    +0.090 C 
ATOM     15  C   UNL     1       8.379  -1.613 -10.627  0.00  0.00    +0.052 C 
ENDROOT
BRANCH   1  16
ATOM     16  C   UNL     1       6.020  -0.034  -4.484  0.00  0.00    -0.003 C 
BRANCH  16  17
ATOM     17  N   UNL     1       4.606  -0.319  -4.205  0.00  0.00    +0.388 N 
ATOM     18  H   UNL     1       4.030   0.115  -4.911  0.00  0.00    -0.081 HD
BRANCH  17  19
ATOM     19  C   UNL     1       4.387  -1.771  -4.219  0.00  0.00    -0.044 C 
BRANCH  19  20
ATOM     20  C   UNL     1       2.894  -2.063  -4.052  0.00  0.00    +0.124 C 
BRANCH  20  21
ATOM     21  O   UNL     1       2.182  -1.563  -5.186  0.00  0.00    -0.391 OA
ATOM     22  H   UNL     1       2.457  -1.953  -6.027  0.00  0.00    +0.210 HD
ENDBRANCH  20  21
BRANCH  20  23
ATOM     23  C   UNL     1       2.679  -3.574  -3.941  0.00  0.00    +0.189 C 
BRANCH  23  24
ATOM     24  O   UNL     1       1.302  -3.841  -3.670  0.00  0.00    -0.372 OA
BRANCH  24  26
ATOM     25  C   UNL     1       1.803  -5.834  -2.398  0.00  0.00    +0.041 C 
ATOM     26  C   UNL     1       0.992  -5.230  -3.546  0.00  0.00    +0.061 C 
ATOM     27  C   UNL     1       1.342  -5.949  -4.851  0.00  0.00    +0.041 C 
ATOM     28  C   UNL     1      -0.501  -5.396  -3.258  0.00  0.00    +0.041 C 
ENDBRANCH  24  26
ENDBRANCH  23  24
ENDBRANCH  20  23
ENDBRANCH  19  20
ENDBRANCH  17  19
BRANCH  17  29
ATOM     29  C   UNL     1       4.250   0.218  -2.885  0.00  0.00    -0.050 C 
BRANCH  29  30
ATOM     30  C   UNL     1       4.340   1.745  -2.914  0.00  0.00    +0.141 C 
BRANCH  30  31
ATOM     31  O   UNL     1       3.359   2.264  -3.813  0.00  0.00    -0.385 OA
ATOM     32  C   UNL     1       3.283   3.691  -3.831  0.00  0.00    +0.193 C 
ENDBRANCH  30  31
ENDBRANCH  29  30
ENDBRANCH  17  29
ENDBRANCH  16  17
ENDBRANCH   1  16
BRANCH  13  33
ATOM     33  C   UNL     1       7.051  -2.632 -13.990  0.00  0.00    +0.120 C 
BRANCH  33  34
ATOM     34  C   UNL     1       5.974  -1.986 -14.824  0.00  0.00    -0.033 A 
ATOM     35  C   UNL     1       4.703  -2.529 -14.852  0.00  0.00    +0.005 A 
ATOM     36  C   UNL     1       3.716  -1.936 -15.617  0.00  0.00    +0.000 A 
ATOM     37  C   UNL     1       3.999  -0.800 -16.352  0.00  0.00    +0.000 A 
ATOM     38  C   UNL     1       5.270  -0.258 -16.323  0.00  0.00    +0.000 A 
ATOM     39  C   UNL     1       6.256  -0.848 -15.555  0.00  0.00    +0.005 A 
ENDBRANCH  33  34
ENDBRANCH  13  33
TORSDOF 13
