REMARK  Name = ZINC06171059
REMARK  7 active torsions:
REMARK  status: ('A' for Active; 'I' for Inactive)
REMARK    1  A    between atoms: C_1  and  C_2
REMARK    2  A    between atoms: C_5  and  S_8
REMARK    3  A    between atoms: S_8  and  N_11
REMARK    4  A    between atoms: N_11  and  C_12
REMARK    5  A    between atoms: N_21  and  C_22
REMARK    6  A    between atoms: C_24  and  C_29
REMARK    7  A    between atoms: C_26  and  C_28
REMARK                            x       y       z     vdW  Elec       q    Type
REMARK                         _______ _______ _______ _____ _____    ______ ____
ROOT
ATOM      1  N   UNL     1       1.651  -5.088  -0.036  0.00  0.00    -0.178 N 
ATOM      2  C   UNL     1       2.276  -5.270  -1.242  0.00  0.00    +0.226 C 
ATOM      3  N   UNL     1       3.626  -5.491  -1.286  0.00  0.00    -0.368 N 
ATOM      4  N   UNL     1       1.577  -5.233  -2.357  0.00  0.00    -0.176 NA
ATOM      5  H   UNL     1       4.045  -6.068  -0.629  0.00  0.00    +0.159 HD
ATOM      6  H   UNL     1       4.164  -5.069  -1.975  0.00  0.00    +0.159 HD
ENDROOT
BRANCH   4   7
ATOM      7  C   UNL     1       2.165  -5.565  -3.539  0.00  0.00    +0.254 A 
ATOM      8  N   UNL     1       3.404  -6.050  -3.536  0.00  0.00    -0.216 NA
ATOM      9  C   UNL     1       4.001  -6.382  -4.668  0.00  0.00    +0.044 A 
ATOM     10  C   UNL     1       3.322  -6.219  -5.866  0.00  0.00    +0.046 A 
ATOM     11  C   UNL     1       2.032  -5.710  -5.835  0.00  0.00    +0.044 A 
ATOM     12  N   UNL     1       1.486  -5.402  -4.672  0.00  0.00    -0.216 NA
ATOM     13  C   UNL     1       1.259  -5.518  -7.115  0.00  0.00    +0.066 C 
ATOM     14  C   UNL     1       5.405  -6.930  -4.656  0.00  0.00    +0.066 C 
ENDBRANCH   4   7
BRANCH   1  15
ATOM     15  C   UNL     1       2.406  -5.018   1.140  0.00  0.00    +0.087 A 
ATOM     16  C   UNL     1       2.958  -3.809   1.542  0.00  0.00    +0.029 A 
ATOM     17  C   UNL     1       3.703  -3.743   2.703  0.00  0.00    +0.002 A 
ATOM     18  C   UNL     1       3.899  -4.880   3.466  0.00  0.00    +0.002 A 
ATOM     19  C   UNL     1       3.351  -6.086   3.070  0.00  0.00    +0.022 A 
ATOM     20  C   UNL     1       2.600  -6.157   1.912  0.00  0.00    +0.066 A 
ATOM     21 CL   UNL     1       1.905  -7.670   1.419  0.00  0.00    -0.081 Cl
ENDBRANCH   1  15
BRANCH   1  22
ATOM     22  S   UNL     1       0.002  -4.950   0.029  0.00  0.00    +0.087 S 
ATOM     23  O   UNL     1      -0.390  -5.376   1.327  0.00  0.00    -0.148 OA
ATOM     24  O   UNL     1      -0.503  -5.551  -1.155  0.00  0.00    -0.148 OA
BRANCH  22  29
ATOM     25  C   UNL     1      -1.316   0.927  -0.325  0.00  0.00    +0.044 C 
ATOM     26  C   UNL     1      -0.987  -0.541  -0.236  0.00  0.00    -0.050 A 
ATOM     27  C   UNL     1      -0.889  -1.298  -1.389  0.00  0.00    +0.005 A 
ATOM     28  C   UNL     1      -0.587  -2.644  -1.308  0.00  0.00    +0.029 A 
ATOM     29  C   UNL     1      -0.382  -3.233  -0.074  0.00  0.00    +0.111 A 
ATOM     30  C   UNL     1      -0.479  -2.476   1.078  0.00  0.00    +0.029 A 
ATOM     31  C   UNL     1      -0.777  -1.129   0.997  0.00  0.00    +0.005 A 
ENDBRANCH  22  29
ENDBRANCH   1  22
TORSDOF 4
