REMARK  Name = ZINC63557266
REMARK  11 active torsions:
REMARK  status: ('A' for Active; 'I' for Inactive)
REMARK    1  A    between atoms: C_1  and  C_2
REMARK    2  A    between atoms: C_2  and  O_3
REMARK    3  A    between atoms: O_3  and  C_4
REMARK    4  A    between atoms: C_4  and  C_5
REMARK    5  A    between atoms: C_9  and  N_12
REMARK    6  A    between atoms: C_13  and  C_15
REMARK    7  A    between atoms: N_20  and  C_22
REMARK    8  A    between atoms: C_22  and  C_23
REMARK    9  A    between atoms: C_23  and  C_24
REMARK   10  A    between atoms: C_27  and  O_33
REMARK   11  A    between atoms: O_33  and  C_34
REMARK                            x       y       z     vdW  Elec       q    Type
REMARK                         _______ _______ _______ _____ _____    ______ ____
ROOT
ATOM      1  C   UNL     1      -7.316   1.552   2.096  0.00  0.00    +0.101 C 
ATOM      2  C   UNL     1      -6.216   2.636   2.172  0.00  0.00    +0.110 C 
ATOM      3  C   UNL     1      -6.726   3.611   3.211  0.00  0.00    +0.216 C 
ATOM      4  O   UNL     1      -6.308   4.738   3.371  0.00  0.00    -0.276 OA
ATOM      5  N   UNL     1      -7.711   3.046   3.930  0.00  0.00    -0.300 N 
ATOM      6  C   UNL     1      -7.971   1.669   3.490  0.00  0.00    +0.121 C 
ENDROOT
BRANCH   1   8
ATOM      7  N   UNL     1      -6.038  -0.095   0.764  0.00  0.00    -0.290 N 
ATOM      8  C   UNL     1      -6.713   0.185   1.897  0.00  0.00    +0.220 C 
ATOM      9  O   UNL     1      -6.836  -0.662   2.755  0.00  0.00    -0.275 OA
ATOM     10  H   UNL     1      -5.940   0.584   0.078  0.00  0.00    +0.151 HD
BRANCH   7  14
ATOM     11  C   UNL     1      -2.905  -2.339   0.017  0.00  0.00    +0.155 C 
ATOM     12  N   UNL     1      -3.659  -1.721  -1.116  0.00  0.00    -0.239 NA
ATOM     13  N   UNL     1      -5.080  -1.636  -0.849  0.00  0.00    -0.226 NA
ATOM     14  C   UNL     1      -5.452  -1.423   0.571  0.00  0.00    +0.217 C 
ATOM     15  S   UNL     1      -3.820  -1.556   1.420  0.00  0.00    -0.099 S 
ATOM     16  H   UNL     1      -3.482  -2.213  -1.979  0.00  0.00    +0.142 HD
ATOM     17  H   UNL     1      -5.519  -0.951  -1.444  0.00  0.00    +0.143 HD
BRANCH  11  18
ATOM     18  C   UNL     1      -1.432  -1.925   0.005  0.00  0.00    +0.190 C 
BRANCH  18  19
ATOM     19  O   UNL     1      -1.339  -0.499   0.012  0.00  0.00    -0.378 OA
BRANCH  19  21
ATOM     20  C   UNL     1      -0.019   1.526   0.010  0.00  0.00    +0.034 C 
ATOM     21  C   UNL     1       0.002  -0.004   0.002  0.00  0.00    +0.156 C 
ENDBRANCH  19  21
ENDBRANCH  18  19
ENDBRANCH  11  18
ENDBRANCH   7  14
ENDBRANCH   1   8
BRANCH   5  22
ATOM     22  C   UNL     1      -8.432   3.717   5.014  0.00  0.00    +0.112 C 
BRANCH  22  23
ATOM     23  C   UNL     1      -9.656   4.437   4.444  0.00  0.00    +0.052 C 
BRANCH  23  24
ATOM     24  C   UNL     1     -10.398   5.127   5.559  0.00  0.00    -0.040 C 
ATOM     25  C   UNL     1     -10.273   6.418   5.941  0.00  0.00    +0.002 A 
ATOM     26  C   UNL     1      -9.442   7.524   5.454  0.00  0.00    +0.055 A 
ATOM     27  C   UNL     1      -9.532   8.738   6.048  0.00  0.00    +0.121 A 
ATOM     28  C   UNL     1     -10.401   8.984   7.125  0.00  0.00    +0.047 A 
ATOM     29  C   UNL     1     -11.205   8.030   7.643  0.00  0.00    +0.029 A 
ATOM     30  C   UNL     1     -11.189   6.678   7.076  0.00  0.00    +0.043 A 
ATOM     31  N   UNL     1     -11.852   5.591   7.383  0.00  0.00    -0.380 N 
ATOM     32  C   UNL     1     -11.438   4.518   6.472  0.00  0.00    +0.144 C 
ATOM     33  H   UNL     1     -12.510   5.511   8.091  0.00  0.00    +0.160 HD
BRANCH  27  34
ATOM     34  O   UNL     1      -8.756   9.754   5.587  0.00  0.00    -0.495 OA
ATOM     35  C   UNL     1      -8.883  11.017   6.243  0.00  0.00    +0.277 C 
ENDBRANCH  27  34
ENDBRANCH  23  24
ENDBRANCH  22  23
ENDBRANCH   5  22
TORSDOF 9
