REMARK  Name = ZINC13138424
REMARK  12 active torsions:
REMARK  status: ('A' for Active; 'I' for Inactive)
REMARK    1  A    between atoms: C_1  and  C_2
REMARK    2  A    between atoms: C_2  and  C_3
REMARK    3  A    between atoms: C_3  and  C_4
REMARK    4  A    between atoms: C_3  and  C_5
REMARK    5  A    between atoms: C_3  and  N_14
REMARK    6  A    between atoms: N_7  and  C_8
REMARK    7  A    between atoms: N_14  and  C_15
REMARK    8  A    between atoms: C_16  and  C_28
REMARK    9  A    between atoms: N_17  and  C_27
REMARK   10  A    between atoms: N_18  and  C_21
REMARK   11  A    between atoms: C_29  and  C_31
REMARK   12  A    between atoms: C_31  and  C_32
REMARK                            x       y       z     vdW  Elec       q    Type
REMARK                         _______ _______ _______ _____ _____    ______ ____
ROOT
ATOM      1  N   UNL     1       0.321  -0.256   2.922  0.00  0.00    -0.251 N 
ATOM      2  C   UNL     1       0.678   1.037   3.050  0.00  0.00    +0.223 C 
ATOM      3  O   UNL     1      -0.015   1.797   3.693  0.00  0.00    -0.275 OA
ENDROOT
BRANCH   1   4
ATOM      4  C   UNL     1      -0.990  -0.589   2.527  0.00  0.00    +0.125 A 
ATOM      5  C   UNL     1      -2.132  -0.028   2.984  0.00  0.00    +0.060 A 
ATOM      6  N   UNL     1      -3.194  -0.624   2.356  0.00  0.00    -0.282 N 
ATOM      7  N   UNL     1      -2.716  -1.595   1.469  0.00  0.00    -0.216 N 
ATOM      8  C   UNL     1      -1.369  -1.601   1.540  0.00  0.00    +0.294 A 
ATOM      9  O   UNL     1      -0.613  -2.314   0.906  0.00  0.00    -0.264 OA
ATOM     10  C   UNL     1      -4.605  -0.296   2.578  0.00  0.00    +0.171 C 
ATOM     11  C   UNL     1      -2.223   1.069   4.013  0.00  0.00    +0.067 C 
BRANCH   7  12
ATOM     12  C   UNL     1      -3.499  -2.414   0.649  0.00  0.00    +0.067 A 
ATOM     13  C   UNL     1      -3.019  -3.651   0.238  0.00  0.00    +0.028 A 
ATOM     14  C   UNL     1      -3.794  -4.457  -0.572  0.00  0.00    +0.002 A 
ATOM     15  C   UNL     1      -5.047  -4.033  -0.975  0.00  0.00    +0.000 A 
ATOM     16  C   UNL     1      -5.528  -2.802  -0.568  0.00  0.00    +0.002 A 
ATOM     17  C   UNL     1      -4.760  -1.994   0.247  0.00  0.00    +0.028 A 
ENDBRANCH   7  12
ENDBRANCH   1   4
BRANCH   1  18
ATOM     18  C   UNL     1       1.295  -1.316   3.193  0.00  0.00    +0.115 C 
ATOM     19  C   UNL     1       1.293  -1.640   4.689  0.00  0.00    +0.042 C 
BRANCH  18  20
ATOM     20  C   UNL     1       2.669  -0.852   2.782  0.00  0.00    +0.237 C 
ATOM     21  O   UNL     1       3.580  -0.873   3.582  0.00  0.00    -0.273 OA
ATOM     22  N   UNL     1       2.884  -0.415   1.525  0.00  0.00    -0.311 N 
ATOM     23  H   UNL     1       2.133  -0.241   0.937  0.00  0.00    +0.149 HD
BRANCH  22  24
ATOM     24  C   UNL     1       4.253  -0.202   1.048  0.00  0.00    +0.073 C 
ATOM     25  C   UNL     1       4.736   1.182   1.487  0.00  0.00    +0.022 C 
ATOM     26  C   UNL     1       6.166   1.404   0.990  0.00  0.00    +0.002 C 
ATOM     27  C   UNL     1       6.194   1.315  -0.538  0.00  0.00    +0.000 C 
ATOM     28  C   UNL     1       5.710  -0.069  -0.977  0.00  0.00    +0.002 C 
ATOM     29  C   UNL     1       4.281  -0.291  -0.479  0.00  0.00    +0.022 C 
ENDBRANCH  22  24
ENDBRANCH  18  20
BRANCH  18  31
ATOM     30  C   UNL     1       1.360  -2.400   0.943  0.00  0.00    +0.006 C 
ATOM     31  C   UNL     1       0.920  -2.568   2.399  0.00  0.00    +0.032 C 
ENDBRANCH  18  31
ENDBRANCH   1  18
BRANCH   2  32
ATOM     32  C   UNL     1       1.939   1.539   2.394  0.00  0.00    +0.128 C 
BRANCH  32  33
ATOM     33  C   UNL     1       2.303   2.909   2.971  0.00  0.00    +0.169 C 
ATOM     34  C   UNL     1       3.675   3.341   2.492  0.00  0.00    +0.241 C 
ATOM     35  O   UNL     1       4.023   3.536   1.347  0.00  0.00    -0.273 OA
ATOM     36  N   UNL     1       4.426   3.464   3.604  0.00  0.00    -0.239 N 
ATOM     37  C   UNL     1       3.728   3.173   4.707  0.00  0.00    +0.307 C 
ATOM     38  O   UNL     1       4.190   3.213   5.830  0.00  0.00    -0.252 OA
ATOM     39  N   UNL     1       2.451   2.832   4.434  0.00  0.00    -0.287 N 
ATOM     40  H   UNL     1       5.359   3.731   3.604  0.00  0.00    +0.159 HD
ATOM     41  H   UNL     1       1.766   2.585   5.074  0.00  0.00    +0.151 HD
ENDBRANCH  32  33
ENDBRANCH   2  32
TORSDOF 8
