REMARK  Name = ZINC22189030
REMARK  8 active torsions:
REMARK  status: ('A' for Active; 'I' for Inactive)
REMARK    1  A    between atoms: C_1  and  C_2
REMARK    2  A    between atoms: C_2  and  C_3
REMARK    3  A    between atoms: C_3  and  C_30
REMARK    4  A    between atoms: N_6  and  N_10
REMARK    5  A    between atoms: C_11  and  C_13
REMARK    6  A    between atoms: C_13  and  S_14
REMARK    7  A    between atoms: S_14  and  C_15
REMARK    8  A    between atoms: C_23  and  C_25
REMARK                            x       y       z     vdW  Elec       q    Type
REMARK                         _______ _______ _______ _____ _____    ______ ____
ROOT
ATOM      1  N   UNL     1      -1.186   2.115   0.019  0.00  0.00    -0.223 N 
ATOM      2  C   UNL     1      -1.577   2.732   1.152  0.00  0.00    +0.240 C 
ATOM      3  O   UNL     1      -0.916   2.619   2.163  0.00  0.00    -0.273 OA
ATOM      4  H   UNL     1      -1.785   2.217  -0.897  0.00  0.00    +0.174 HD
ENDROOT
BRANCH   1   8
ATOM      5  C   UNL     1       1.467  -0.394  -0.014  0.00  0.00    +0.139 C 
ATOM      6  C   UNL     1       0.002  -0.004   0.002  0.00  0.00    +0.268 C 
ATOM      7  O   UNL     1      -0.954  -0.749   0.008  0.00  0.00    -0.271 OA
ATOM      8  N   UNL     1      -0.016   1.343   0.009  0.00  0.00    -0.137 N 
ATOM      9  C   UNL     1       1.220   1.854   0.000  0.00  0.00    +0.327 C 
ATOM     10  O   UNL     1       1.460   3.045   0.005  0.00  0.00    -0.251 OA
ATOM     11  N   UNL     1       2.170   0.901  -0.014  0.00  0.00    -0.280 N 
ATOM     12  H   UNL     1       3.269   0.929  -0.024  0.00  0.00    +0.152 HD
BRANCH   5  13
ATOM     13  C   UNL     1       1.793  -1.178  -1.259  0.00  0.00    -0.015 A 
ATOM     14  C   UNL     1       1.698  -2.557  -1.252  0.00  0.00    +0.006 A 
ATOM     15  C   UNL     1       1.992  -3.276  -2.396  0.00  0.00    +0.000 A 
ATOM     16  C   UNL     1       2.392  -2.616  -3.543  0.00  0.00    +0.000 A 
ATOM     17  C   UNL     1       2.493  -1.238  -3.548  0.00  0.00    +0.000 A 
ATOM     18  C   UNL     1       2.194  -0.518  -2.406  0.00  0.00    +0.006 A 
ENDBRANCH   5  13
BRANCH   5  20
ATOM     19  C   UNL     1       1.532  -0.362   2.483  0.00  0.00    +0.007 C 
ATOM     20  C   UNL     1       1.823  -1.200   1.237  0.00  0.00    +0.037 C 
ENDBRANCH   5  20
ENDBRANCH   1   8
BRANCH   2  21
ATOM     21  C   UNL     1      -2.835   3.561   1.163  0.00  0.00    +0.173 C 
BRANCH  21  22
ATOM     22  S   UNL     1      -3.087   4.253   2.816  0.00  0.00    -0.096 S 
BRANCH  22  23
ATOM     23  C   UNL     1      -4.581   5.149   2.548  0.00  0.00    +0.109 A 
ATOM     24  C   UNL     1      -5.216   5.902   3.629  0.00  0.00    +0.032 A 
ATOM     25  C   UNL     1      -4.673   5.960   4.915  0.00  0.00    +0.012 A 
ATOM     26  C   UNL     1      -5.309   6.685   5.880  0.00  0.00    +0.001 A 
ATOM     27  C   UNL     1      -6.488   7.370   5.599  0.00  0.00    +0.002 A 
ATOM     28  C   UNL     1      -7.040   7.337   4.353  0.00  0.00    +0.028 A 
ATOM     29  C   UNL     1      -6.412   6.602   3.337  0.00  0.00    +0.076 A 
ATOM     30  N   UNL     1      -6.911   6.535   2.096  0.00  0.00    -0.225 NA
ATOM     31  C   UNL     1      -6.301   5.835   1.155  0.00  0.00    +0.197 A 
ATOM     32  N   UNL     1      -5.171   5.159   1.361  0.00  0.00    -0.218 NA
BRANCH  31  33
ATOM     33  C   UNL     1      -6.902   5.802  -0.191  0.00  0.00    +0.172 A 
ATOM     34  C   UNL     1      -6.409   5.134  -1.270  0.00  0.00    +0.053 A 
ATOM     35  C   UNL     1      -7.294   5.376  -2.336  0.00  0.00    +0.042 A 
ATOM     36  C   UNL     1      -8.276   6.172  -1.863  0.00  0.00    +0.196 A 
ATOM     37  O   UNL     1      -8.039   6.421  -0.566  0.00  0.00    -0.460 OA
ENDBRANCH  31  33
ENDBRANCH  22  23
ENDBRANCH  21  22
ENDBRANCH   2  21
TORSDOF 7
