REMARK  Name = ZINC09210833
REMARK  6 active torsions:
REMARK  status: ('A' for Active; 'I' for Inactive)
REMARK    1  A    between atoms: C_1  and  C_2
REMARK    2  A    between atoms: C_5  and  N_9
REMARK    3  A    between atoms: C_7  and  N_8
REMARK    4  A    between atoms: C_10  and  C_25
REMARK    5  A    between atoms: N_19  and  C_24
REMARK    6  A    between atoms: N_22  and  C_23
REMARK                            x       y       z     vdW  Elec       q    Type
REMARK                         _______ _______ _______ _____ _____    ______ ____
ROOT
ATOM      1  N   UNL     1       2.442   2.109   5.013  0.00  0.00    -0.278 N 
ATOM      2  C   UNL     1       1.781   2.695   6.086  0.00  0.00    +0.074 A 
ATOM      3  C   UNL     1       0.493   2.860   5.738  0.00  0.00    +0.121 A 
ATOM      4  N   UNL     1       0.327   2.384   4.453  0.00  0.00    -0.277 N 
ATOM      5  C   UNL     1       1.526   1.923   4.008  0.00  0.00    +0.223 A 
ATOM      6  N   UNL     1       1.385   1.462   2.775  0.00  0.00    -0.193 NA
ATOM      7  C   UNL     1       0.122   1.602   2.379  0.00  0.00    +0.170 A 
ATOM      8  C   UNL     1      -0.586   2.189   3.427  0.00  0.00    +0.157 A 
ATOM      9  C   UNL     1      -1.957   2.449   3.268  0.00  0.00    +0.283 A 
ATOM     10  O   UNL     1      -2.595   2.962   4.171  0.00  0.00    -0.265 OA
ATOM     11  N   UNL     1      -2.560   2.125   2.105  0.00  0.00    -0.262 N 
ATOM     12  C   UNL     1      -1.869   1.564   1.099  0.00  0.00    +0.333 A 
ATOM     13  O   UNL     1      -2.446   1.290   0.064  0.00  0.00    -0.246 OA
ATOM     14  N   UNL     1      -0.555   1.292   1.209  0.00  0.00    -0.280 N 
ATOM     15  C   UNL     1       0.162   0.675   0.090  0.00  0.00    +0.155 C 
ATOM     16  C   UNL     1      -3.990   2.396   1.936  0.00  0.00    +0.157 C 
ENDROOT
BRANCH   1  21
ATOM     17  C   UNL     1       7.952   0.747   4.825  0.00  0.00    +0.045 C 
ATOM     18  C   UNL     1       6.490   1.107   4.874  0.00  0.00    -0.030 A 
ATOM     19  C   UNL     1       6.106   2.433   4.917  0.00  0.00    +0.007 A 
ATOM     20  C   UNL     1       4.767   2.767   4.963  0.00  0.00    +0.026 A 
ATOM     21  C   UNL     1       3.800   1.769   4.966  0.00  0.00    +0.052 A 
ATOM     22  C   UNL     1       4.181   0.436   4.928  0.00  0.00    +0.049 A 
ATOM     23  C   UNL     1       5.528   0.104   4.876  0.00  0.00    +0.029 A 
BRANCH  23  24
ATOM     24  N   UNL     1       5.916  -1.237   4.833  0.00  0.00    -0.358 N 
ATOM     25  H   UNL     1       6.857  -1.469   4.801  0.00  0.00    +0.142 HD
ATOM     26  H   UNL     1       5.244  -1.937   4.834  0.00  0.00    +0.142 HD
ENDBRANCH  23  24
ENDBRANCH   1  21
BRANCH   2  27
ATOM     27  C   UNL     1       2.388   3.071   7.382  0.00  0.00    +0.000 A 
ATOM     28  C   UNL     1       3.589   2.488   7.788  0.00  0.00    +0.011 A 
ATOM     29  C   UNL     1       4.152   2.846   8.995  0.00  0.00    +0.020 A 
ATOM     30  C   UNL     1       3.523   3.773   9.809  0.00  0.00    +0.041 A 
ATOM     31  C   UNL     1       2.328   4.350   9.414  0.00  0.00    +0.020 A 
ATOM     32  C   UNL     1       1.758   4.004   8.206  0.00  0.00    +0.011 A 
ATOM     33 CL   UNL     1       4.234   4.213  11.330  0.00  0.00    -0.084 Cl
ENDBRANCH   2  27
TORSDOF 3
