REMARK  Name = ZINC67387769
REMARK  4 active torsions:
REMARK  status: ('A' for Active; 'I' for Inactive)
REMARK    1  A    between atoms: C_1  and  C_2
REMARK    2  A    between atoms: C_6  and  C_7
REMARK    3  A    between atoms: N_9  and  N_10
REMARK    4  A    between atoms: N_13  and  C_14
REMARK                            x       y       z     vdW  Elec       q    Type
REMARK                         _______ _______ _______ _____ _____    ______ ____
ROOT
ATOM      1  N   UNL     1       0.058  -0.732   4.900  0.00  0.00    -0.218 N 
ATOM      2  C   UNL     1       0.080  -1.625   5.909  0.00  0.00    +0.316 C 
ATOM      3  O   UNL     1       0.086  -1.239   7.062  0.00  0.00    -0.251 OA
ATOM      4  N   UNL     1       0.096  -2.945   5.640  0.00  0.00    -0.291 N 
ATOM      5  H   UNL     1       0.047   0.219   5.094  0.00  0.00    +0.174 HD
ATOM      6  H   UNL     1       0.091  -3.253   4.720  0.00  0.00    +0.151 HD
ENDROOT
BRANCH   4   7
ATOM      7  C   UNL     1       0.119  -3.916   6.737  0.00  0.00    +0.106 C 
ATOM      8  C   UNL     1       0.755  -5.215   6.246  0.00  0.00    +0.027 C 
ATOM      9  C   UNL     1       0.564  -6.282   7.330  0.00  0.00    +0.008 C 
ATOM     10  C   UNL     1      -0.920  -6.633   7.398  0.00  0.00    +0.054 C 
ATOM     11  C   UNL     1      -1.758  -5.386   7.519  0.00  0.00    +0.024 A 
ATOM     12  C   UNL     1      -1.289  -4.160   7.214  0.00  0.00    -0.008 A 
ATOM     13  C   UNL     1      -2.134  -3.039   7.339  0.00  0.00    +0.012 A 
ATOM     14  C   UNL     1      -3.414  -3.199   7.770  0.00  0.00    +0.070 A 
ATOM     15  C   UNL     1      -3.870  -4.490   8.086  0.00  0.00    +0.249 A 
ATOM     16  O   UNL     1      -5.014  -4.657   8.478  0.00  0.00    -0.268 OA
ATOM     17  N   UNL     1      -3.043  -5.538   7.958  0.00  0.00    -0.326 N 
ATOM     18  H   UNL     1      -3.366  -6.425   8.180  0.00  0.00    +0.169 HD
ENDBRANCH   4   7
BRANCH   1  21
ATOM     19  C   UNL     1       0.030  -0.283   2.562  0.00  0.00    +0.267 C 
ATOM     20  O   UNL     1       0.016   0.910   2.805  0.00  0.00    -0.268 OA
ATOM     21  N   UNL     1       0.052  -1.176   3.571  0.00  0.00    -0.229 N 
ATOM     22  H   UNL     1       0.063  -2.126   3.378  0.00  0.00    +0.173 HD
BRANCH  19  28
ATOM     23  C   UNL     1      -0.018   1.503   0.010  0.00  0.00    +0.045 C 
ATOM     24  C   UNL     1       0.002  -0.004   0.002  0.00  0.00    -0.031 A 
ATOM     25  C   UNL     1       0.007  -0.729  -1.166  0.00  0.00    +0.011 A 
ATOM     26  C   UNL     1       0.026  -2.083  -1.101  0.00  0.00    +0.046 A 
ATOM     27  S   UNL     1       0.038  -2.416   0.545  0.00  0.00    -0.092 S 
ATOM     28  C   UNL     1       0.023  -0.748   1.172  0.00  0.00    +0.078 A 
ENDBRANCH  19  28
ENDBRANCH   1  21
TORSDOF 3
