REMARK  Name = ZINC61852986
REMARK  6 active torsions:
REMARK  status: ('A' for Active; 'I' for Inactive)
REMARK    1  A    between atoms: C_1  and  C_2
REMARK    2  A    between atoms: C_7  and  N_11
REMARK    3  A    between atoms: C_12  and  C_14
REMARK    4  A    between atoms: N_16  and  C_17
REMARK    5  A    between atoms: C_17  and  C_18
REMARK    6  A    between atoms: C_17  and  C_19
REMARK                            x       y       z     vdW  Elec       q    Type
REMARK                         _______ _______ _______ _____ _____    ______ ____
ROOT
ATOM      1  N   UNL     1       0.085  -5.689   1.331  0.00  0.00    -0.278 N 
ATOM      2  C   UNL     1      -0.004  -6.842   0.639  0.00  0.00    +0.303 C 
ATOM      3  O   UNL     1      -0.010  -6.822  -0.575  0.00  0.00    -0.265 OA
ATOM      4  H   UNL     1       0.167  -5.709   2.298  0.00  0.00    +0.155 HD
ENDROOT
BRANCH   1  11
ATOM      5  C   UNL     1       1.401   1.283  -0.440  0.00  0.00    +0.109 C 
ATOM      6  C   UNL     1       0.968  -0.154  -0.305  0.00  0.00    +0.194 A 
ATOM      7  N   UNL     1       0.165  -0.767  -1.121  0.00  0.00    -0.214 NA
ATOM      8  C   UNL     1      -0.004  -2.047  -0.693  0.00  0.00    +0.110 A 
ATOM      9  C   UNL     1      -0.740  -3.135  -1.168  0.00  0.00    +0.033 A 
ATOM     10  C   UNL     1      -0.705  -4.325  -0.499  0.00  0.00    +0.025 A 
ATOM     11  C   UNL     1       0.060  -4.465   0.657  0.00  0.00    +0.037 A 
ATOM     12  C   UNL     1       0.797  -3.395   1.142  0.00  0.00    +0.071 A 
ATOM     13  C   UNL     1       0.769  -2.183   0.471  0.00  0.00    +0.157 A 
ATOM     14  O   UNL     1       1.360  -0.985   0.674  0.00  0.00    -0.440 OA
ENDBRANCH   1  11
BRANCH   2  15
ATOM     15  C   UNL     1      -0.097  -8.143   1.364  0.00  0.00    +0.300 C 
ATOM     16  O   UNL     1      -0.091  -8.164   2.578  0.00  0.00    -0.265 OA
ATOM     17  N   UNL     1      -0.186  -9.296   0.672  0.00  0.00    -0.301 N 
ATOM     18  H   UNL     1      -0.191  -9.280  -0.298  0.00  0.00    +0.150 HD
BRANCH  17  19
ATOM     19  C   UNL     1      -0.277 -10.573   1.383  0.00  0.00    +0.102 C 
ATOM     20  C   UNL     1       1.130 -11.063   1.733  0.00  0.00    +0.033 C 
BRANCH  19  21
ATOM     21  C   UNL     1      -0.959 -11.591   0.506  0.00  0.00    -0.009 A 
ATOM     22  C   UNL     1      -0.922 -11.453  -0.869  0.00  0.00    +0.007 A 
ATOM     23  C   UNL     1      -1.548 -12.386  -1.674  0.00  0.00    +0.000 A 
ATOM     24  C   UNL     1      -2.212 -13.457  -1.105  0.00  0.00    +0.001 A 
ATOM     25  C   UNL     1      -2.250 -13.595   0.269  0.00  0.00    +0.020 A 
ATOM     26  C   UNL     1      -1.619 -12.665   1.076  0.00  0.00    +0.046 A 
ATOM     27 CL   UNL     1      -1.660 -12.841   2.802  0.00  0.00    -0.083 Cl
ENDBRANCH  19  21
ENDBRANCH  17  19
ENDBRANCH   2  15
TORSDOF 4
