REMARK  Name = ZINC65381136
REMARK  4 active torsions:
REMARK  status: ('A' for Active; 'I' for Inactive)
REMARK    1  A    between atoms: C_1  and  C_2
REMARK    2  A    between atoms: C_4  and  C_30
REMARK    3  A    between atoms: C_11  and  C_13
REMARK    4  A    between atoms: C_22  and  C_25
REMARK                            x       y       z     vdW  Elec       q    Type
REMARK                         _______ _______ _______ _____ _____    ______ ____
ROOT
ATOM      1  C   UNL     1      -1.434  -3.592   1.307  0.00  0.00    +0.026 C 
ATOM      2  C   UNL     1      -2.439  -3.916   2.415  0.00  0.00    +0.101 C 
ATOM      3  C   UNL     1      -2.920  -5.333   2.366  0.00  0.00    +0.218 C 
ATOM      4  O   UNL     1      -3.955  -5.604   2.935  0.00  0.00    -0.275 OA
ATOM      5  N   UNL     1      -2.269  -6.327   1.725  0.00  0.00    -0.272 N 
ATOM      6  C   UNL     1      -1.158  -5.988   0.991  0.00  0.00    +0.133 C 
ATOM      7  N   UNL     1      -0.571  -6.550  -0.008  0.00  0.00    -0.138 NA
ATOM      8  N   UNL     1       0.387  -5.715  -0.586  0.00  0.00    -0.148 NA
ATOM      9  C   UNL     1       0.532  -4.595   0.080  0.00  0.00    +0.116 C 
ATOM     10  C   UNL     1      -0.383  -4.704   1.271  0.00  0.00    +0.113 C 
ATOM     11  H   UNL     1      -2.575  -7.245   1.781  0.00  0.00    +0.156 HD
ENDROOT
BRANCH   1  21
ATOM     12  C   UNL     1      -2.949   1.105   4.395  0.00  0.00    +0.062 C 
ATOM     13  C   UNL     1      -3.031   0.097   3.278  0.00  0.00    +0.030 C 
ATOM     14  C   UNL     1      -4.162  -0.106   2.547  0.00  0.00    +0.043 C 
ATOM     15  C   UNL     1      -4.161  -1.060   1.506  0.00  0.00    +0.037 C 
ATOM     16  N   UNL     1      -3.069  -1.559   1.004  0.00  0.00    -0.264 NA
ATOM     17  C   UNL     1      -1.770  -1.101   1.500  0.00  0.00    +0.222 C 
ATOM     18  N   UNL     1      -1.966  -0.693   2.907  0.00  0.00    -0.204 N 
ATOM     19  N   UNL     1      -0.988  -1.293   3.678  0.00  0.00    -0.190 NA
ATOM     20  C   UNL     1      -0.300  -2.167   3.055  0.00  0.00    +0.111 C 
ATOM     21  C   UNL     1      -0.757  -2.251   1.599  0.00  0.00    +0.081 C 
ATOM     22  C   UNL     1      -5.484  -1.522   0.952  0.00  0.00    +0.065 C 
ENDBRANCH   1  21
BRANCH   9  23
ATOM     23  C   UNL     1       1.402  -3.472  -0.263  0.00  0.00    +0.151 A 
ATOM     24  C   UNL     1       1.744  -3.076  -1.526  0.00  0.00    +0.051 A 
ATOM     25  C   UNL     1       2.591  -1.964  -1.386  0.00  0.00    +0.042 A 
ATOM     26  C   UNL     1       2.728  -1.733  -0.063  0.00  0.00    +0.196 A 
ATOM     27  O   UNL     1       2.005  -2.640   0.612  0.00  0.00    -0.462 OA
ENDBRANCH   9  23
TORSDOF 2
