REMARK  Name = ZINC46620188
REMARK  7 active torsions:
REMARK  status: ('A' for Active; 'I' for Inactive)
REMARK    1  A    between atoms: C_1  and  C_2
REMARK    2  A    between atoms: C_2  and  C_4
REMARK    3  A    between atoms: C_2  and  N_15
REMARK    4  A    between atoms: C_16  and  C_18
REMARK    5  A    between atoms: C_18  and  C_19
REMARK    6  A    between atoms: C_19  and  C_20
REMARK    7  A    between atoms: C_29  and  C_30
REMARK                            x       y       z     vdW  Elec       q    Type
REMARK                         _______ _______ _______ _____ _____    ______ ____
ROOT
ATOM      1  C   UNL     1       1.178  -1.179  -3.573  0.00  0.00    +0.100 C 
ENDROOT
BRANCH   1   3
ATOM      2  N   UNL     1       1.464  -0.714  -1.160  0.00  0.00    -0.309 N 
ATOM      3  C   UNL     1       0.635  -0.796  -2.220  0.00  0.00    +0.214 C 
ATOM      4  O   UNL     1      -0.547  -0.562  -2.085  0.00  0.00    -0.276 OA
ATOM      5  H   UNL     1       2.409  -0.902  -1.268  0.00  0.00    +0.149 HD
BRANCH   2   7
ATOM      6  C   UNL     1       0.878   1.182   0.269  0.00  0.00    +0.033 C 
ATOM      7  C   UNL     1       0.936  -0.342   0.155  0.00  0.00    +0.100 C 
BRANCH   7   8
ATOM      8  C   UNL     1       1.837  -0.892   1.231  0.00  0.00    -0.026 A 
ATOM      9  C   UNL     1       3.209  -0.856   1.067  0.00  0.00    +0.009 A 
ATOM     10  C   UNL     1       4.042  -1.358   2.051  0.00  0.00    +0.048 A 
ATOM     11  C   UNL     1       3.500  -1.898   3.204  0.00  0.00    +0.142 A 
ATOM     12  C   UNL     1       2.117  -1.936   3.369  0.00  0.00    +0.076 A 
ATOM     13  C   UNL     1       1.288  -1.426   2.383  0.00  0.00    +0.032 A 
ATOM     14  N   UNL     1       1.580  -2.489   4.540  0.00  0.00    -0.280 N 
ATOM     15  C   UNL     1       2.391  -2.680   5.604  0.00  0.00    +0.255 C 
ATOM     16  O   UNL     1       1.956  -3.186   6.617  0.00  0.00    -0.272 OA
ATOM     17  C   UNL     1       3.837  -2.263   5.527  0.00  0.00    +0.325 C 
ATOM     18  O   UNL     1       4.304  -2.395   4.181  0.00  0.00    -0.481 OA
ATOM     19  H   UNL     1       0.642  -2.730   4.587  0.00  0.00    +0.155 HD
ENDBRANCH   7   8
ENDBRANCH   2   7
ENDBRANCH   1   3
BRANCH   1  20
ATOM     20  C   UNL     1       0.038  -1.198  -4.593  0.00  0.00    +0.047 C 
BRANCH  20  21
ATOM     21  C   UNL     1       0.587  -1.540  -5.954  0.00  0.00    -0.014 A 
ATOM     22  C   UNL     1       0.667  -2.872  -6.551  0.00  0.00    +0.003 A 
ATOM     23  C   UNL     1       0.304  -4.151  -6.117  0.00  0.00    +0.010 A 
ATOM     24  C   UNL     1       0.513  -5.228  -6.930  0.00  0.00    +0.001 A 
ATOM     25  C   UNL     1       1.085  -5.064  -8.185  0.00  0.00    +0.002 A 
ATOM     26  C   UNL     1       1.450  -3.813  -8.633  0.00  0.00    +0.026 A 
ATOM     27  C   UNL     1       1.246  -2.701  -7.822  0.00  0.00    +0.047 A 
ATOM     28  N   UNL     1       1.499  -1.356  -7.983  0.00  0.00    -0.354 N 
ATOM     29  H   UNL     1       1.898  -0.954  -8.770  0.00  0.00    +0.166 HD
ATOM     30  C   UNL     1       1.096  -0.669  -6.861  0.00  0.00    +0.051 A 
BRANCH  30  31
ATOM     31  C   UNL     1       1.204   0.793  -6.671  0.00  0.00    -0.001 A 
ATOM     32  C   UNL     1       0.110   1.522  -6.203  0.00  0.00    +0.013 A 
ATOM     33  C   UNL     1       0.216   2.885  -6.028  0.00  0.00    +0.039 A 
ATOM     34  C   UNL     1       1.407   3.533  -6.317  0.00  0.00    +0.123 A 
ATOM     35  C   UNL     1       2.496   2.815  -6.783  0.00  0.00    +0.039 A 
ATOM     36  C   UNL     1       2.403   1.449  -6.955  0.00  0.00    +0.013 A 
ATOM     37  F   UNL     1       1.505   4.869  -6.145  0.00  0.00    -0.205 F 
ENDBRANCH  30  31
ENDBRANCH  20  21
ENDBRANCH   1  20
TORSDOF 6
