REMARK  Name = ZINC66740375
REMARK  7 active torsions:
REMARK  status: ('A' for Active; 'I' for Inactive)
REMARK    1  A    between atoms: C_1  and  C_2
REMARK    2  A    between atoms: C_4  and  C_17
REMARK    3  A    between atoms: C_6  and  C_16
REMARK    4  A    between atoms: C_7  and  O_8
REMARK    5  A    between atoms: O_8  and  C_9
REMARK    6  A    between atoms: C_9  and  C_10
REMARK    7  A    between atoms: C_21  and  C_29
REMARK                            x       y       z     vdW  Elec       q    Type
REMARK                         _______ _______ _______ _____ _____    ______ ____
ROOT
ATOM      1  C   UNL     1      -0.018   1.503   0.010  0.00  0.00    +0.047 C 
ATOM      2  C   UNL     1       0.002  -0.004   0.002  0.00  0.00    -0.008 A 
ATOM      3  C   UNL     1       0.006  -0.689  -1.198  0.00  0.00    +0.014 A 
ATOM      4  C   UNL     1       0.024  -2.071  -1.206  0.00  0.00    -0.009 A 
ATOM      5  C   UNL     1       0.040  -2.772  -0.014  0.00  0.00    +0.014 A 
ATOM      6  C   UNL     1       0.036  -2.092   1.188  0.00  0.00    -0.008 A 
ATOM      7  C   UNL     1       0.023  -0.705   1.199  0.00  0.00    +0.127 A 
ATOM      8  C   UNL     1       0.052  -2.856   2.487  0.00  0.00    +0.047 C 
ENDROOT
BRANCH   4   9
ATOM      9  C   UNL     1       0.028  -2.816  -2.516  0.00  0.00    +0.190 C 
ATOM     10  N   UNL     1      -0.621  -4.123  -2.324  0.00  0.00    -0.319 N 
ATOM     11  C   UNL     1      -2.023  -4.140  -2.343  0.00  0.00    +0.082 A 
ATOM     12  C   UNL     1      -2.956  -4.946  -1.829  0.00  0.00    +0.055 A 
ATOM     13  N   UNL     1      -4.167  -4.426  -2.186  0.00  0.00    -0.279 N 
ATOM     14  H   UNL     1      -5.027  -4.806  -1.947  0.00  0.00    +0.189 HD
ATOM     15  N   UNL     1      -4.004  -3.354  -2.889  0.00  0.00    -0.167 NA
ATOM     16  C   UNL     1      -2.736  -3.109  -3.037  0.00  0.00    +0.168 A 
ATOM     17  C   UNL     1      -1.983  -2.053  -3.741  0.00  0.00    +0.268 C 
ATOM     18  O   UNL     1      -2.536  -1.262  -4.481  0.00  0.00    -0.268 OA
ATOM     19  N   UNL     1      -0.650  -2.006  -3.522  0.00  0.00    -0.288 N 
ATOM     20  C   UNL     1      -2.719  -6.191  -1.012  0.00  0.00    +0.067 C 
ATOM     21  H   UNL     1      -0.104  -4.933  -2.192  0.00  0.00    +0.148 HD
ATOM     22  H   UNL     1      -0.117  -1.402  -4.062  0.00  0.00    +0.151 HD
ENDBRANCH   4   9
BRANCH   7  23
ATOM     23  O   UNL     1       0.025  -0.033   2.381  0.00  0.00    -0.485 OA
BRANCH  23  24
ATOM     24  C   UNL     1      -1.246   0.270   2.957  0.00  0.00    +0.284 C 
BRANCH  24  25
ATOM     25  C   UNL     1      -1.046   1.011   4.254  0.00  0.00    +0.078 A 
ATOM     26  C   UNL     1       0.235   1.290   4.691  0.00  0.00    +0.027 A 
ATOM     27  C   UNL     1       0.409   1.972   5.886  0.00  0.00    +0.003 A 
ATOM     28  C   UNL     1      -0.719   2.349   6.599  0.00  0.00    +0.020 A 
ATOM     29  C   UNL     1      -1.968   2.036   6.100  0.00  0.00    +0.111 A 
ATOM     30  N   UNL     1      -2.095   1.391   4.957  0.00  0.00    -0.256 NA
ENDBRANCH  24  25
ENDBRANCH  23  24
ENDBRANCH   7  23
TORSDOF 4
