REMARK  Name = ZINC36591126
REMARK  21 active torsions:
REMARK  status: ('A' for Active; 'I' for Inactive)
REMARK    1  A    between atoms: C_1  and  C_2
REMARK    2  A    between atoms: C_2  and  C_3
REMARK    3  A    between atoms: C_2  and  C_4
REMARK    4  A    between atoms: C_2  and  C_5
REMARK    5  A    between atoms: C_5  and  C_6
REMARK    6  A    between atoms: C_6  and  C_7
REMARK    7  A    between atoms: C_6  and  C_8
REMARK    8  A    between atoms: C_6  and  N_9
REMARK    9  A    between atoms: C_10  and  C_12
REMARK   10  A    between atoms: C_12  and  C_14
REMARK   11  A    between atoms: C_12  and  N_23
REMARK   12  A    between atoms: C_15  and  O_22
REMARK   13  A    between atoms: C_17  and  O_21
REMARK   14  A    between atoms: C_19  and  O_20
REMARK   15  A    between atoms: N_23  and  C_36
REMARK   16  A    between atoms: C_24  and  C_26
REMARK   17  A    between atoms: C_26  and  N_27
REMARK   18  A    between atoms: C_28  and  C_30
REMARK   19  A    between atoms: C_36  and  C_37
REMARK   20  A    between atoms: C_36  and  C_38
REMARK   21  A    between atoms: C_36  and  C_39
REMARK                            x       y       z     vdW  Elec       q    Type
REMARK                         _______ _______ _______ _____ _____    ______ ____
ROOT
ATOM      1  C   UNL     1       4.277   0.082  -3.455  0.00  0.00    +0.200 C 
ENDROOT
BRANCH   1   2
ATOM      2  C   UNL     1       3.621  -1.160  -4.001  0.00  0.00    +0.065 A 
ATOM      3  C   UNL     1       4.231  -2.395  -3.837  0.00  0.00    +0.129 A 
ATOM      4  C   UNL     1       3.628  -3.538  -4.340  0.00  0.00    +0.091 A 
ATOM      5  C   UNL     1       2.415  -3.447  -5.006  0.00  0.00    +0.124 A 
ATOM      6  C   UNL     1       1.805  -2.212  -5.169  0.00  0.00    +0.091 A 
ATOM      7  C   UNL     1       2.406  -1.069  -4.663  0.00  0.00    +0.129 A 
BRANCH   7   8
ATOM      8  O   UNL     1       1.806   0.140  -4.819  0.00  0.00    -0.506 OA
ATOM      9  H   UNL     1       2.058   0.602  -5.630  0.00  0.00    +0.292 HD
ENDBRANCH   7   8
BRANCH   5  10
ATOM     10  O   UNL     1       1.824  -4.567  -5.499  0.00  0.00    -0.507 OA
ATOM     11  H   UNL     1       1.225  -5.002  -4.877  0.00  0.00    +0.292 HD
ENDBRANCH   5  10
BRANCH   3  12
ATOM     12  O   UNL     1       5.419  -2.485  -3.184  0.00  0.00    -0.506 OA
ATOM     13  H   UNL     1       5.337  -2.699  -2.245  0.00  0.00    +0.292 HD
ENDBRANCH   3  12
ENDBRANCH   1   2
BRANCH   1  15
ATOM     14  N   UNL     1       4.243  -0.513  -1.055  0.00  0.00    -0.308 N 
ATOM     15  C   UNL     1       4.970  -0.245  -2.158  0.00  0.00    +0.239 C 
ATOM     16  O   UNL     1       6.181  -0.266  -2.105  0.00  0.00    -0.273 OA
ATOM     17  H   UNL     1       3.274  -0.496  -1.096  0.00  0.00    +0.149 HD
BRANCH  14  18
ATOM     18  C   UNL     1       4.917  -0.831   0.207  0.00  0.00    +0.030 C 
ATOM     19  C   UNL     1       5.980   0.230   0.498  0.00  0.00    +0.031 C 
ATOM     20  C   UNL     1       5.582  -2.204   0.098  0.00  0.00    +0.031 C 
BRANCH  18  21
ATOM     21  C   UNL     1       3.891  -0.850   1.342  0.00  0.00    +0.031 C 
BRANCH  21  23
ATOM     22  C   UNL     1       1.859   0.076   0.220  0.00  0.00    +0.010 C 
ATOM     23  C   UNL     1       2.976   0.371   1.224  0.00  0.00    -0.036 C 
ATOM     24  C   UNL     1       3.791   1.573   0.742  0.00  0.00    +0.010 C 
ATOM     25  C   UNL     1       2.364   0.684   2.590  0.00  0.00    +0.010 C 
ENDBRANCH  21  23
ENDBRANCH  18  21
ENDBRANCH  14  18
ENDBRANCH   1  15
BRANCH   1  26
ATOM     26  N   UNL     1       5.259   0.581  -4.421  0.00  0.00    -0.279 N 
ATOM     27  C   UNL     1       5.483  -0.096  -5.565  0.00  0.00    +0.234 C 
ATOM     28  O   UNL     1       4.902  -1.139  -5.776  0.00  0.00    -0.274 OA
BRANCH  26  29
ATOM     29  C   UNL     1       5.998   1.815  -4.144  0.00  0.00    +0.030 C 
ATOM     30  C   UNL     1       5.423   2.483  -2.893  0.00  0.00    +0.031 C 
ATOM     31  C   UNL     1       7.474   1.485  -3.913  0.00  0.00    +0.031 C 
ATOM     32  C   UNL     1       5.868   2.766  -5.335  0.00  0.00    +0.031 C 
ENDBRANCH  26  29
BRANCH  27  33
ATOM     33  C   UNL     1       6.455   0.444  -6.582  0.00  0.00    +0.200 C 
BRANCH  33  34
ATOM     34  N   UNL     1       6.828  -0.622  -7.515  0.00  0.00    -0.303 N 
ATOM     35  C   UNL     1       7.693  -0.369  -8.517  0.00  0.00    +0.244 C 
ATOM     36  O   UNL     1       8.165   0.744  -8.646  0.00  0.00    -0.270 OA
ATOM     37  H   UNL     1       6.452  -1.510  -7.412  0.00  0.00    +0.150 HD
BRANCH  35  38
ATOM     38  C   UNL     1       8.069  -1.444  -9.459  0.00  0.00    +0.037 A 
ATOM     39  C   UNL     1       7.525  -2.722  -9.317  0.00  0.00    +0.013 A 
ATOM     40  C   UNL     1       7.880  -3.721 -10.200  0.00  0.00    +0.001 A 
ATOM     41  C   UNL     1       8.773  -3.459 -11.224  0.00  0.00    +0.000 A 
ATOM     42  C   UNL     1       9.316  -2.195 -11.370  0.00  0.00    +0.001 A 
ATOM     43  C   UNL     1       8.965  -1.185 -10.497  0.00  0.00    +0.013 A 
ENDBRANCH  35  38
ENDBRANCH  33  34
ENDBRANCH  27  33
ENDBRANCH   1  26
TORSDOF 13
