REMARK  Name = ZINC50949512
REMARK  7 active torsions:
REMARK  status: ('A' for Active; 'I' for Inactive)
REMARK    1  A    between atoms: C_1  and  C_2
REMARK    2  A    between atoms: C_2  and  C_4
REMARK    3  A    between atoms: C_2  and  N_20
REMARK    4  A    between atoms: C_6  and  C_7
REMARK    5  A    between atoms: C_6  and  C_9
REMARK    6  A    between atoms: N_11  and  C_12
REMARK    7  A    between atoms: C_21  and  C_23
REMARK                            x       y       z     vdW  Elec       q    Type
REMARK                         _______ _______ _______ _____ _____    ______ ____
ROOT
ATOM      1  C   UNL     1       0.710  -0.486  -1.238  0.00  0.00    +0.198 C 
ATOM      2  O   UNL     1       0.176  -0.254  -2.449  0.00  0.00    -0.289 OA
ATOM      3  C   UNL     1       1.886  -1.167  -1.130  0.00  0.00    +0.158 C 
ENDROOT
BRANCH   3   4
ATOM      4  C   UNL     1       2.570  -1.648  -2.339  0.00  0.00    +0.262 C 
ATOM      5  O   UNL     1       2.087  -1.438  -3.436  0.00  0.00    -0.269 OA
ATOM      6  N   UNL     1       3.733  -2.321  -2.233  0.00  0.00    -0.281 N 
ATOM      7  H   UNL     1       4.153  -2.430  -1.366  0.00  0.00    +0.155 HD
BRANCH   6   8
ATOM      8  C   UNL     1       4.334  -2.863  -3.375  0.00  0.00    +0.035 A 
ATOM      9  C   UNL     1       4.252  -2.194  -4.589  0.00  0.00    +0.026 A 
ATOM     10  C   UNL     1       4.846  -2.729  -5.714  0.00  0.00    +0.041 A 
ATOM     11  C   UNL     1       5.524  -3.934  -5.634  0.00  0.00    +0.142 A 
ATOM     12  C   UNL     1       5.608  -4.604  -4.424  0.00  0.00    +0.078 A 
ATOM     13  C   UNL     1       5.019  -4.068  -3.294  0.00  0.00    +0.046 A 
ATOM     14 CL   UNL     1       6.459  -6.114  -4.326  0.00  0.00    -0.081 Cl
ATOM     15  F   UNL     1       6.104  -4.457  -6.736  0.00  0.00    -0.204 F 
ENDBRANCH   6   8
ENDBRANCH   3   4
BRANCH   1  17
ATOM     16  C   UNL     1      -0.013   1.537   0.001  0.00  0.00    +0.036 C 
ATOM     17  C   UNL     1       0.009   0.007   0.002  0.00  0.00    +0.142 C 
BRANCH  17  18
ATOM     18  N   UNL     1      -1.365  -0.500   0.020  0.00  0.00    -0.301 N 
ATOM     19  C   UNL     1      -2.017  -0.638   1.192  0.00  0.00    +0.251 C 
ATOM     20  O   UNL     1      -1.464  -0.340   2.234  0.00  0.00    -0.270 OA
ATOM     21  H   UNL     1      -1.806  -0.738  -0.811  0.00  0.00    +0.150 HD
BRANCH  19  22
ATOM     22  C   UNL     1      -3.392  -1.146   1.210  0.00  0.00    +0.074 A 
ATOM     23  C   UNL     1      -4.232  -1.355   2.293  0.00  0.00    +0.021 A 
ATOM     24  C   UNL     1      -5.480  -1.846   1.995  0.00  0.00    +0.008 A 
ATOM     25  C   UNL     1      -5.801  -2.087   0.700  0.00  0.00    +0.046 A 
ATOM     26  S   UNL     1      -4.422  -1.649  -0.155  0.00  0.00    -0.092 S 
ENDBRANCH  19  22
ENDBRANCH  17  18
ENDBRANCH   1  17
BRANCH   3  27
ATOM     27  C   UNL     1       2.455  -1.414   0.160  0.00  0.00    +0.108 C 
ATOM     28  N   UNL     1       2.907  -1.610   1.184  0.00  0.00    -0.191 NA
ENDBRANCH   3  27
TORSDOF 6
