REMARK  Name = ZINC12498080
REMARK  11 active torsions:
REMARK  status: ('A' for Active; 'I' for Inactive)
REMARK    1  A    between atoms: C_1  and  C_2
REMARK    2  A    between atoms: C_3  and  C_28
REMARK    3  A    between atoms: C_5  and  N_10
REMARK    4  A    between atoms: C_6  and  C_7
REMARK    5  A    between atoms: N_10  and  C_11
REMARK    6  A    between atoms: C_11  and  N_13
REMARK    7  A    between atoms: C_14  and  C_16
REMARK    8  A    between atoms: C_16  and  C_17
REMARK    9  A    between atoms: C_17  and  C_18
REMARK   10  A    between atoms: C_18  and  O_19
REMARK   11  A    between atoms: O_19  and  C_20
REMARK                            x       y       z     vdW  Elec       q    Type
REMARK                         _______ _______ _______ _____ _____    ______ ____
ROOT
ATOM      1  C   UNL     1       6.526  -4.783  -0.089  0.00  0.00    +0.141 C 
ATOM      2  S   UNL     1       7.868  -3.720  -0.097  0.00  0.00    -0.018 S 
ENDROOT
BRANCH   1   3
ATOM      3  N   UNL     1       5.273  -4.286  -0.074  0.00  0.00    -0.268 N 
ATOM      4  C   UNL     1       5.077  -2.953  -0.065  0.00  0.00    +0.219 C 
ATOM      5  O   UNL     1       6.028  -2.200  -0.070  0.00  0.00    -0.275 OA
ATOM      6  H   UNL     1       4.513  -4.888  -0.070  0.00  0.00    +0.156 HD
BRANCH   4   7
ATOM      7  C   UNL     1       3.676  -2.397  -0.048  0.00  0.00    +0.099 C 
BRANCH   7   8
ATOM      8  C   UNL     1       3.734  -0.868  -0.040  0.00  0.00    +0.050 C 
BRANCH   8   9
ATOM      9  C   UNL     1       2.312  -0.304  -0.023  0.00  0.00    +0.229 C 
BRANCH   9  10
ATOM     10  O   UNL     1       2.366   1.123  -0.015  0.00  0.00    -0.490 OA
BRANCH  10  11
ATOM     11  C   UNL     1       1.179   1.786   0.000  0.00  0.00    +0.139 A 
ATOM     12  C   UNL     1      -0.013   1.076   0.008  0.00  0.00    +0.048 A 
ATOM     13  C   UNL     1      -1.218   1.751   0.017  0.00  0.00    +0.023 A 
ATOM     14  C   UNL     1      -1.238   3.134   0.031  0.00  0.00    +0.043 A 
ATOM     15  C   UNL     1      -0.051   3.845   0.023  0.00  0.00    +0.043 A 
ATOM     16  C   UNL     1       1.157   3.174   0.008  0.00  0.00    +0.084 A 
ATOM     17 CL   UNL     1       2.647   4.066  -0.002  0.00  0.00    -0.080 Cl
ATOM     18 CL   UNL     1      -2.754   3.979   0.049  0.00  0.00    -0.083 Cl
ENDBRANCH  10  11
ENDBRANCH   9  10
ENDBRANCH   8   9
ENDBRANCH   7   8
ENDBRANCH   4   7
ENDBRANCH   1   3
BRANCH   1  19
ATOM     19  N   UNL     1       6.722  -6.116  -0.099  0.00  0.00    -0.291 N 
ATOM     20  H   UNL     1       5.962  -6.718  -0.095  0.00  0.00    +0.154 HD
BRANCH  19  25
ATOM     21  C   UNL     1      10.385  -9.610  -0.155  0.00  0.00    +0.045 C 
ATOM     22  C   UNL     1       9.833  -8.207  -0.142  0.00  0.00    -0.027 A 
ATOM     23  C   UNL     1      10.645  -7.135  -0.144  0.00  0.00    -0.008 A 
ATOM     24  S   UNL     1       9.510  -5.762  -0.132  0.00  0.00    -0.078 S 
ATOM     25  C   UNL     1       8.010  -6.627  -0.115  0.00  0.00    +0.084 A 
ATOM     26  C   UNL     1       8.411  -7.958  -0.126  0.00  0.00    +0.068 A 
ATOM     27  C   UNL     1      12.151  -7.102  -0.158  0.00  0.00    +0.052 C 
BRANCH  26  28
ATOM     28  C   UNL     1       7.439  -9.055  -0.122  0.00  0.00    +0.244 C 
ATOM     29  O   UNL     1       7.024  -9.504  -1.174  0.00  0.00    -0.270 OA
ATOM     30  N   UNL     1       7.003  -9.565   1.047  0.00  0.00    -0.325 N 
ATOM     31  H   UNL     1       7.334  -9.206   1.886  0.00  0.00    +0.145 HD
ATOM     32  H   UNL     1       6.359 -10.290   1.050  0.00  0.00    +0.145 HD
ENDBRANCH  26  28
ENDBRANCH  19  25
ENDBRANCH   1  19
TORSDOF 9
