REMARK  Name = ZINC21256864
REMARK  9 active torsions:
REMARK  status: ('A' for Active; 'I' for Inactive)
REMARK    1  A    between atoms: C_1  and  C_2
REMARK    2  A    between atoms: C_2  and  C_3
REMARK    3  A    between atoms: C_2  and  O_4
REMARK    4  A    between atoms: O_4  and  C_5
REMARK    5  A    between atoms: C_8  and  C_13
REMARK    6  A    between atoms: C_10  and  O_11
REMARK    7  A    between atoms: O_11  and  C_12
REMARK    8  A    between atoms: C_18  and  C_28
REMARK    9  A    between atoms: C_32  and  O_34
REMARK                            x       y       z     vdW  Elec       q    Type
REMARK                         _______ _______ _______ _____ _____    ______ ____
ROOT
ATOM      1  C   UNL     1      -2.772   4.179  -2.726  0.00  0.00    +0.032 C 
ATOM      2  C   UNL     1      -2.039   2.839  -2.727  0.00  0.00    +0.059 C 
ATOM      3  C   UNL     1      -2.011   2.263  -1.321  0.00  0.00    +0.017 C 
ATOM      4  C   UNL     1      -3.027   2.490  -0.471  0.00  0.00    +0.036 C 
ATOM      5  C   UNL     1      -3.131   1.972   0.938  0.00  0.00    +0.136 C 
ATOM      6  N   UNL     1      -2.156   0.961   1.287  0.00  0.00    -0.331 N 
ATOM      7  C   UNL     1      -0.794   1.258   1.320  0.00  0.00    +0.049 A 
ATOM      8  C   UNL     1      -0.070   1.210   2.501  0.00  0.00    +0.025 A 
ATOM      9  C   UNL     1       1.269   1.559   2.491  0.00  0.00    +0.002 A 
ATOM     10  C   UNL     1       1.881   1.956   1.316  0.00  0.00    +0.002 A 
ATOM     11  C   UNL     1       1.165   1.988   0.132  0.00  0.00    +0.025 A 
ATOM     12  C   UNL     1      -0.169   1.617   0.136  0.00  0.00    +0.052 A 
ATOM     13  N   UNL     1      -0.915   1.517  -1.033  0.00  0.00    -0.316 N 
ATOM     14  C   UNL     1      -4.125   3.288  -0.872  0.00  0.00    +0.163 C 
ATOM     15  O   UNL     1      -5.041   3.458  -0.091  0.00  0.00    -0.292 OA
ATOM     16  C   UNL     1      -4.199   3.930  -2.224  0.00  0.00    +0.088 C 
ATOM     17  H   UNL     1      -2.485  -0.059   1.532  0.00  0.00    +0.147 HD
ATOM     18  H   UNL     1      -0.557   0.764  -1.751  0.00  0.00    +0.152 HD
ENDROOT
BRANCH   1  22
ATOM     19  C   UNL     1      -2.886   5.769  -6.694  0.00  0.00    +0.162 A 
ATOM     20  C   UNL     1      -3.465   4.540  -6.420  0.00  0.00    +0.050 A 
ATOM     21  C   UNL     1      -3.427   4.029  -5.136  0.00  0.00    +0.008 A 
ATOM     22  C   UNL     1      -2.811   4.741  -4.123  0.00  0.00    -0.040 A 
ATOM     23  C   UNL     1      -2.236   5.970  -4.389  0.00  0.00    +0.053 A 
ATOM     24  C   UNL     1      -2.267   6.486  -5.675  0.00  0.00    +0.162 A 
BRANCH  24  25
ATOM     25  O   UNL     1      -1.697   7.692  -5.939  0.00  0.00    -0.491 OA
ATOM     26  C   UNL     1      -1.079   8.372  -4.844  0.00  0.00    +0.277 C 
ENDBRANCH  24  25
BRANCH  19  27
ATOM     27  O   UNL     1      -2.924   6.274  -7.957  0.00  0.00    -0.486 OA
BRANCH  27  29
ATOM     28  C   UNL     1      -5.054   5.661  -8.919  0.00  0.00    +0.051 C 
ATOM     29  C   UNL     1      -3.538   5.463  -8.961  0.00  0.00    +0.167 C 
ATOM     30  C   UNL     1      -3.008   5.869 -10.338  0.00  0.00    +0.051 C 
ENDBRANCH  27  29
ENDBRANCH  19  27
ENDBRANCH   1  22
BRANCH   5  31
ATOM     31  C   UNL     1      -2.972   3.136   1.882  0.00  0.00    -0.019 A 
ATOM     32  C   UNL     1      -4.027   3.519   2.690  0.00  0.00    +0.006 A 
ATOM     33  C   UNL     1      -3.882   4.583   3.561  0.00  0.00    +0.004 A 
ATOM     34  C   UNL     1      -2.687   5.272   3.619  0.00  0.00    +0.045 A 
ATOM     35  C   UNL     1      -1.629   4.893   2.806  0.00  0.00    +0.117 A 
ATOM     36  C   UNL     1      -1.774   3.822   1.937  0.00  0.00    +0.051 A 
BRANCH  35  37
ATOM     37  O   UNL     1      -0.451   5.570   2.861  0.00  0.00    -0.507 OA
ATOM     38  H   UNL     1       0.387   5.269   2.216  0.00  0.00    +0.292 HD
ENDBRANCH  35  37
ENDBRANCH   5  31
TORSDOF 6
