REMARK  Name = ZINC52907492
REMARK  4 active torsions:
REMARK  status: ('A' for Active; 'I' for Inactive)
REMARK    1  A    between atoms: C_3  and  O_11
REMARK    2  A    between atoms: C_4  and  C_8
REMARK    3  A    between atoms: O_11  and  C_12
REMARK    4  A    between atoms: C_15  and  N_19
REMARK                            x       y       z     vdW  Elec       q    Type
REMARK                         _______ _______ _______ _____ _____    ______ ____
ROOT
ATOM      1  C   UNL     1      -0.017   1.383   0.054  0.00  0.00    +0.005 A 
ATOM      2  C   UNL     1       1.165   2.092  -0.041  0.00  0.00    +0.047 A 
ATOM      3  C   UNL     1       2.381   1.435   0.073  0.00  0.00    +0.140 A 
ATOM      4  C   UNL     1       2.406   0.050   0.286  0.00  0.00    +0.073 A 
ATOM      5  C   UNL     1       1.204  -0.655   0.381  0.00  0.00    +0.055 A 
ATOM      6  C   UNL     1       0.002   0.015   0.264  0.00  0.00    +0.021 A 
ATOM      7 CL   UNL     1       1.221  -2.371   0.644  0.00  0.00    -0.083 Cl
ENDROOT
BRANCH   4   8
ATOM      8  C   UNL     1       3.695  -0.659   0.409  0.00  0.00    +0.099 C 
ATOM      9  N   UNL     1       4.050  -1.559  -0.507  0.00  0.00    -0.387 N 
ATOM     10  N   UNL     1       4.503  -0.399   1.437  0.00  0.00    -0.344 N 
ATOM     11  H   UNL     1       3.462  -1.748  -1.255  0.00  0.00    +0.157 HD
ATOM     12  H   UNL     1       4.244   0.256   2.103  0.00  0.00    +0.144 HD
ATOM     13  H   UNL     1       5.350  -0.865   1.517  0.00  0.00    +0.144 HD
ATOM     14  H   UNL     1       4.897  -2.026  -0.426  0.00  0.00    +0.157 HD
ENDBRANCH   4   8
BRANCH   3  15
ATOM     15  O   UNL     1       3.542   2.131  -0.021  0.00  0.00    -0.454 OA
BRANCH  15  16
ATOM     16  C   UNL     1       3.469   3.485  -0.118  0.00  0.00    +0.147 A 
ATOM     17  C   UNL     1       3.474   4.093  -1.365  0.00  0.00    +0.050 A 
ATOM     18  C   UNL     1       3.399   5.469  -1.461  0.00  0.00    +0.036 A 
ATOM     19  C   UNL     1       3.319   6.241  -0.316  0.00  0.00    +0.128 A 
ATOM     20  C   UNL     1       3.314   5.638   0.928  0.00  0.00    +0.056 A 
ATOM     21  C   UNL     1       3.383   4.261   1.030  0.00  0.00    +0.085 A 
ATOM     22 CL   UNL     1       3.369   3.503   2.592  0.00  0.00    -0.080 Cl
BRANCH  19  23
ATOM     23  N   UNL     1       3.240   7.715  -0.422  0.00  0.00    +0.056 N 
ATOM     24  O   UNL     1       3.245   8.243  -1.510  0.00  0.00    -0.126 OA
ATOM     25  O   UNL     1       3.170   8.390   0.578  0.00  0.00    -0.126 OA
ENDBRANCH  19  23
ENDBRANCH  15  16
ENDBRANCH   3  15
TORSDOF 4
