REMARK  Name = ZINC08964019
REMARK  11 active torsions:
REMARK  status: ('A' for Active; 'I' for Inactive)
REMARK    1  A    between atoms: C_1  and  C_2
REMARK    2  A    between atoms: N_4  and  C_5
REMARK    3  A    between atoms: C_9  and  N_11
REMARK    4  A    between atoms: C_12  and  C_14
REMARK    5  A    between atoms: N_16  and  C_17
REMARK    6  A    between atoms: C_17  and  C_18
REMARK    7  A    between atoms: C_18  and  C_20
REMARK    8  A    between atoms: C_18  and  N_60
REMARK    9  A    between atoms: N_28  and  C_29
REMARK   10  A    between atoms: C_30  and  N_60
REMARK   11  A    between atoms: C_31  and  N_60
REMARK                            x       y       z     vdW  Elec       q    Type
REMARK                         _______ _______ _______ _____ _____    ______ ____
ROOT
ATOM      1  C   UNL     1      -2.085   2.936  -0.730  0.00  0.00    +0.299 C 
ATOM      2  O   UNL     1      -1.987   4.125  -0.510  0.00  0.00    -0.265 OA
ATOM      3  N   UNL     1      -1.103   2.096  -0.345  0.00  0.00    -0.309 N 
ATOM      4  H   UNL     1      -1.182   1.146  -0.521  0.00  0.00    +0.149 HD
ENDROOT
BRANCH   1   6
ATOM      5  N   UNL     1      -4.275   3.242  -1.811  0.00  0.00    -0.278 N 
ATOM      6  C   UNL     1      -3.293   2.403  -1.427  0.00  0.00    +0.303 C 
ATOM      7  O   UNL     1      -3.392   1.213  -1.647  0.00  0.00    -0.265 OA
ATOM      8  H   UNL     1      -4.168   4.199  -1.695  0.00  0.00    +0.155 HD
BRANCH   5  13
ATOM      9  C   UNL     1      -6.555   1.134  -3.785  0.00  0.00    +0.035 A 
ATOM     10  C   UNL     1      -7.776   1.732  -3.498  0.00  0.00    +0.023 A 
ATOM     11  C   UNL     1      -7.830   2.826  -2.655  0.00  0.00    +0.004 A 
ATOM     12  C   UNL     1      -6.671   3.328  -2.095  0.00  0.00    +0.023 A 
ATOM     13  C   UNL     1      -5.447   2.734  -2.378  0.00  0.00    +0.036 A 
ATOM     14  C   UNL     1      -5.389   1.639  -3.230  0.00  0.00    +0.046 A 
BRANCH   9  18
ATOM     15  C   UNL     1      -7.388  -1.323  -6.513  0.00  0.00    +0.109 C 
ATOM     16  C   UNL     1      -7.373  -0.080  -5.661  0.00  0.00    +0.214 C 
ATOM     17  O   UNL     1      -8.145   0.826  -5.896  0.00  0.00    -0.276 OA
ATOM     18  N   UNL     1      -6.502   0.026  -4.638  0.00  0.00    -0.286 N 
ATOM     19  H   UNL     1      -5.838  -0.666  -4.493  0.00  0.00    +0.155 HD
ENDBRANCH   9  18
ENDBRANCH   5  13
ENDBRANCH   1   6
BRANCH   3  20
ATOM     20  C   UNL     1       0.085   2.620   0.333  0.00  0.00    +0.094 C 
BRANCH  20  21
ATOM     21  C   UNL     1       0.948   1.456   0.823  0.00  0.00    -0.021 C 
BRANCH  21  22
ATOM     22  C   UNL     1       2.204   1.994   1.457  0.00  0.00    -0.059 A 
ATOM     23  C   UNL     1       2.166   2.514   2.738  0.00  0.00    +0.004 A 
ATOM     24  C   UNL     1       3.314   3.005   3.323  0.00  0.00    +0.023 A 
ATOM     25  C   UNL     1       4.520   2.991   2.623  0.00  0.00    +0.033 A 
ATOM     26  C   UNL     1       4.547   2.467   1.336  0.00  0.00    -0.025 A 
ATOM     27  C   UNL     1       3.397   1.973   0.757  0.00  0.00    +0.007 A 
ATOM     28  C   UNL     1       5.970   2.565   0.822  0.00  0.00    +0.056 C 
ATOM     29  C   UNL     1       6.784   2.814   2.112  0.00  0.00    +0.109 C 
ATOM     30  N   UNL     1       5.788   3.442   3.007  0.00  0.00    -0.332 N 
ATOM     31  C   UNL     1       6.061   3.112   4.412  0.00  0.00    +0.129 C 
ENDBRANCH  21  22
BRANCH  21  34
ATOM     32  C   UNL     1      -0.772   1.516   2.526  0.00  0.00    -0.096 C 
ATOM     33  C   UNL     1      -0.470  -0.474   1.181  0.00  0.00    -0.096 C 
ATOM     34  N   UNL     1       0.215   0.662   1.832  0.00  0.00    +0.382 N 
ATOM     35  H   UNL     1       0.884   0.299   2.521  0.00  0.00    -0.082 HD
ENDBRANCH  21  34
ENDBRANCH  20  21
ENDBRANCH   3  20
TORSDOF 7
