REMARK  Name = ZINC14832248
REMARK  13 active torsions:
REMARK  status: ('A' for Active; 'I' for Inactive)
REMARK    1  A    between atoms: C_1  and  C_2
REMARK    2  A    between atoms: C_2  and  C_3
REMARK    3  A    between atoms: C_3  and  C_5
REMARK    4  A    between atoms: C_3  and  C_6
REMARK    5  A    between atoms: C_9  and  O_13
REMARK    6  A    between atoms: O_13  and  C_14
REMARK    7  A    between atoms: C_14  and  C_15
REMARK    8  A    between atoms: N_17  and  N_18
REMARK    9  A    between atoms: C_19  and  C_21
REMARK   10  A    between atoms: C_21  and  C_22
REMARK   11  A    between atoms: C_22  and  C_23
REMARK   12  A    between atoms: N_25  and  C_26
REMARK   13  A    between atoms: C_31  and  C_32
REMARK                            x       y       z     vdW  Elec       q    Type
REMARK                         _______ _______ _______ _____ _____    ______ ____
ROOT
ATOM      1  N   UNL     1      -5.251   1.702  11.194  0.00  0.00    -0.234 N 
ATOM      2  C   UNL     1      -5.771   0.877  12.124  0.00  0.00    +0.230 C 
ATOM      3  O   UNL     1      -5.630  -0.323  12.017  0.00  0.00    -0.274 OA
ATOM      4  H   UNL     1      -5.364   2.662  11.279  0.00  0.00    +0.173 HD
ENDROOT
BRANCH   1   7
ATOM      5  C   UNL     1      -4.027   1.999   9.173  0.00  0.00    +0.267 C 
ATOM      6  O   UNL     1      -4.168   3.199   9.280  0.00  0.00    -0.271 OA
ATOM      7  N   UNL     1      -4.547   1.174  10.103  0.00  0.00    -0.232 N 
ATOM      8  H   UNL     1      -4.435   0.214  10.018  0.00  0.00    +0.173 HD
BRANCH   5   9
ATOM      9  C   UNL     1      -3.271   1.431   8.000  0.00  0.00    +0.326 C 
BRANCH   9  10
ATOM     10  O   UNL     1      -2.822   2.497   7.161  0.00  0.00    -0.482 OA
BRANCH  10  14
ATOM     11  C   UNL     1      -0.683   1.455   3.790  0.00  0.00    -0.043 A 
ATOM     12  C   UNL     1      -1.148   0.472   4.645  0.00  0.00    +0.007 A 
ATOM     13  C   UNL     1      -1.864   0.819   5.774  0.00  0.00    +0.047 A 
ATOM     14  C   UNL     1      -2.118   2.154   6.051  0.00  0.00    +0.135 A 
ATOM     15  C   UNL     1      -1.651   3.139   5.192  0.00  0.00    +0.060 A 
ATOM     16  C   UNL     1      -0.930   2.787   4.066  0.00  0.00    +0.022 A 
ATOM     17 BR   UNL     1      -1.994   4.961   5.565  0.00  0.00    -0.047 Br
BRANCH  11  18
ATOM     18  C   UNL     1       0.098   1.074   2.559  0.00  0.00    +0.016 C 
ATOM     19  C   UNL     1       1.489   1.708   2.622  0.00  0.00    +0.012 C 
BRANCH  18  21
ATOM     20  C   UNL     1       0.091   1.082   0.061  0.00  0.00    +0.004 C 
ATOM     21  C   UNL     1      -0.636   1.575   1.314  0.00  0.00    +0.004 C 
ENDBRANCH  18  21
ENDBRANCH  11  18
ENDBRANCH  10  14
ENDBRANCH   9  10
ENDBRANCH   5   9
ENDBRANCH   1   7
BRANCH   2  22
ATOM     22  C   UNL     1      -6.527   1.445  13.297  0.00  0.00    +0.106 C 
BRANCH  22  23
ATOM     23  C   UNL     1      -7.008   0.303  14.195  0.00  0.00    +0.105 C 
BRANCH  23  24
ATOM     24  C   UNL     1      -7.764   0.871  15.368  0.00  0.00    +0.218 C 
ATOM     25  O   UNL     1      -7.905   2.071  15.475  0.00  0.00    -0.275 OA
ATOM     26  N   UNL     1      -8.284   0.046  16.298  0.00  0.00    -0.285 N 
ATOM     27  H   UNL     1      -8.242  -0.915  16.172  0.00  0.00    +0.155 HD
BRANCH  26  28
ATOM     28  C   UNL     1      -8.886   0.575  17.445  0.00  0.00    +0.038 A 
ATOM     29  C   UNL     1      -8.524   1.836  17.901  0.00  0.00    +0.023 A 
ATOM     30  C   UNL     1      -9.120   2.357  19.034  0.00  0.00    +0.003 A 
ATOM     31  C   UNL     1     -10.075   1.623  19.714  0.00  0.00    +0.020 A 
ATOM     32  C   UNL     1     -10.438   0.367  19.262  0.00  0.00    +0.046 A 
ATOM     33  C   UNL     1      -9.849  -0.157  18.126  0.00  0.00    -0.011 A 
ATOM     34  C   UNL     1     -10.248  -1.523  17.631  0.00  0.00    +0.047 C 
ATOM     35 CL   UNL     1     -11.637  -0.550  20.119  0.00  0.00    -0.083 Cl
ENDBRANCH  26  28
ENDBRANCH  23  24
ENDBRANCH  22  23
ENDBRANCH   2  22
TORSDOF 10
