REMARK  Name = ZINC66952877
REMARK  5 active torsions:
REMARK  status: ('A' for Active; 'I' for Inactive)
REMARK    1  A    between atoms: C_1  and  N_2
REMARK    2  A    between atoms: C_5  and  N_12
REMARK    3  A    between atoms: N_15  and  C_16
REMARK    4  A    between atoms: C_16  and  C_17
REMARK    5  A    between atoms: C_17  and  O_27
REMARK                            x       y       z     vdW  Elec       q    Type
REMARK                         _______ _______ _______ _____ _____    ______ ____
ROOT
ATOM      1  N   UNL     1      -4.762  -1.450   0.186  0.00  0.00    -0.269 N 
ATOM      2  C   UNL     1      -5.611  -2.486   0.030  0.00  0.00    +0.304 C 
ATOM      3  O   UNL     1      -5.186  -3.625   0.024  0.00  0.00    -0.253 OA
ATOM      4  N   UNL     1      -6.931  -2.258  -0.121  0.00  0.00    -0.296 N 
ATOM      5  H   UNL     1      -5.108  -0.547   0.266  0.00  0.00    +0.156 HD
ATOM      6  H   UNL     1      -7.270  -1.350  -0.116  0.00  0.00    +0.150 HD
ENDROOT
BRANCH   1  11
ATOM      7  C   UNL     1      -1.021  -4.916  -2.000  0.00  0.00    +0.156 C 
ATOM      8  N   UNL     1      -0.614  -3.857  -1.073  0.00  0.00    -0.277 N 
ATOM      9  C   UNL     1      -1.455  -2.929  -0.460  0.00  0.00    +0.092 A 
ATOM     10  C   UNL     1      -2.822  -2.708  -0.509  0.00  0.00    +0.053 A 
ATOM     11  C   UNL     1      -3.381  -1.678   0.233  0.00  0.00    +0.037 A 
ATOM     12  C   UNL     1      -2.570  -0.871   1.023  0.00  0.00    +0.027 A 
ATOM     13  C   UNL     1      -1.208  -1.090   1.073  0.00  0.00    +0.050 A 
ATOM     14  C   UNL     1      -0.644  -2.118   0.333  0.00  0.00    +0.157 A 
ATOM     15  O   UNL     1       0.630  -2.559   0.188  0.00  0.00    -0.407 OA
ATOM     16  C   UNL     1       0.642  -3.605  -0.652  0.00  0.00    +0.421 A 
ATOM     17  O   UNL     1       1.631  -4.228  -0.985  0.00  0.00    -0.223 OA
ENDBRANCH   1  11
BRANCH   4  18
ATOM     18  C   UNL     1      -7.853  -3.384  -0.290  0.00  0.00    +0.145 C 
BRANCH  18  19
ATOM     19  C   UNL     1      -9.272  -2.853  -0.506  0.00  0.00    +0.107 C 
ATOM     20  C   UNL     1      -9.657  -1.955   0.668  0.00  0.00    +0.041 C 
ATOM     21  C   UNL     1     -11.146  -1.611   0.546  0.00  0.00    +0.008 C 
ATOM     22  C   UNL     1     -11.957  -2.874   0.829  0.00  0.00    +0.035 C 
ATOM     23  C   UNL     1     -11.460  -4.022  -0.011  0.00  0.00    -0.041 A 
ATOM     24  C   UNL     1     -10.225  -4.013  -0.620  0.00  0.00    -0.011 A 
ATOM     25  C   UNL     1      -9.824  -5.107  -1.376  0.00  0.00    +0.007 A 
ATOM     26  C   UNL     1     -10.653  -6.200  -1.524  0.00  0.00    +0.000 A 
ATOM     27  C   UNL     1     -11.894  -6.207  -0.915  0.00  0.00    +0.000 A 
ATOM     28  C   UNL     1     -12.294  -5.122  -0.162  0.00  0.00    +0.004 A 
BRANCH  19  29
ATOM     29  O   UNL     1      -9.311  -2.090  -1.714  0.00  0.00    -0.382 OA
ATOM     30  H   UNL     1      -9.069  -2.592  -2.504  0.00  0.00    +0.211 HD
ENDBRANCH  19  29
ENDBRANCH  18  19
ENDBRANCH   4  18
TORSDOF 4
