REMARK  Name = ZINC07246450
REMARK  6 active torsions:
REMARK  status: ('A' for Active; 'I' for Inactive)
REMARK    1  A    between atoms: C_1  and  C_2
REMARK    2  A    between atoms: C_7  and  S_15
REMARK    3  A    between atoms: S_15  and  C_16
REMARK    4  A    between atoms: C_16  and  C_17
REMARK    5  A    between atoms: N_19  and  C_20
REMARK    6  A    between atoms: C_20  and  C_21
REMARK                            x       y       z     vdW  Elec       q    Type
REMARK                         _______ _______ _______ _____ _____    ______ ____
ROOT
ATOM      1  C   UNL     1      -0.018   1.503   0.010  0.00  0.00    +0.044 C 
ATOM      2  C   UNL     1       0.002  -0.004   0.002  0.00  0.00    -0.038 A 
ATOM      3  C   UNL     1       0.006  -0.682  -1.168  0.00  0.00    +0.052 A 
ATOM      4  C   UNL     1       0.025  -2.097  -1.175  0.00  0.00    +0.162 A 
ATOM      5  N   UNL     1       0.032  -2.982  -2.155  0.00  0.00    -0.129 NA
ATOM      6  N   UNL     1       0.051  -4.172  -1.668  0.00  0.00    -0.122 NA
ATOM      7  C   UNL     1       0.056  -4.125  -0.354  0.00  0.00    +0.197 A 
ATOM      8  N   UNL     1       0.040  -2.809   0.004  0.00  0.00    -0.270 N 
ATOM      9  C   UNL     1       0.036  -2.159   1.225  0.00  0.00    +0.058 A 
ATOM     10  C   UNL     1       0.024  -0.753   1.262  0.00  0.00    +0.002 A 
ATOM     11  C   UNL     1       0.026  -0.090   2.493  0.00  0.00    +0.010 A 
ATOM     12  C   UNL     1       0.047  -0.820   3.661  0.00  0.00    +0.001 A 
ATOM     13  C   UNL     1       0.066  -2.206   3.621  0.00  0.00    +0.002 A 
ATOM     14  C   UNL     1       0.051  -2.875   2.415  0.00  0.00    +0.027 A 
ENDROOT
BRANCH   7  15
ATOM     15  S   UNL     1       0.080  -5.506   0.740  0.00  0.00    -0.076 S 
BRANCH  15  16
ATOM     16  C   UNL     1       0.095  -6.943  -0.366  0.00  0.00    +0.173 C 
BRANCH  16  17
ATOM     17  C   UNL     1       0.117  -8.208   0.453  0.00  0.00    +0.224 C 
ATOM     18  O   UNL     1       0.121  -8.146   1.664  0.00  0.00    -0.275 OA
ATOM     19  N   UNL     1       0.131  -9.408  -0.160  0.00  0.00    -0.304 N 
ATOM     20  H   UNL     1       0.127  -9.458  -1.129  0.00  0.00    +0.150 HD
BRANCH  19  21
ATOM     21  C   UNL     1       0.151 -10.637   0.636  0.00  0.00    +0.193 C 
BRANCH  21  22
ATOM     22  C   UNL     1       0.164 -11.804  -0.262  0.00  0.00    -0.087 C 
ATOM     23  C   UNL     1       0.174 -12.734  -0.978  0.00  0.00    +0.005 C 
ENDBRANCH  21  22
ENDBRANCH  19  21
ENDBRANCH  16  17
ENDBRANCH  15  16
ENDBRANCH   7  15
TORSDOF 5
