REMARK  Name = ZINC28977621
REMARK  8 active torsions:
REMARK  status: ('A' for Active; 'I' for Inactive)
REMARK    1  A    between atoms: C_1  and  O_2
REMARK    2  A    between atoms: O_2  and  C_3
REMARK    3  A    between atoms: C_8  and  O_9
REMARK    4  A    between atoms: O_9  and  C_10
REMARK    5  A    between atoms: C_11  and  C_24
REMARK    6  A    between atoms: N_13  and  C_16
REMARK    7  A    between atoms: C_16  and  C_17
REMARK    8  A    between atoms: C_17  and  C_18
REMARK                            x       y       z     vdW  Elec       q    Type
REMARK                         _______ _______ _______ _____ _____    ______ ____
ROOT
ATOM      1  C   UNL     1      -0.190   1.439   2.551  0.00  0.00    +0.162 A 
ATOM      2  C   UNL     1       0.844   0.520   2.536  0.00  0.00    +0.053 A 
ATOM      3  C   UNL     1       1.438   0.112   3.721  0.00  0.00    -0.037 A 
ATOM      4  C   UNL     1       0.993   0.618   4.924  0.00  0.00    -0.018 A 
ATOM      5  C   UNL     1      -0.047   1.536   4.945  0.00  0.00    +0.055 A 
ATOM      6  C   UNL     1      -0.641   1.948   3.766  0.00  0.00    +0.162 A 
ATOM      7  C   UNL     1       1.608   0.205   6.236  0.00  0.00    +0.124 C 
ATOM      8  N   UNL     1       2.375  -1.035   6.076  0.00  0.00    -0.290 NA
ATOM      9  C   UNL     1       3.336  -0.900   4.969  0.00  0.00    +0.090 C 
ATOM     10  C   UNL     1       2.560  -0.892   3.652  0.00  0.00    +0.051 C 
ENDROOT
BRANCH   7  11
ATOM     11  C   UNL     1       0.516  -0.014   7.251  0.00  0.00    +0.011 A 
ATOM     12  C   UNL     1       0.086   0.814   8.234  0.00  0.00    +0.013 A 
ATOM     13  C   UNL     1      -0.944   0.399   9.057  0.00  0.00    +0.008 A 
ATOM     14  C   UNL     1      -1.495  -0.823   8.856  0.00  0.00    +0.045 A 
ATOM     15  S   UNL     1      -0.554  -1.427   7.464  0.00  0.00    -0.100 S 
ENDBRANCH   7  11
BRANCH   1  17
ATOM     16  C   UNL     1      -0.251   1.273   0.180  0.00  0.00    +0.277 C 
ATOM     17  O   UNL     1      -0.767   1.839   1.387  0.00  0.00    -0.491 OA
ENDBRANCH   1  17
BRANCH   6  18
ATOM     18  O   UNL     1      -1.661   2.848   3.792  0.00  0.00    -0.491 OA
ATOM     19  C   UNL     1      -2.070   3.327   5.075  0.00  0.00    +0.277 C 
ENDBRANCH   6  18
BRANCH   8  20
ATOM     20  C   UNL     1       3.058  -1.396   7.325  0.00  0.00    +0.094 C 
BRANCH  20  21
ATOM     21  C   UNL     1       4.127  -0.349   7.644  0.00  0.00    +0.111 C 
BRANCH  21  22
ATOM     22  C   UNL     1       4.854  -0.741   8.904  0.00  0.00    +0.222 C 
ATOM     23  O   UNL     1       4.548  -1.757   9.490  0.00  0.00    -0.275 OA
ATOM     24  N   UNL     1       5.845   0.039   9.380  0.00  0.00    -0.240 N 
ATOM     25  C   UNL     1       6.495  -0.311  10.508  0.00  0.00    +0.303 C 
ATOM     26  O   UNL     1       6.188  -1.330  11.095  0.00  0.00    -0.253 OA
ATOM     27  N   UNL     1       7.486   0.468  10.984  0.00  0.00    -0.313 N 
ATOM     28  H   UNL     1       6.122   0.961   8.849  0.00  0.00    +0.159 HD
ATOM     29  H   UNL     1       8.017   0.182  11.904  0.00  0.00    +0.146 HD
ATOM     30  H   UNL     1       7.764   1.391  10.453  0.00  0.00    +0.146 HD
ENDBRANCH  21  22
ENDBRANCH  20  21
ENDBRANCH   8  20
TORSDOF 6
