REMARK  Name = ZINC34748619
REMARK  8 active torsions:
REMARK  status: ('A' for Active; 'I' for Inactive)
REMARK    1  A    between atoms: C_1  and  C_2
REMARK    2  A    between atoms: C_3  and  C_33
REMARK    3  A    between atoms: N_9  and  C_22
REMARK    4  A    between atoms: N_15  and  C_18
REMARK    5  A    between atoms: C_18  and  C_19
REMARK    6  A    between atoms: C_22  and  C_23
REMARK    7  A    between atoms: N_25  and  C_26
REMARK    8  A    between atoms: C_26  and  C_27
REMARK                            x       y       z     vdW  Elec       q    Type
REMARK                         _______ _______ _______ _____ _____    ______ ____
ROOT
ATOM      1  C   UNL     1       0.010   1.464  -0.042  0.00  0.00    +0.045 C 
ATOM      2  C   UNL     1       0.079  -0.041  -0.024  0.00  0.00    -0.026 A 
ATOM      3  C   UNL     1       0.168  -0.730  -1.171  0.00  0.00    -0.008 A 
ATOM      4  S   UNL     1       0.220  -2.429  -0.631  0.00  0.00    -0.073 S 
ATOM      5  C   UNL     1       0.120  -2.164   1.121  0.00  0.00    +0.117 A 
ATOM      6  C   UNL     1       0.055  -0.763   1.237  0.00  0.00    +0.075 A 
ATOM      7  C   UNL     1      -0.029  -0.253   2.571  0.00  0.00    +0.264 A 
ATOM      8  O   UNL     1      -0.094   0.948   2.770  0.00  0.00    -0.267 OA
ATOM      9  N   UNL     1      -0.036  -1.116   3.603  0.00  0.00    -0.271 N 
ATOM     10  C   UNL     1       0.036  -2.462   3.400  0.00  0.00    +0.202 A 
ATOM     11  N   UNL     1       0.103  -2.960   2.183  0.00  0.00    -0.208 NA
ATOM     12  N   UNL     1       0.026  -3.311   4.479  0.00  0.00    -0.304 N 
ATOM     13  C   UNL     1      -1.237  -3.848   5.008  0.00  0.00    +0.089 C 
ATOM     14  C   UNL     1      -1.101  -5.368   5.141  0.00  0.00    -0.059 C 
ATOM     15  N   UNL     1       0.079  -5.684   5.955  0.00  0.00    +0.387 N 
ATOM     16  C   UNL     1       1.296  -5.237   5.266  0.00  0.00    -0.059 C 
ATOM     17  C   UNL     1       1.280  -3.715   5.135  0.00  0.00    +0.089 C 
ATOM     18  C   UNL     1       0.214  -0.196  -2.579  0.00  0.00    +0.052 C 
ATOM     19  H   UNL     1       0.008  -5.215   6.846  0.00  0.00    -0.081 HD
ENDROOT
BRANCH  15  20
ATOM     20  C   UNL     1       0.147  -7.135   6.174  0.00  0.00    +0.018 C 
BRANCH  20  21
ATOM     21  C   UNL     1       1.286  -7.449   7.110  0.00  0.00    +0.194 C 
ATOM     22  O   UNL     1       1.974  -6.552   7.551  0.00  0.00    -0.278 OA
ATOM     23  N   UNL     1       1.541  -8.726   7.456  0.00  0.00    -0.331 N 
ATOM     24  H   UNL     1       0.991  -9.443   7.104  0.00  0.00    +0.145 HD
ATOM     25  H   UNL     1       2.274  -8.928   8.059  0.00  0.00    +0.145 HD
ENDBRANCH  20  21
ENDBRANCH  15  20
BRANCH   9  26
ATOM     26  C   UNL     1      -0.122  -0.599   4.972  0.00  0.00    +0.223 C 
BRANCH  26  27
ATOM     27  C   UNL     1      -1.569  -0.403   5.344  0.00  0.00    +0.233 C 
ATOM     28  O   UNL     1      -2.442  -0.668   4.545  0.00  0.00    -0.274 OA
ATOM     29  N   UNL     1      -1.893   0.068   6.565  0.00  0.00    -0.310 N 
ATOM     30  H   UNL     1      -1.194   0.280   7.204  0.00  0.00    +0.149 HD
BRANCH  29  31
ATOM     31  C   UNL     1      -3.299   0.259   6.927  0.00  0.00    +0.139 C 
BRANCH  31  32
ATOM     32  C   UNL     1      -3.388   0.790   8.335  0.00  0.00    -0.030 A 
ATOM     33  C   UNL     1      -3.467  -0.086   9.401  0.00  0.00    +0.005 A 
ATOM     34  C   UNL     1      -3.548   0.401  10.692  0.00  0.00    +0.000 A 
ATOM     35  C   UNL     1      -3.550   1.765  10.917  0.00  0.00    +0.000 A 
ATOM     36  C   UNL     1      -3.470   2.642   9.851  0.00  0.00    +0.000 A 
ATOM     37  C   UNL     1      -3.385   2.154   8.560  0.00  0.00    +0.005 A 
ENDBRANCH  31  32
ENDBRANCH  29  31
ENDBRANCH  26  27
ENDBRANCH   9  26
TORSDOF 6
