REMARK  Name = ZINC07545822
REMARK  5 active torsions:
REMARK  status: ('A' for Active; 'I' for Inactive)
REMARK    1  A    between atoms: C_3  and  C_8
REMARK    2  A    between atoms: C_11  and  S_13
REMARK    3  A    between atoms: S_13  and  C_14
REMARK    4  A    between atoms: C_14  and  C_15
REMARK    5  A    between atoms: C_21  and  C_24
REMARK                            x       y       z     vdW  Elec       q    Type
REMARK                         _______ _______ _______ _____ _____    ______ ____
ROOT
ATOM      1  C   UNL     1      -5.348  -2.646  -1.465  0.00  0.00    +0.174 C 
ENDROOT
BRANCH   1   2
ATOM      2  C   UNL     1      -3.987  -2.000  -1.416  0.00  0.00    +0.226 C 
ATOM      3  O   UNL     1      -2.989  -2.684  -1.493  0.00  0.00    -0.275 OA
ATOM      4  N   UNL     1      -3.880  -0.663  -1.287  0.00  0.00    -0.300 N 
ATOM      5  C   UNL     1      -5.080   0.179  -1.192  0.00  0.00    +0.108 C 
ATOM      6  C   UNL     1      -4.974   1.049   0.065  0.00  0.00    +0.020 C 
ATOM      7  C   UNL     1      -3.659   1.831   0.029  0.00  0.00    +0.016 C 
ATOM      8  C   UNL     1      -2.482   0.853   0.018  0.00  0.00    +0.092 C 
ATOM      9  C   UNL     1      -2.560  -0.019  -1.239  0.00  0.00    +0.120 C 
BRANCH   8  10
ATOM     10  C   UNL     1      -1.187   1.624   0.017  0.00  0.00    +0.215 C 
ATOM     11  O   UNL     1      -1.204   2.837   0.023  0.00  0.00    -0.276 OA
ATOM     12  N   UNL     1      -0.011   0.966   0.007  0.00  0.00    -0.329 N 
ATOM     13  H   UNL     1       0.002  -0.004   0.002  0.00  0.00    +0.145 HD
ATOM     14  H   UNL     1       0.822   1.462   0.002  0.00  0.00    +0.145 HD
ENDBRANCH   8  10
ENDBRANCH   1   2
BRANCH   1  15
ATOM     15  S   UNL     1      -5.160  -4.437  -1.641  0.00  0.00    -0.056 S 
BRANCH  15  19
ATOM     16  C   UNL     1      -8.670  -6.085  -1.764  0.00  0.00    +0.249 A 
ATOM     17  N   UNL     1      -8.974  -4.816  -1.638  0.00  0.00    -0.106 NA
ATOM     18  N   UNL     1      -7.893  -4.122  -1.582  0.00  0.00    -0.101 NA
ATOM     19  C   UNL     1      -6.854  -4.921  -1.671  0.00  0.00    +0.278 A 
ATOM     20  O   UNL     1      -7.322  -6.178  -1.794  0.00  0.00    -0.411 OA
BRANCH  16  23
ATOM     21  C   UNL     1     -11.888  -8.016  -1.917  0.00  0.00    +0.002 A 
ATOM     22  C   UNL     1     -11.000  -6.963  -1.824  0.00  0.00    +0.013 A 
ATOM     23  C   UNL     1      -9.626  -7.208  -1.863  0.00  0.00    +0.040 A 
ATOM     24  C   UNL     1      -9.159  -8.516  -2.000  0.00  0.00    +0.033 A 
ATOM     25  C   UNL     1     -10.058  -9.560  -2.086  0.00  0.00    +0.042 A 
ATOM     26  C   UNL     1     -11.420  -9.311  -2.048  0.00  0.00    +0.020 A 
ATOM     27 CL   UNL     1      -9.481 -11.189  -2.250  0.00  0.00    -0.084 Cl
ENDBRANCH  16  23
ENDBRANCH  15  19
ENDBRANCH   1  15
TORSDOF 5
