REMARK  Name = ZINC66668290
REMARK  11 active torsions:
REMARK  status: ('A' for Active; 'I' for Inactive)
REMARK    1  A    between atoms: C_1  and  C_2
REMARK    2  A    between atoms: C_5  and  C_9
REMARK    3  A    between atoms: C_6  and  C_8
REMARK    4  A    between atoms: C_9  and  C_10
REMARK    5  A    between atoms: C_10  and  C_12
REMARK    6  A    between atoms: C_10  and  N_13
REMARK    7  A    between atoms: N_16  and  C_17
REMARK    8  A    between atoms: C_22  and  O_23
REMARK    9  A    between atoms: O_23  and  C_24
REMARK   10  A    between atoms: C_24  and  C_25
REMARK   11  A    between atoms: C_25  and  C_26
REMARK                            x       y       z     vdW  Elec       q    Type
REMARK                         _______ _______ _______ _____ _____    ______ ____
ROOT
ATOM      1  N   UNL     1      -2.142  -4.403  -1.069  0.00  0.00    -0.296 N 
ATOM      2  C   UNL     1      -3.484  -4.304  -0.995  0.00  0.00    +0.304 C 
ATOM      3  O   UNL     1      -4.053  -4.528   0.056  0.00  0.00    -0.252 OA
ATOM      4  N   UNL     1      -4.196  -3.958  -2.086  0.00  0.00    -0.266 N 
ATOM      5  H   UNL     1      -1.688  -4.224  -1.907  0.00  0.00    +0.151 HD
ATOM      6  H   UNL     1      -3.738  -3.717  -2.907  0.00  0.00    +0.156 HD
ENDROOT
BRANCH   4   7
ATOM      7  C   UNL     1      -5.596  -3.946  -2.035  0.00  0.00    +0.077 A 
ATOM      8  C   UNL     1      -6.246  -3.576  -0.866  0.00  0.00    +0.027 A 
ATOM      9  C   UNL     1      -7.627  -3.565  -0.818  0.00  0.00    +0.002 A 
ATOM     10  C   UNL     1      -8.364  -3.922  -1.932  0.00  0.00    +0.004 A 
ATOM     11  C   UNL     1      -7.723  -4.292  -3.100  0.00  0.00    +0.047 A 
ATOM     12  C   UNL     1      -6.339  -4.300  -3.158  0.00  0.00    +0.142 A 
BRANCH  12  13
ATOM     13  O   UNL     1      -5.707  -4.659  -4.308  0.00  0.00    -0.490 OA
BRANCH  13  14
ATOM     14  C   UNL     1      -6.533  -5.010  -5.420  0.00  0.00    +0.238 C 
BRANCH  14  15
ATOM     15  C   UNL     1      -5.651  -5.381  -6.613  0.00  0.00    +0.136 C 
BRANCH  15  16
ATOM     16  C   UNL     1      -6.522  -5.751  -7.786  0.00  0.00    +0.214 C 
ATOM     17  O   UNL     1      -7.730  -5.721  -7.678  0.00  0.00    -0.276 OA
ATOM     18  N   UNL     1      -5.959  -6.116  -8.955  0.00  0.00    -0.329 N 
ATOM     19  H   UNL     1      -4.994  -6.140  -9.042  0.00  0.00    +0.145 HD
ATOM     20  H   UNL     1      -6.520  -6.354  -9.710  0.00  0.00    +0.145 HD
ENDBRANCH  15  16
ENDBRANCH  14  15
ENDBRANCH  13  14
ENDBRANCH  12  13
ENDBRANCH   4   7
BRANCH   1  21
ATOM     21  C   UNL     1      -1.369  -4.779   0.117  0.00  0.00    +0.076 C 
ATOM     22  C   UNL     1      -1.328  -6.304   0.236  0.00  0.00    +0.028 C 
BRANCH  21  23
ATOM     23  C   UNL     1       0.057  -4.239  -0.011  0.00  0.00    +0.057 C 
BRANCH  23  28
ATOM     24  C   UNL     1      -0.067   1.538   0.014  0.00  0.00    +0.044 C 
ATOM     25  C   UNL     1      -0.034   0.032   0.007  0.00  0.00    -0.050 A 
ATOM     26  C   UNL     1      -0.022  -0.655  -1.193  0.00  0.00    +0.003 A 
ATOM     27  C   UNL     1       0.007  -2.036  -1.199  0.00  0.00    +0.004 A 
ATOM     28  C   UNL     1       0.025  -2.732  -0.004  0.00  0.00    -0.043 A 
ATOM     29  C   UNL     1       0.014  -2.047   1.195  0.00  0.00    -0.047 A 
ATOM     30  C   UNL     1      -0.011  -0.664   1.201  0.00  0.00    +0.007 A 
ATOM     31  C   UNL     1       0.034  -2.805   2.497  0.00  0.00    +0.044 C 
ENDBRANCH  23  28
ENDBRANCH  21  23
ENDBRANCH   1  21
TORSDOF 8
