REMARK  Name = ZINC36536604
REMARK  12 active torsions:
REMARK  status: ('A' for Active; 'I' for Inactive)
REMARK    1  A    between atoms: C_1  and  C_2
REMARK    2  A    between atoms: C_2  and  C_3
REMARK    3  A    between atoms: C_3  and  C_4
REMARK    4  A    between atoms: C_4  and  C_5
REMARK    5  A    between atoms: C_5  and  C_6
REMARK    6  A    between atoms: N_8  and  C_9
REMARK    7  A    between atoms: N_8  and  C_10
REMARK    8  A    between atoms: C_10  and  C_12
REMARK    9  A    between atoms: C_10  and  C_20
REMARK   10  A    between atoms: C_15  and  C_19
REMARK   11  A    between atoms: C_17  and  C_18
REMARK   12  A    between atoms: N_22  and  C_23
REMARK                            x       y       z     vdW  Elec       q    Type
REMARK                         _______ _______ _______ _____ _____    ______ ____
ROOT
ATOM      1  C   UNL     1       2.159  -6.315  -3.820  0.00  0.00    +0.192 C 
ENDROOT
BRANCH   1   2
ATOM      2  C   UNL     1       3.618  -5.991  -3.631  0.00  0.00    -0.015 A 
ATOM      3  C   UNL     1       4.404  -5.676  -4.724  0.00  0.00    +0.006 A 
ATOM      4  C   UNL     1       5.743  -5.379  -4.550  0.00  0.00    +0.004 A 
ATOM      5  C   UNL     1       6.295  -5.395  -3.283  0.00  0.00    -0.050 A 
ATOM      6  C   UNL     1       5.510  -5.708  -2.190  0.00  0.00    +0.007 A 
ATOM      7  C   UNL     1       4.170  -6.002  -2.363  0.00  0.00    -0.045 A 
ATOM      8  C   UNL     1       3.311  -6.338  -1.171  0.00  0.00    +0.044 C 
ATOM      9  C   UNL     1       7.755  -5.071  -3.093  0.00  0.00    +0.044 C 
ENDBRANCH   1   2
BRANCH   1  12
ATOM     10  C   UNL     1       0.351  -5.285  -2.553  0.00  0.00    +0.216 C 
ATOM     11  O   UNL     1       0.126  -6.366  -2.051  0.00  0.00    -0.276 OA
ATOM     12  N   UNL     1       1.348  -5.153  -3.450  0.00  0.00    -0.289 N 
ATOM     13  C   UNL     1       1.621  -3.847  -4.056  0.00  0.00    +0.133 C 
BRANCH  10  14
ATOM     14  C   UNL     1      -0.483  -4.089  -2.172  0.00  0.00    +0.096 C 
BRANCH  14  15
ATOM     15  C   UNL     1      -1.536  -4.508  -1.144  0.00  0.00    +0.009 C 
BRANCH  15  16
ATOM     16  C   UNL     1      -2.383  -3.294  -0.758  0.00  0.00    +0.000 C 
BRANCH  16  18
ATOM     17  C   UNL     1      -4.283  -2.499   0.656  0.00  0.00    +0.004 C 
ATOM     18  C   UNL     1      -3.436  -3.713   0.270  0.00  0.00    -0.003 C 
ENDBRANCH  16  18
ENDBRANCH  15  16
ENDBRANCH  14  15
ENDBRANCH  10  14
ENDBRANCH   1  12
BRANCH   1  19
ATOM     19  C   UNL     1       1.906  -6.665  -5.264  0.00  0.00    +0.238 C 
ATOM     20  O   UNL     1       1.416  -5.844  -6.010  0.00  0.00    -0.273 OA
ATOM     21  N   UNL     1       2.223  -7.891  -5.726  0.00  0.00    -0.311 N 
ATOM     22  H   UNL     1       2.550  -8.570  -5.115  0.00  0.00    +0.149 HD
BRANCH  21  23
ATOM     23  C   UNL     1       2.075  -8.198  -7.151  0.00  0.00    +0.073 C 
ATOM     24  C   UNL     1       0.633  -8.626  -7.432  0.00  0.00    +0.022 C 
ATOM     25  C   UNL     1       0.478  -8.947  -8.920  0.00  0.00    +0.002 C 
ATOM     26  C   UNL     1       1.431 -10.082  -9.299  0.00  0.00    +0.000 C 
ATOM     27  C   UNL     1       2.872  -9.654  -9.018  0.00  0.00    +0.002 C 
ATOM     28  C   UNL     1       3.027  -9.334  -7.530  0.00  0.00    +0.022 C 
ENDBRANCH  21  23
ENDBRANCH   1  19
TORSDOF 8
