REMARK  Name = ZINC36827976
REMARK  2 active torsions:
REMARK  status: ('A' for Active; 'I' for Inactive)
REMARK    1  A    between atoms: C_7  and  C_10
REMARK    2  A    between atoms: C_15  and  N_16
REMARK                            x       y       z     vdW  Elec       q    Type
REMARK                         _______ _______ _______ _____ _____    ______ ____
ROOT
ATOM      1  C   UNL     1       0.663  -3.130  -0.048  0.00  0.00    +0.040 A 
ATOM      2  C   UNL     1      -0.715  -2.945   0.066  0.00  0.00    +0.016 A 
ATOM      3  C   UNL     1      -1.556  -4.037   0.094  0.00  0.00    +0.039 A 
ATOM      4  C   UNL     1      -1.038  -5.321   0.010  0.00  0.00    +0.125 A 
ATOM      5  C   UNL     1       0.327  -5.518  -0.103  0.00  0.00    +0.061 A 
ATOM      6  C   UNL     1       1.185  -4.428  -0.139  0.00  0.00    +0.038 A 
ATOM      7  F   UNL     1      -1.870  -6.385   0.039  0.00  0.00    -0.205 F 
ENDROOT
BRANCH   1  14
ATOM      8  C   UNL     1       1.016   0.611   2.490  0.00  0.00    +0.038 A 
ATOM      9  C   UNL     1       2.062   1.435   2.049  0.00  0.00    +0.116 A 
ATOM     10  N   UNL     1       2.795   1.085   1.018  0.00  0.00    -0.219 NA
ATOM     11  C   UNL     1       2.562  -0.063   0.368  0.00  0.00    +0.256 A 
ATOM     12  N   UNL     1       3.136  -0.641  -0.675  0.00  0.00    -0.108 NA
ATOM     13  N   UNL     1       2.549  -1.756  -0.934  0.00  0.00    -0.127 NA
ATOM     14  C   UNL     1       1.569  -1.963  -0.079  0.00  0.00    +0.171 A 
ATOM     15  N   UNL     1       1.546  -0.894   0.775  0.00  0.00    -0.267 N 
ATOM     16  C   UNL     1       0.769  -0.554   1.842  0.00  0.00    +0.098 A 
ENDBRANCH   1  14
BRANCH   6  17
ATOM     17  N   UNL     1       2.560  -4.624  -0.260  0.00  0.00    -0.357 N 
ATOM     18  H   UNL     1       3.165  -3.869  -0.190  0.00  0.00    +0.142 HD
ATOM     19  H   UNL     1       2.912  -5.515  -0.414  0.00  0.00    +0.142 HD
ENDBRANCH   6  17
TORSDOF 2
