REMARK  Name = ZINC02631621
REMARK  6 active torsions:
REMARK  status: ('A' for Active; 'I' for Inactive)
REMARK    1  A    between atoms: C_3  and  C_11
REMARK    2  A    between atoms: C_5  and  O_7
REMARK    3  A    between atoms: O_7  and  C_8
REMARK    4  A    between atoms: C_8  and  C_9
REMARK    5  A    between atoms: C_13  and  C_25
REMARK    6  A    between atoms: C_18  and  C_20
REMARK                            x       y       z     vdW  Elec       q    Type
REMARK                         _______ _______ _______ _____ _____    ______ ____
ROOT
ATOM      1  C   UNL     1      -0.017   1.397   0.010  0.00  0.00    +0.039 C 
ATOM      2  C   UNL     1       1.098   2.114   0.003  0.00  0.00    +0.028 C 
ATOM      3  C   UNL     1       2.474   1.505  -0.006  0.00  0.00    +0.165 C 
ATOM      4  N   UNL     1       2.378   0.077  -0.294  0.00  0.00    -0.221 N 
ATOM      5  C   UNL     1       1.213  -0.618  -0.280  0.00  0.00    +0.219 A 
ATOM      6  N   UNL     1       1.482  -1.862  -0.567  0.00  0.00    -0.189 NA
ATOM      7  C   UNL     1       2.796  -1.998  -0.775  0.00  0.00    +0.256 A 
ATOM      8  N   UNL     1       3.380  -0.836  -0.619  0.00  0.00    -0.143 NA
ATOM      9  N   UNL     1       0.002  -0.004   0.002  0.00  0.00    -0.283 N 
ATOM     10  H   UNL     1      -0.797  -0.522   0.186  0.00  0.00    +0.155 HD
ENDROOT
BRANCH   3  11
ATOM     11  C   UNL     1       3.117   1.703   1.343  0.00  0.00    -0.019 A 
ATOM     12  C   UNL     1       2.523   1.177   2.475  0.00  0.00    +0.007 A 
ATOM     13  C   UNL     1       3.116   1.353   3.711  0.00  0.00    +0.020 A 
ATOM     14  C   UNL     1       4.297   2.066   3.817  0.00  0.00    +0.041 A 
ATOM     15  C   UNL     1       4.887   2.597   2.684  0.00  0.00    +0.020 A 
ATOM     16  C   UNL     1       4.297   2.415   1.448  0.00  0.00    +0.007 A 
ATOM     17 CL   UNL     1       5.037   2.294   5.371  0.00  0.00    -0.084 Cl
ENDBRANCH   3  11
BRANCH   1  20
ATOM     18  C   UNL     1      -2.585   4.141   0.036  0.00  0.00    +0.004 A 
ATOM     19  C   UNL     1      -1.367   3.491   0.027  0.00  0.00    +0.010 A 
ATOM     20  C   UNL     1      -1.322   2.098   0.020  0.00  0.00    -0.001 A 
ATOM     21  C   UNL     1      -2.508   1.366   0.015  0.00  0.00    +0.055 A 
ATOM     22  C   UNL     1      -3.725   2.027   0.029  0.00  0.00    +0.122 A 
ATOM     23  C   UNL     1      -3.761   3.415   0.037  0.00  0.00    +0.046 A 
BRANCH  22  24
ATOM     24  O   UNL     1      -4.884   1.317   0.030  0.00  0.00    -0.481 OA
BRANCH  24  25
ATOM     25  C   UNL     1      -6.102   2.064   0.040  0.00  0.00    +0.353 C 
BRANCH  25  26
ATOM     26  C   UNL     1      -7.273   1.116   0.040  0.00  0.00    +0.393 C 
ATOM     27  O   UNL     1      -7.084  -0.078   0.032  0.00  0.00    -0.243 OA
ATOM     28  O   UNL     1      -8.526   1.597   0.048  0.00  0.00    -0.243 OA
ENDBRANCH  25  26
ENDBRANCH  24  25
ENDBRANCH  22  24
ENDBRANCH   1  20
BRANCH   7  29
ATOM     29  C   UNL     1       3.495  -3.285  -1.132  0.00  0.00    +0.454 C 
ATOM     30  F   UNL     1       3.582  -4.099   0.003  0.00  0.00    -0.163 F 
ATOM     31  F   UNL     1       2.769  -3.949  -2.127  0.00  0.00    -0.163 F 
ATOM     32  F   UNL     1       4.782  -3.002  -1.603  0.00  0.00    -0.163 F 
ENDBRANCH   7  29
TORSDOF 6
