REMARK  Name = ZINC04073807
REMARK  8 active torsions:
REMARK  status: ('A' for Active; 'I' for Inactive)
REMARK    1  A    between atoms: C_1  and  C_2
REMARK    2  A    between atoms: C_3  and  O_17
REMARK    3  A    between atoms: O_17  and  C_18
REMARK    4  A    between atoms: C_20  and  O_33
REMARK    5  A    between atoms: C_22  and  O_32
REMARK    6  A    between atoms: C_24  and  O_31
REMARK    7  A    between atoms: C_26  and  C_29
REMARK    8  A    between atoms: C_29  and  O_30
REMARK                            x       y       z     vdW  Elec       q    Type
REMARK                         _______ _______ _______ _____ _____    ______ ____
ROOT
ATOM      1  C   UNL     1       2.484   4.322   0.001  0.00  0.00    +0.051 C 
ATOM      2  C   UNL     1       1.187   3.554   0.010  0.00  0.00    +0.034 A 
ATOM      3  C   UNL     1      -0.022   4.230   0.025  0.00  0.00    +0.130 A 
ATOM      4  C   UNL     1      -1.226   3.528   0.033  0.00  0.00    +0.047 A 
ATOM      5  C   UNL     1      -1.230   2.163   0.031  0.00  0.00    +0.015 A 
ATOM      6  C   UNL     1      -0.018   1.465   0.010  0.00  0.00    +0.022 A 
ATOM      7  C   UNL     1       1.200   2.168   0.002  0.00  0.00    +0.146 A 
ATOM      8  O   UNL     1       2.364   1.486  -0.012  0.00  0.00    -0.422 OA
ATOM      9  C   UNL     1       2.387   0.146  -0.021  0.00  0.00    +0.341 A 
ATOM     10  O   UNL     1       3.463  -0.425  -0.031  0.00  0.00    -0.245 OA
ATOM     11  C   UNL     1       1.200  -0.628  -0.018  0.00  0.00    +0.041 A 
ATOM     12  C   UNL     1       0.002  -0.004   0.002  0.00  0.00    -0.027 A 
ATOM     13  C   UNL     1      -1.309  -0.740   0.023  0.00  0.00    +0.036 C 
ATOM     14  C   UNL     1      -1.118  -2.193  -0.411  0.00  0.00    +0.005 C 
ATOM     15  C   UNL     1       0.034  -2.792   0.406  0.00  0.00    +0.005 C 
ATOM     16  C   UNL     1       1.335  -2.127  -0.040  0.00  0.00    +0.042 C 
ENDROOT
BRANCH   3  17
ATOM     17  O   UNL     1      -0.035   5.588   0.033  0.00  0.00    -0.460 OA
BRANCH  17  18
ATOM     18  C   UNL     1      -1.314   6.225   0.049  0.00  0.00    +0.339 C 
ATOM     19  C   UNL     1      -1.129   7.739   0.182  0.00  0.00    +0.214 C 
ATOM     20  C   UNL     1      -2.500   8.419   0.138  0.00  0.00    +0.180 C 
ATOM     21  C   UNL     1      -3.208   8.032  -1.165  0.00  0.00    +0.177 C 
ATOM     22  C   UNL     1      -3.313   6.506  -1.246  0.00  0.00    +0.179 C 
ATOM     23  O   UNL     1      -2.005   5.936  -1.168  0.00  0.00    -0.331 OA
BRANCH  21  24
ATOM     24  O   UNL     1      -4.518   8.602  -1.184  0.00  0.00    -0.386 OA
ATOM     25  H   UNL     1      -4.527   9.568  -1.131  0.00  0.00    +0.210 HD
ENDBRANCH  21  24
BRANCH  20  26
ATOM     26  O   UNL     1      -2.333   9.837   0.187  0.00  0.00    -0.386 OA
ATOM     27  H   UNL     1      -1.884  10.152   0.984  0.00  0.00    +0.210 HD
ENDBRANCH  20  26
BRANCH  19  28
ATOM     28  O   UNL     1      -0.488   8.034   1.425  0.00  0.00    -0.383 OA
ATOM     29  H   UNL     1       0.386   7.630   1.522  0.00  0.00    +0.210 HD
ENDBRANCH  19  28
BRANCH  22  30
ATOM     30  C   UNL     1      -3.965   6.109  -2.571  0.00  0.00    +0.190 C 
BRANCH  30  31
ATOM     31  O   UNL     1      -4.169   4.695  -2.597  0.00  0.00    -0.392 OA
ATOM     32  H   UNL     1      -4.580   4.372  -3.411  0.00  0.00    +0.210 HD
ENDBRANCH  30  31
ENDBRANCH  22  30
ENDBRANCH  17  18
ENDBRANCH   3  17
TORSDOF 7
