REMARK  Name = ZINC61595169
REMARK  10 active torsions:
REMARK  status: ('A' for Active; 'I' for Inactive)
REMARK    1  A    between atoms: C_1  and  C_2
REMARK    2  A    between atoms: C_5  and  C_7
REMARK    3  A    between atoms: C_7  and  C_9
REMARK    4  A    between atoms: C_7  and  S_13
REMARK    5  A    between atoms: C_9  and  C_11
REMARK    6  A    between atoms: C_9  and  N_12
REMARK    7  A    between atoms: S_13  and  C_14
REMARK    8  A    between atoms: N_20  and  C_21
REMARK    9  A    between atoms: C_21  and  C_22
REMARK   10  A    between atoms: C_21  and  C_23
REMARK                            x       y       z     vdW  Elec       q    Type
REMARK                         _______ _______ _______ _____ _____    ______ ____
ROOT
ATOM      1  C   UNL     1       1.607  -3.282  -0.056  0.00  0.00    +0.105 C 
ENDROOT
BRANCH   1   6
ATOM      2  C   UNL     1      -0.383   1.332   0.385  0.00  0.00    +0.086 C 
ATOM      3  C   UNL     1      -0.267  -0.169   0.301  0.00  0.00    +0.102 A 
ATOM      4  C   UNL     1      -1.288  -1.042   0.375  0.00  0.00    +0.044 A 
ATOM      5  C   UNL     1      -0.730  -2.335   0.251  0.00  0.00    +0.046 A 
ATOM      6  C   UNL     1       0.598  -2.175   0.109  0.00  0.00    +0.117 A 
ATOM      7  O   UNL     1       0.872  -0.860   0.135  0.00  0.00    -0.464 OA
ENDBRANCH   1   6
BRANCH   1   8
ATOM      8  C   UNL     1       2.339  -3.111  -1.388  0.00  0.00    -0.057 C 
ATOM      9  C   UNL     1       3.289  -4.291  -1.603  0.00  0.00    -0.013 C 
BRANCH   8  10
ATOM     10  N   UNL     1       1.359  -3.066  -2.482  0.00  0.00    +0.381 N 
ATOM     11  H   UNL     1       0.733  -2.288  -2.341  0.00  0.00    -0.090 HD
ATOM     12  H   UNL     1       1.842  -2.953  -3.361  0.00  0.00    -0.090 HD
ATOM     13  H   UNL     1       0.831  -3.925  -2.497  0.00  0.00    -0.090 HD
ENDBRANCH   8  10
ENDBRANCH   1   8
BRANCH   1  14
ATOM     14  S   UNL     1       2.805  -3.217   1.305  0.00  0.00    -0.076 S 
BRANCH  14  15
ATOM     15  C   UNL     1       1.863  -3.670   2.724  0.00  0.00    +0.193 A 
ATOM     16  N   UNL     1       0.584  -3.912   2.741  0.00  0.00    -0.145 NA
ATOM     17  N   UNL     1       0.222  -4.236   4.056  0.00  0.00    -0.226 N 
ATOM     18  H   UNL     1      -0.669  -4.463   4.366  0.00  0.00    +0.194 HD
ATOM     19  C   UNL     1       1.339  -4.175   4.809  0.00  0.00    +0.345 A 
ATOM     20  O   UNL     1       1.413  -4.395   6.005  0.00  0.00    -0.245 OA
ATOM     21  N   UNL     1       2.359  -3.832   3.998  0.00  0.00    -0.268 N 
BRANCH  21  22
ATOM     22  C   UNL     1       3.756  -3.658   4.403  0.00  0.00    +0.088 C 
ATOM     23  C   UNL     1       3.846  -2.558   5.463  0.00  0.00    +0.031 C 
ATOM     24  C   UNL     1       4.286  -4.971   4.984  0.00  0.00    +0.031 C 
ENDBRANCH  21  22
ENDBRANCH  14  15
ENDBRANCH   1  14
TORSDOF 6
