REMARK  Name = ZINC63994091
REMARK  9 active torsions:
REMARK  status: ('A' for Active; 'I' for Inactive)
REMARK    1  A    between atoms: C_1  and  O_2
REMARK    2  A    between atoms: O_2  and  C_3
REMARK    3  A    between atoms: C_3  and  C_4
REMARK    4  A    between atoms: C_4  and  N_5
REMARK    5  A    between atoms: N_11  and  C_14
REMARK    6  A    between atoms: C_14  and  C_15
REMARK    7  A    between atoms: N_25  and  C_28
REMARK    8  A    between atoms: C_28  and  C_29
REMARK    9  A    between atoms: C_29  and  C_30
REMARK                            x       y       z     vdW  Elec       q    Type
REMARK                         _______ _______ _______ _____ _____    ______ ____
ROOT
ATOM      1  N   UNL     1      -0.191  -2.684   1.246  0.00  0.00    -0.222 N 
ATOM      2  C   UNL     1       1.088  -3.055   1.461  0.00  0.00    +0.247 C 
ATOM      3  O   UNL     1       2.007  -3.014   0.671  0.00  0.00    -0.273 OA
ATOM      4  C   UNL     1       1.134  -3.531   2.894  0.00  0.00    +0.112 C 
ATOM      5  C   UNL     1       1.547  -4.998   2.957  0.00  0.00    +0.017 C 
ATOM      6  C   UNL     1       1.630  -5.439   4.421  0.00  0.00    -0.076 C 
ATOM      7  N   UNL     1       2.607  -4.604   5.131  0.00  0.00    +0.381 N 
ATOM      8  C   UNL     1       2.155  -3.208   5.146  0.00  0.00    -0.076 C 
ATOM      9  C   UNL     1       2.094  -2.673   3.712  0.00  0.00    +0.017 C 
ATOM     10  N   UNL     1      -0.243  -3.362   3.372  0.00  0.00    -0.271 N 
ATOM     11  C   UNL     1      -0.945  -2.856   2.340  0.00  0.00    +0.312 C 
ATOM     12  O   UNL     1      -2.129  -2.589   2.393  0.00  0.00    -0.252 OA
ATOM     13  H   UNL     1       3.499  -4.662   4.664  0.00  0.00    -0.082 HD
ENDROOT
BRANCH   1  14
ATOM     14  C   UNL     1      -0.692  -2.153  -0.024  0.00  0.00    +0.146 C 
BRANCH  14  15
ATOM     15  C   UNL     1      -0.546  -0.630  -0.033  0.00  0.00    +0.179 C 
BRANCH  15  17
ATOM     16  C   UNL     1       1.089   1.123  -0.005  0.00  0.00    +0.194 C 
ATOM     17  O   UNL     1       0.841  -0.285   0.001  0.00  0.00    -0.381 OA
ENDBRANCH  15  17
ENDBRANCH  14  15
ENDBRANCH   1  14
BRANCH   7  18
ATOM     18  C   UNL     1       2.749  -5.086   6.511  0.00  0.00    -0.050 C 
BRANCH  18  19
ATOM     19  C   UNL     1       3.855  -4.298   7.215  0.00  0.00    +0.086 C 
ATOM     20  C   UNL     1       4.140  -4.899   8.573  0.00  0.00    +0.005 C 
ATOM     21  C   UNL     1       5.434  -5.290   8.546  0.00  0.00    -0.004 A 
ATOM     22  C   UNL     1       6.300  -5.934   9.542  0.00  0.00    +0.010 A 
ATOM     23  C   UNL     1       7.583  -6.208   9.216  0.00  0.00    +0.001 A 
ATOM     24  C   UNL     1       8.107  -5.893   7.955  0.00  0.00    +0.002 A 
ATOM     25  C   UNL     1       7.374  -5.301   6.988  0.00  0.00    +0.026 A 
ATOM     26  C   UNL     1       6.011  -4.968   7.221  0.00  0.00    +0.043 A 
ATOM     27  N   UNL     1       5.108  -4.399   6.458  0.00  0.00    -0.380 N 
ATOM     28  H   UNL     1       5.245  -4.096   5.547  0.00  0.00    +0.160 HD
ENDBRANCH  18  19
ENDBRANCH   7  18
BRANCH  10  29
ATOM     29  C   UNL     1      -0.753  -3.678   4.709  0.00  0.00    +0.115 C 
BRANCH  29  30
ATOM     30  C   UNL     1      -1.747  -4.837   4.615  0.00  0.00    +0.054 C 
BRANCH  30  31
ATOM     31  C   UNL     1      -2.244  -5.186   5.995  0.00  0.00    -0.046 A 
ATOM     32  C   UNL     1      -1.570  -6.122   6.756  0.00  0.00    +0.004 A 
ATOM     33  C   UNL     1      -2.026  -6.441   8.021  0.00  0.00    +0.000 A 
ATOM     34  C   UNL     1      -3.156  -5.824   8.525  0.00  0.00    +0.000 A 
ATOM     35  C   UNL     1      -3.829  -4.887   7.764  0.00  0.00    +0.000 A 
ATOM     36  C   UNL     1      -3.371  -4.564   6.500  0.00  0.00    +0.004 A 
ENDBRANCH  30  31
ENDBRANCH  29  30
ENDBRANCH  10  29
TORSDOF 8
