REMARK  Name = ZINC15434033
REMARK  7 active torsions:
REMARK  status: ('A' for Active; 'I' for Inactive)
REMARK    1  A    between atoms: C_1  and  C_2
REMARK    2  A    between atoms: C_5  and  C_31
REMARK    3  A    between atoms: C_10  and  C_12
REMARK    4  A    between atoms: C_13  and  C_14
REMARK    5  A    between atoms: C_17  and  S_20
REMARK    6  A    between atoms: S_20  and  N_23
REMARK    7  A    between atoms: N_23  and  C_24
REMARK                            x       y       z     vdW  Elec       q    Type
REMARK                         _______ _______ _______ _____ _____    ______ ____
ROOT
ATOM      1  C   UNL     1       1.702   2.209   5.421  0.00  0.00    -0.025 A 
ATOM      2  C   UNL     1       0.362   1.826   5.533  0.00  0.00    +0.010 A 
ATOM      3  C   UNL     1      -0.381   2.238   6.619  0.00  0.00    +0.029 A 
ATOM      4  C   UNL     1       0.196   3.028   7.598  0.00  0.00    +0.110 A 
ATOM      5  C   UNL     1       1.522   3.412   7.494  0.00  0.00    +0.029 A 
ATOM      6  C   UNL     1       2.280   3.003   6.417  0.00  0.00    +0.010 A 
ENDROOT
BRANCH   4   7
ATOM      7  S   UNL     1      -0.761   3.549   8.982  0.00  0.00    +0.092 S 
ATOM      8  O   UNL     1      -0.147   4.730   9.479  0.00  0.00    -0.148 OA
ATOM      9  O   UNL     1      -2.121   3.513   8.571  0.00  0.00    -0.148 OA
BRANCH   7  10
ATOM     10  N   UNL     1      -0.591   2.396  10.157  0.00  0.00    -0.096 NA
BRANCH  10  11
ATOM     11  C   UNL     1      -1.246   2.545  11.383  0.00  0.00    +0.093 A 
ATOM     12  C   UNL     1      -2.046   3.657  11.614  0.00  0.00    +0.028 A 
ATOM     13  C   UNL     1      -2.692   3.801  12.826  0.00  0.00    +0.002 A 
ATOM     14  C   UNL     1      -2.545   2.840  13.809  0.00  0.00    +0.002 A 
ATOM     15  C   UNL     1      -1.750   1.731  13.583  0.00  0.00    +0.022 A 
ATOM     16  C   UNL     1      -1.104   1.577  12.371  0.00  0.00    +0.065 A 
ATOM     17 CL   UNL     1      -0.112   0.182  12.085  0.00  0.00    -0.082 Cl
ENDBRANCH  10  11
ENDBRANCH   7  10
ENDBRANCH   4   7
BRANCH   1  19
ATOM     18  C   UNL     1       1.942   1.009   3.307  0.00  0.00    +0.068 C 
ATOM     19  C   UNL     1       2.502   1.774   4.265  0.00  0.00    +0.013 C 
BRANCH  18  27
ATOM     20  C   UNL     1       3.490  -2.707   0.830  0.00  0.00    +0.009 C 
ATOM     21  C   UNL     1       2.797  -1.952  -0.306  0.00  0.00    +0.004 C 
ATOM     22  C   UNL     1       1.320  -2.347  -0.357  0.00  0.00    +0.009 C 
ATOM     23  C   UNL     1       0.658  -2.024   0.985  0.00  0.00    +0.004 C 
ATOM     24  C   UNL     1       0.747  -0.517   1.244  0.00  0.00    +0.111 C 
ATOM     25  N   UNL     1       2.153  -0.103   1.150  0.00  0.00    -0.297 N 
ATOM     26  C   UNL     1       2.911  -0.444  -0.062  0.00  0.00    +0.111 C 
ATOM     27  C   UNL     1       2.738   0.577   2.157  0.00  0.00    +0.239 C 
ATOM     28  O   UNL     1       3.927   0.831   2.109  0.00  0.00    -0.271 OA
ATOM     29  C   UNL     1      -0.811  -2.451   0.945  0.00  0.00    +0.009 C 
ENDBRANCH  18  27
ENDBRANCH   1  19
TORSDOF 5
