REMARK  Name = ZINC58457919
REMARK  9 active torsions:
REMARK  status: ('A' for Active; 'I' for Inactive)
REMARK    1  A    between atoms: C_1  and  C_2
REMARK    2  A    between atoms: C_2  and  C_25
REMARK    3  A    between atoms: N_5  and  C_9
REMARK    4  A    between atoms: C_9  and  C_10
REMARK    5  A    between atoms: N_12  and  C_13
REMARK    6  A    between atoms: N_12  and  C_18
REMARK    7  A    between atoms: C_13  and  C_14
REMARK    8  A    between atoms: C_14  and  C_15
REMARK    9  A    between atoms: C_18  and  C_19
REMARK                            x       y       z     vdW  Elec       q    Type
REMARK                         _______ _______ _______ _____ _____    ______ ____
ROOT
ATOM      1  C   UNL     1      -0.024   1.521  -0.112  0.00  0.00    +0.047 C 
ATOM      2  C   UNL     1       0.002  -0.004   0.002  0.00  0.00    +0.136 C 
ATOM      3  C   UNL     1       0.750  -0.614  -1.167  0.00  0.00    +0.251 C 
ATOM      4  O   UNL     1       0.464  -0.532  -2.342  0.00  0.00    -0.272 OA
ATOM      5  N   UNL     1       1.799  -1.266  -0.628  0.00  0.00    -0.215 N 
ATOM      6  C   UNL     1       1.818  -1.154   0.705  0.00  0.00    +0.310 C 
ATOM      7  O   UNL     1       2.668  -1.657   1.413  0.00  0.00    -0.252 OA
ATOM      8  N   UNL     1       0.791  -0.422   1.174  0.00  0.00    -0.281 N 
ATOM      9  H   UNL     1       0.606  -0.211   2.102  0.00  0.00    +0.152 HD
ENDROOT
BRANCH   2  10
ATOM     10  C   UNL     1      -1.399  -0.552   0.083  0.00  0.00    -0.008 A 
ATOM     11  C   UNL     1      -1.792  -1.269   1.172  0.00  0.00    +0.007 A 
ATOM     12  C   UNL     1      -3.083  -1.784   1.264  0.00  0.00    +0.001 A 
ATOM     13  C   UNL     1      -3.990  -1.585   0.269  0.00  0.00    +0.008 A 
ATOM     14  C   UNL     1      -3.622  -0.850  -0.870  0.00  0.00    -0.018 A 
ATOM     15  C   UNL     1      -2.310  -0.321  -0.962  0.00  0.00    -0.012 A 
ATOM     16  C   UNL     1      -1.943   0.420  -2.099  0.00  0.00    +0.009 A 
ATOM     17  C   UNL     1      -2.852   0.624  -3.091  0.00  0.00    +0.001 A 
ATOM     18  C   UNL     1      -4.144   0.109  -2.998  0.00  0.00    +0.001 A 
ATOM     19  C   UNL     1      -4.530  -0.624  -1.919  0.00  0.00    +0.008 A 
ENDBRANCH   2  10
BRANCH   5  20
ATOM     20  C   UNL     1       2.796  -2.006  -1.406  0.00  0.00    +0.213 C 
BRANCH  20  21
ATOM     21  C   UNL     1       3.925  -1.083  -1.784  0.00  0.00    +0.234 C 
ATOM     22  O   UNL     1       3.901   0.079  -1.437  0.00  0.00    -0.274 OA
ATOM     23  N   UNL     1       4.963  -1.549  -2.507  0.00  0.00    -0.295 N 
BRANCH  23  24
ATOM     24  C   UNL     1       4.993  -2.953  -2.925  0.00  0.00    +0.117 C 
BRANCH  24  25
ATOM     25  C   UNL     1       4.312  -3.093  -4.288  0.00  0.00    +0.114 C 
BRANCH  25  26
ATOM     26  C   UNL     1       4.343  -4.537  -4.719  0.00  0.00    +0.212 C 
ATOM     27  O   UNL     1       4.858  -5.371  -4.006  0.00  0.00    -0.276 OA
ATOM     28  N   UNL     1       3.797  -4.900  -5.896  0.00  0.00    -0.329 N 
ATOM     29  H   UNL     1       3.384  -4.233  -6.466  0.00  0.00    +0.145 HD
ATOM     30  H   UNL     1       3.817  -5.830  -6.173  0.00  0.00    +0.145 HD
ENDBRANCH  25  26
ENDBRANCH  24  25
ENDBRANCH  23  24
BRANCH  23  31
ATOM     31  C   UNL     1       6.061  -0.651  -2.874  0.00  0.00    +0.143 C 
BRANCH  31  32
ATOM     32  C   UNL     1       7.119  -0.687  -1.801  0.00  0.00    -0.030 A 
ATOM     33  C   UNL     1       7.055   0.194  -0.737  0.00  0.00    +0.005 A 
ATOM     34  C   UNL     1       8.025   0.162   0.247  0.00  0.00    +0.000 A 
ATOM     35  C   UNL     1       9.059  -0.752   0.168  0.00  0.00    +0.000 A 
ATOM     36  C   UNL     1       9.123  -1.634  -0.895  0.00  0.00    +0.000 A 
ATOM     37  C   UNL     1       8.150  -1.604  -1.877  0.00  0.00    +0.005 A 
ENDBRANCH  31  32
ENDBRANCH  23  31
ENDBRANCH  20  21
ENDBRANCH   5  20
TORSDOF 8
