REMARK  Name = ZINC65237789
REMARK  7 active torsions:
REMARK  status: ('A' for Active; 'I' for Inactive)
REMARK    1  A    between atoms: C_1  and  C_2
REMARK    2  A    between atoms: C_2  and  C_4
REMARK    3  A    between atoms: C_2  and  N_13
REMARK    4  A    between atoms: C_7  and  C_10
REMARK    5  A    between atoms: C_10  and  C_11
REMARK    6  A    between atoms: C_10  and  C_12
REMARK    7  A    between atoms: C_14  and  C_16
REMARK                            x       y       z     vdW  Elec       q    Type
REMARK                         _______ _______ _______ _____ _____    ______ ____
ROOT
ATOM      1  C   UNL     1       2.761  -1.085   2.359  0.00  0.00    +0.153 C 
ATOM      2  N   UNL     1       2.216  -1.446   3.485  0.00  0.00    -0.166 NA
ATOM      3  N   UNL     1       3.176  -1.840   4.426  0.00  0.00    -0.184 N 
ATOM      4  N   UNL     1       4.435  -1.507   3.947  0.00  0.00    -0.218 N 
ATOM      5  C   UNL     1       4.254  -1.262   2.494  0.00  0.00    +0.236 C 
ATOM      6  C   UNL     1       4.992   0.013   2.174  0.00  0.00    +0.246 C 
ATOM      7  O   UNL     1       4.636   0.698   1.239  0.00  0.00    -0.273 OA
ATOM      8  N   UNL     1       6.047   0.396   2.922  0.00  0.00    -0.282 N 
ATOM      9  C   UNL     1       6.501  -0.350   4.016  0.00  0.00    +0.056 A 
ATOM     10  C   UNL     1       5.664  -1.329   4.573  0.00  0.00    +0.071 A 
ATOM     11  C   UNL     1       6.077  -2.062   5.664  0.00  0.00    +0.026 A 
ATOM     12  C   UNL     1       7.327  -1.830   6.213  0.00  0.00    +0.002 A 
ATOM     13  C   UNL     1       8.155  -0.866   5.668  0.00  0.00    +0.002 A 
ATOM     14  C   UNL     1       7.752  -0.136   4.566  0.00  0.00    +0.025 A 
ATOM     15  H   UNL     1       2.991  -2.273   5.274  0.00  0.00    +0.193 HD
ATOM     16  H   UNL     1       6.508   1.218   2.694  0.00  0.00    +0.155 HD
ENDROOT
BRANCH   1  18
ATOM     17  N   UNL     1       0.711  -0.489   1.189  0.00  0.00    -0.304 N 
ATOM     18  C   UNL     1       2.054  -0.600   1.174  0.00  0.00    +0.263 C 
ATOM     19  O   UNL     1       2.678  -0.296   0.174  0.00  0.00    -0.269 OA
ATOM     20  H   UNL     1       0.213  -0.731   1.986  0.00  0.00    +0.150 HD
BRANCH  17  22
ATOM     21  C   UNL     1      -0.019   1.526   0.010  0.00  0.00    +0.033 C 
ATOM     22  C   UNL     1       0.002  -0.004   0.002  0.00  0.00    +0.100 C 
BRANCH  22  23
ATOM     23  C   UNL     1      -1.412  -0.526   0.013  0.00  0.00    -0.027 A 
ATOM     24  C   UNL     1      -2.123  -0.571   1.197  0.00  0.00    +0.006 A 
ATOM     25  C   UNL     1      -3.420  -1.049   1.207  0.00  0.00    +0.004 A 
ATOM     26  C   UNL     1      -4.006  -1.482   0.032  0.00  0.00    -0.045 A 
ATOM     27  C   UNL     1      -3.295  -1.436  -1.153  0.00  0.00    +0.004 A 
ATOM     28  C   UNL     1      -2.000  -0.954  -1.163  0.00  0.00    +0.006 A 
BRANCH  26  29
ATOM     29  C   UNL     1      -5.419  -2.005   0.043  0.00  0.00    +0.013 C 
ATOM     30  C   UNL     1      -6.288  -1.144  -0.876  0.00  0.00    +0.012 C 
ATOM     31  C   UNL     1      -5.431  -3.452  -0.452  0.00  0.00    +0.012 C 
ENDBRANCH  26  29
ENDBRANCH  22  23
ENDBRANCH  17  22
ENDBRANCH   1  18
TORSDOF 4
