REMARK  Name = ZINC37443381
REMARK  5 active torsions:
REMARK  status: ('A' for Active; 'I' for Inactive)
REMARK    1  A    between atoms: C_1  and  C_2
REMARK    2  A    between atoms: C_8  and  N_10
REMARK    3  A    between atoms: C_11  and  C_13
REMARK    4  A    between atoms: C_13  and  C_33
REMARK    5  A    between atoms: N_25  and  C_26
REMARK                            x       y       z     vdW  Elec       q    Type
REMARK                         _______ _______ _______ _____ _____    ______ ____
ROOT
ATOM      1  C   UNL     1       3.922   0.547   2.378  0.00  0.00    +0.129 C 
ATOM      2  C   UNL     1       3.732   2.052   2.571  0.00  0.00    +0.157 C 
ATOM      3  N   UNL     1       3.570   2.688   1.260  0.00  0.00    -0.331 N 
ATOM      4  C   UNL     1       2.884   3.812   0.910  0.00  0.00    +0.088 A 
ATOM      5  C   UNL     1       2.062   4.873   1.361  0.00  0.00    +0.067 A 
ATOM      6  C   UNL     1       1.782   5.642   0.294  0.00  0.00    +0.198 A 
ATOM      7  O   UNL     1       2.377   5.129  -0.795  0.00  0.00    -0.461 OA
ATOM      8  C   UNL     1       3.056   4.011  -0.459  0.00  0.00    +0.153 A 
ATOM      9  C   UNL     1       3.862   2.970  -0.942  0.00  0.00    +0.079 A 
ATOM     10  C   UNL     1       4.165   2.163   0.115  0.00  0.00    +0.109 A 
ATOM     11  C   UNL     1       4.952   0.926   0.177  0.00  0.00    +0.264 C 
ATOM     12  O   UNL     1       5.620   0.542  -0.765  0.00  0.00    -0.268 OA
ATOM     13  N   UNL     1       4.897   0.234   1.340  0.00  0.00    -0.278 N 
ATOM     14  C   UNL     1       4.395  -0.062   3.700  0.00  0.00    +0.043 C 
ENDROOT
BRANCH  13  15
ATOM     15  C   UNL     1       5.844  -0.862   1.561  0.00  0.00    +0.078 C 
ATOM     16  C   UNL     1       7.280  -0.317   1.421  0.00  0.00    +0.022 C 
ATOM     17  C   UNL     1       8.219  -1.258   2.127  0.00  0.00    +0.002 C 
ATOM     18  C   UNL     1       8.830  -2.304   1.175  0.00  0.00    +0.000 C 
ATOM     19  C   UNL     1       7.804  -2.874   0.177  0.00  0.00    +0.000 C 
ATOM     20  C   UNL     1       6.472  -3.155   0.817  0.00  0.00    +0.002 C 
ATOM     21  C   UNL     1       5.561  -1.928   0.612  0.00  0.00    +0.022 C 
ENDBRANCH  13  15
BRANCH   1  23
ATOM     22  N   UNL     1       2.226  -0.133   0.711  0.00  0.00    -0.310 N 
ATOM     23  C   UNL     1       2.598  -0.068   2.005  0.00  0.00    +0.238 C 
ATOM     24  O   UNL     1       1.867  -0.503   2.869  0.00  0.00    -0.273 OA
ATOM     25  H   UNL     1       2.811   0.215   0.020  0.00  0.00    +0.149 HD
BRANCH  22  32
ATOM     26  C   UNL     1       0.312   1.358  -0.870  0.00  0.00    +0.009 C 
ATOM     27  C   UNL     1       0.470  -0.159  -0.991  0.00  0.00    +0.006 C 
ATOM     28  C   UNL     1       1.504  -0.479  -2.072  0.00  0.00    +0.005 C 
ATOM     29  C   UNL     1       1.663  -1.996  -2.193  0.00  0.00    +0.000 C 
ATOM     30  C   UNL     1       2.131  -2.569  -0.854  0.00  0.00    +0.002 C 
ATOM     31  C   UNL     1       1.097  -2.248   0.228  0.00  0.00    +0.022 C 
ATOM     32  C   UNL     1       0.939  -0.731   0.348  0.00  0.00    +0.076 C 
ENDBRANCH  22  32
ENDBRANCH   1  23
TORSDOF 3
