REMARK  Name = ZINC05925230
REMARK  7 active torsions:
REMARK  status: ('A' for Active; 'I' for Inactive)
REMARK    1  A    between atoms: C_1  and  C_2
REMARK    2  A    between atoms: C_2  and  C_3
REMARK    3  A    between atoms: C_3  and  N_4
REMARK    4  A    between atoms: C_17  and  C_21
REMARK    5  A    between atoms: C_21  and  C_22
REMARK    6  A    between atoms: C_21  and  C_23
REMARK    7  A    between atoms: C_21  and  C_24
REMARK                            x       y       z     vdW  Elec       q    Type
REMARK                         _______ _______ _______ _____ _____    ______ ____
ROOT
ATOM      1  N   UNL     1       2.347  -0.024  -0.019  0.00  0.00    -0.288 N 
ATOM      2  C   UNL     1       2.417   1.319  -0.013  0.00  0.00    +0.263 A 
ATOM      3  O   UNL     1       3.497   1.880  -0.020  0.00  0.00    -0.267 OA
ATOM      4  C   UNL     1       1.164   2.107   0.002  0.00  0.00    +0.074 A 
ATOM      5  C   UNL     1       1.002   3.561   0.010  0.00  0.00    -0.023 A 
ATOM      6  C   UNL     1      -0.269   4.011   0.024  0.00  0.00    -0.004 A 
ATOM      7  S   UNL     1      -1.268   2.549   0.035  0.00  0.00    -0.075 S 
ATOM      8  C   UNL     1      -0.017   1.364   0.009  0.00  0.00    +0.092 A 
ATOM      9  N   UNL     1       0.002  -0.004   0.002  0.00  0.00    -0.329 N 
ATOM     10  H   UNL     1      -0.860  -0.512   0.007  0.00  0.00    +0.168 HD
ATOM     11  C   UNL     1       1.171  -0.673  -0.012  0.00  0.00    +0.161 A 
ATOM     12  S   UNL     1       1.158  -2.385  -0.022  0.00  0.00    -0.013 S 
ATOM     13  C   UNL     1      -0.723   5.439   0.032  0.00  0.00    +0.046 C 
ATOM     14  C   UNL     1       0.469   6.326  -0.355  0.00  0.00    -0.000 C 
ATOM     15  C   UNL     1       1.689   5.902   0.468  0.00  0.00    +0.009 C 
ATOM     16  C   UNL     1       2.179   4.529   0.003  0.00  0.00    +0.037 C 
ENDROOT
BRANCH  14  17
ATOM     17  C   UNL     1       0.136   7.790  -0.061  0.00  0.00    -0.035 C 
ATOM     18  C   UNL     1      -0.157   7.956   1.432  0.00  0.00    +0.011 C 
ATOM     19  C   UNL     1      -1.093   8.207  -0.871  0.00  0.00    +0.011 C 
ATOM     20  C   UNL     1       1.325   8.672  -0.448  0.00  0.00    +0.011 C 
ENDBRANCH  14  17
BRANCH   1  21
ATOM     21  C   UNL     1       3.589  -0.801  -0.034  0.00  0.00    +0.127 C 
BRANCH  21  23
ATOM     22  C   UNL     1       5.306  -1.876  -1.497  0.00  0.00    +0.005 C 
ATOM     23  C   UNL     1       4.009  -1.064  -1.481  0.00  0.00    +0.018 C 
ENDBRANCH  21  23
ENDBRANCH   1  21
TORSDOF 3
