REMARK  Name = ZINC07530609
REMARK  11 active torsions:
REMARK  status: ('A' for Active; 'I' for Inactive)
REMARK    1  A    between atoms: C_1  and  C_2
REMARK    2  A    between atoms: C_4  and  C_24
REMARK    3  A    between atoms: C_10  and  S_13
REMARK    4  A    between atoms: N_11  and  N_12
REMARK    5  A    between atoms: S_13  and  C_14
REMARK    6  A    between atoms: C_14  and  C_15
REMARK    7  A    between atoms: N_17  and  C_18
REMARK    8  A    between atoms: C_18  and  C_20
REMARK    9  A    between atoms: C_18  and  C_21
REMARK   10  A    between atoms: C_21  and  C_22
REMARK   11  A    between atoms: C_21  and  C_23
REMARK                            x       y       z     vdW  Elec       q    Type
REMARK                         _______ _______ _______ _____ _____    ______ ____
ROOT
ATOM      1  C   UNL     1       0.772 -10.761   8.601  0.00  0.00    +0.067 C 
ATOM      2  C   UNL     1       0.635  -9.994   7.311  0.00  0.00    +0.061 A 
ATOM      3  C   UNL     1       0.517 -10.555   6.035  0.00  0.00    +0.048 A 
ATOM      4  C   UNL     1       0.415  -9.542   5.142  0.00  0.00    +0.045 A 
ATOM      5  N   UNL     1       0.467  -8.376   5.836  0.00  0.00    -0.201 N 
ATOM      6  N   UNL     1       0.610  -8.691   7.194  0.00  0.00    -0.169 NA
ATOM      7  C   UNL     1       0.396  -7.092   5.293  0.00  0.00    +0.270 A 
ATOM      8  N   UNL     1       0.268  -6.791   4.026  0.00  0.00    -0.106 NA
ATOM      9  N   UNL     1       0.231  -5.515   3.879  0.00  0.00    -0.119 NA
ATOM     10  C   UNL     1       0.342  -4.925   5.045  0.00  0.00    +0.210 A 
ATOM     11  N   UNL     1       0.447  -5.911   5.987  0.00  0.00    -0.208 N 
ATOM     12  C   UNL     1       0.270  -9.684   3.649  0.00  0.00    +0.066 C 
ENDROOT
BRANCH  11  13
ATOM     13  N   UNL     1       0.577  -5.753   7.338  0.00  0.00    -0.293 N 
ATOM     14  H   UNL     1      -0.326  -5.723   7.787  0.00  0.00    +0.163 HD
ATOM     15  H   UNL     1       1.155  -6.479   7.733  0.00  0.00    +0.163 HD
ENDBRANCH  11  13
BRANCH  10  16
ATOM     16  S   UNL     1       0.346  -3.188   5.343  0.00  0.00    -0.075 S 
BRANCH  16  17
ATOM     17  C   UNL     1       0.173  -2.578   3.648  0.00  0.00    +0.173 C 
BRANCH  17  18
ATOM     18  C   UNL     1       0.153  -1.071   3.656  0.00  0.00    +0.224 C 
ATOM     19  O   UNL     1       0.246  -0.469   4.705  0.00  0.00    -0.275 OA
ATOM     20  N   UNL     1       0.031  -0.392   2.498  0.00  0.00    -0.312 N 
ATOM     21  H   UNL     1      -0.044  -0.874   1.659  0.00  0.00    +0.149 HD
BRANCH  20  22
ATOM     22  C   UNL     1       0.011   1.072   2.506  0.00  0.00    +0.072 C 
ATOM     23  C   UNL     1       1.446   1.602   2.495  0.00  0.00    +0.028 C 
BRANCH  22  24
ATOM     24  C   UNL     1      -0.729   1.579   1.267  0.00  0.00    +0.003 C 
ATOM     25  C   UNL     1      -0.013   1.086   0.008  0.00  0.00    +0.009 C 
ATOM     26  C   UNL     1      -0.750   3.109   1.275  0.00  0.00    +0.009 C 
ENDBRANCH  22  24
ENDBRANCH  20  22
ENDBRANCH  17  18
ENDBRANCH  16  17
ENDBRANCH  10  16
TORSDOF 6
