REMARK  Name = ZINC39442199
REMARK  10 active torsions:
REMARK  status: ('A' for Active; 'I' for Inactive)
REMARK    1  A    between atoms: C_1  and  C_2
REMARK    2  A    between atoms: C_2  and  C_3
REMARK    3  A    between atoms: C_2  and  C_4
REMARK    4  A    between atoms: C_2  and  C_5
REMARK    5  A    between atoms: C_8  and  C_10
REMARK    6  A    between atoms: C_10  and  N_11
REMARK    7  A    between atoms: C_12  and  C_14
REMARK    8  A    between atoms: C_14  and  C_15
REMARK    9  A    between atoms: N_22  and  C_23
REMARK   10  A    between atoms: C_23  and  C_24
REMARK                            x       y       z     vdW  Elec       q    Type
REMARK                         _______ _______ _______ _____ _____    ______ ____
ROOT
ATOM      1  C   UNL     1       4.571  -3.579  -7.746  0.00  0.00    +0.152 C 
ATOM      2  C   UNL     1       3.314  -4.338  -8.062  0.00  0.00    +0.231 C 
ATOM      3  O   UNL     1       2.353  -3.724  -8.477  0.00  0.00    -0.274 OA
ATOM      4  N   UNL     1       3.209  -5.662  -7.906  0.00  0.00    -0.313 N 
ATOM      5  C   UNL     1       4.293  -6.487  -7.381  0.00  0.00    +0.119 C 
ATOM      6  C   UNL     1       5.621  -5.734  -7.480  0.00  0.00    +0.104 C 
ATOM      7  N   UNL     1       5.447  -4.395  -6.895  0.00  0.00    -0.285 NA
ATOM      8  H   UNL     1       2.376  -6.093  -8.152  0.00  0.00    +0.149 HD
ENDROOT
BRANCH   1   9
ATOM      9  C   UNL     1       4.213  -2.284  -7.013  0.00  0.00    +0.124 C 
BRANCH   9  11
ATOM     10  N   UNL     1       3.261  -1.632  -4.825  0.00  0.00    -0.310 N 
ATOM     11  C   UNL     1       3.571  -2.617  -5.691  0.00  0.00    +0.215 C 
ATOM     12  O   UNL     1       3.332  -3.772  -5.406  0.00  0.00    -0.276 OA
ATOM     13  H   UNL     1       3.452  -0.709  -5.053  0.00  0.00    +0.149 HD
BRANCH  10  14
ATOM     14  C   UNL     1       2.637  -1.956  -3.540  0.00  0.00    +0.157 C 
BRANCH  14  18
ATOM     15  C   UNL     1       1.792   0.933  -1.132  0.00  0.00    +0.052 C 
ATOM     16  N   UNL     1       2.325   1.466  -2.181  0.00  0.00    -0.158 NA
ATOM     17  N   UNL     1       2.679   0.519  -3.136  0.00  0.00    -0.157 NA
ATOM     18  C   UNL     1       2.396  -0.686  -2.764  0.00  0.00    +0.064 C 
ATOM     19  C   UNL     1       1.778  -0.561  -1.386  0.00  0.00    +0.107 C 
BRANCH  15  21
ATOM     20  C   UNL     1       1.500   3.157  -0.073  0.00  0.00    +0.017 C 
ATOM     21  C   UNL     1       1.291   1.650   0.096  0.00  0.00    +0.003 C 
ATOM     22  C   UNL     1       2.065   1.163   1.322  0.00  0.00    +0.017 C 
ATOM     23  C   UNL     1      -0.199   1.360   0.284  0.00  0.00    +0.017 C 
ENDBRANCH  15  21
ENDBRANCH  14  18
ENDBRANCH  10  14
ENDBRANCH   9  11
ENDBRANCH   1   9
BRANCH   7  24
ATOM     24  C   UNL     1       6.746  -3.738  -6.693  0.00  0.00    +0.121 C 
BRANCH  24  25
ATOM     25  C   UNL     1       7.570  -4.544  -5.722  0.00  0.00    -0.015 A 
ATOM     26  C   UNL     1       7.527  -4.253  -4.371  0.00  0.00    +0.009 A 
ATOM     27  C   UNL     1       8.282  -4.992  -3.480  0.00  0.00    +0.039 A 
ATOM     28  C   UNL     1       9.084  -6.023  -3.941  0.00  0.00    +0.125 A 
ATOM     29  C   UNL     1       9.127  -6.314  -5.293  0.00  0.00    +0.058 A 
ATOM     30  C   UNL     1       8.366  -5.577  -6.183  0.00  0.00    +0.048 A 
ATOM     31 CL   UNL     1       8.415  -5.945  -7.879  0.00  0.00    -0.083 Cl
ATOM     32  F   UNL     1       9.824  -6.744  -3.070  0.00  0.00    -0.205 F 
ENDBRANCH  24  25
ENDBRANCH   7  24
TORSDOF 7
