REMARK  Name = ZINC36325083
REMARK  10 active torsions:
REMARK  status: ('A' for Active; 'I' for Inactive)
REMARK    1  A    between atoms: C_1  and  C_2
REMARK    2  A    between atoms: C_2  and  C_3
REMARK    3  A    between atoms: C_2  and  C_4
REMARK    4  A    between atoms: N_6  and  C_7
REMARK    5  A    between atoms: C_7  and  C_8
REMARK    6  A    between atoms: C_8  and  N_9
REMARK    7  A    between atoms: N_9  and  C_10
REMARK    8  A    between atoms: C_10  and  C_11
REMARK    9  A    between atoms: C_14  and  O_18
REMARK   10  A    between atoms: O_18  and  C_19
REMARK                            x       y       z     vdW  Elec       q    Type
REMARK                         _______ _______ _______ _____ _____    ______ ____
ROOT
ATOM      1  N   UNL     1      -5.748  -0.715  -2.207  0.00  0.00    +0.383 N 
ATOM      2  H   UNL     1      -5.734  -1.724  -2.213  0.00  0.00    -0.085 HD
ATOM      3  H   UNL     1      -6.220  -0.389  -1.377  0.00  0.00    -0.085 HD
ENDROOT
BRANCH   1   4
ATOM      4  C   UNL     1      -4.370  -0.206  -2.217  0.00  0.00    -0.063 C 
BRANCH   4   5
ATOM      5  C   UNL     1      -3.630  -0.713  -0.978  0.00  0.00    +0.085 C 
BRANCH   5   8
ATOM      6  C   UNL     1      -1.412  -0.526   0.013  0.00  0.00    +0.216 C 
ATOM      7  O   UNL     1      -1.790  -1.233   0.922  0.00  0.00    -0.276 OA
ATOM      8  N   UNL     1      -2.256  -0.206  -0.988  0.00  0.00    -0.317 N 
ATOM      9  H   UNL     1      -1.953   0.360  -1.716  0.00  0.00    +0.149 HD
BRANCH   6  11
ATOM     10  C   UNL     1      -0.019   1.526   0.010  0.00  0.00    +0.017 C 
ATOM     11  C   UNL     1       0.002  -0.004   0.002  0.00  0.00    +0.069 C 
ATOM     12  C   UNL     1       0.742  -0.511   1.242  0.00  0.00    +0.017 C 
ENDBRANCH   6  11
ENDBRANCH   5   8
ENDBRANCH   4   5
ENDBRANCH   1   4
BRANCH   1  13
ATOM     13  C   UNL     1      -6.459  -0.228  -3.397  0.00  0.00    -0.047 C 
BRANCH  13  14
ATOM     14  C   UNL     1      -7.872  -0.750  -3.386  0.00  0.00    -0.062 A 
ATOM     15  C   UNL     1      -8.165  -1.961  -3.984  0.00  0.00    +0.020 A 
ATOM     16  C   UNL     1      -9.461  -2.442  -3.976  0.00  0.00    +0.061 A 
ATOM     17  C   UNL     1     -10.469  -1.707  -3.367  0.00  0.00    +0.148 A 
ATOM     18  C   UNL     1     -10.172  -0.492  -2.768  0.00  0.00    +0.061 A 
ATOM     19  C   UNL     1      -8.873  -0.018  -2.774  0.00  0.00    +0.020 A 
ATOM     20 BR   UNL     1     -11.541   0.513  -1.936  0.00  0.00    -0.046 Br
ATOM     21 BR   UNL     1      -9.861  -4.099  -4.795  0.00  0.00    -0.046 Br
BRANCH  17  22
ATOM     22  O   UNL     1     -11.744  -2.178  -3.358  0.00  0.00    -0.493 OA
ATOM     23  C   UNL     1     -12.125  -3.001  -2.254  0.00  0.00    +0.277 C 
ENDBRANCH  17  22
ENDBRANCH  13  14
ENDBRANCH   1  13
TORSDOF 7
