REMARK  Name = ZINC36008367
REMARK  9 active torsions:
REMARK  status: ('A' for Active; 'I' for Inactive)
REMARK    1  A    between atoms: C_1  and  C_2
REMARK    2  A    between atoms: C_4  and  C_25
REMARK    3  A    between atoms: C_6  and  N_24
REMARK    4  A    between atoms: C_7  and  C_11
REMARK    5  A    between atoms: N_13  and  C_14
REMARK    6  A    between atoms: C_16  and  N_21
REMARK    7  A    between atoms: C_19  and  O_20
REMARK    8  A    between atoms: C_25  and  O_26
REMARK    9  A    between atoms: O_26  and  C_27
REMARK                            x       y       z     vdW  Elec       q    Type
REMARK                         _______ _______ _______ _____ _____    ______ ____
ROOT
ATOM      1  C   UNL     1       0.050   1.502   0.007  0.00  0.00    +0.065 C 
ATOM      2  C   UNL     1       0.059  -0.005  -0.001  0.00  0.00    +0.040 A 
ATOM      3  C   UNL     1       0.063  -0.688  -1.208  0.00  0.00    +0.029 A 
ATOM      4  C   UNL     1       0.072  -2.062  -1.230  0.00  0.00    -0.009 A 
ATOM      5  C   UNL     1       0.078  -2.769  -0.001  0.00  0.00    +0.034 A 
ATOM      6  C   UNL     1       0.088  -4.207   0.220  0.00  0.00    +0.054 A 
ATOM      7  C   UNL     1       0.093  -4.668   1.518  0.00  0.00    +0.097 A 
ATOM      8  S   UNL     1       0.084  -3.174   2.487  0.00  0.00    -0.062 S 
ATOM      9  C   UNL     1       0.074  -1.981   1.172  0.00  0.00    +0.111 A 
ATOM     10  N   UNL     1       0.070  -0.665   1.140  0.00  0.00    -0.245 NA
ENDROOT
BRANCH   7  11
ATOM     11  C   UNL     1       0.103  -6.011   1.972  0.00  0.00    +0.257 C 
ATOM     12  O   UNL     1       0.109  -6.926   1.169  0.00  0.00    -0.269 OA
ATOM     13  N   UNL     1       0.107  -6.274   3.294  0.00  0.00    -0.278 N 
ATOM     14  H   UNL     1       0.168  -5.547   3.933  0.00  0.00    +0.155 HD
BRANCH  13  15
ATOM     15  C   UNL     1       0.022  -7.598   3.744  0.00  0.00    +0.078 A 
ATOM     16  C   UNL     1       0.624  -8.618   3.022  0.00  0.00    +0.059 A 
ATOM     17  C   UNL     1       0.539  -9.923   3.469  0.00  0.00    +0.128 A 
ATOM     18  C   UNL     1      -0.144 -10.216   4.634  0.00  0.00    +0.036 A 
ATOM     19  C   UNL     1      -0.746  -9.204   5.360  0.00  0.00    +0.049 A 
ATOM     20  C   UNL     1      -0.661  -7.892   4.922  0.00  0.00    +0.138 A 
BRANCH  17  21
ATOM     21  N   UNL     1       1.182 -11.011   2.697  0.00  0.00    +0.056 N 
ATOM     22  O   UNL     1       1.779 -10.757   1.677  0.00  0.00    -0.126 OA
ATOM     23  O   UNL     1       1.109 -12.153   3.086  0.00  0.00    -0.126 OA
ENDBRANCH  17  21
BRANCH  20  24
ATOM     24  O   UNL     1      -1.248  -6.896   5.637  0.00  0.00    -0.505 OA
ATOM     25  H   UNL     1      -2.164  -6.717   5.383  0.00  0.00    +0.292 HD
ENDBRANCH  20  24
ENDBRANCH  13  15
ENDBRANCH   7  11
BRANCH   6  26
ATOM     26  N   UNL     1       0.093  -5.091  -0.850  0.00  0.00    -0.356 N 
ATOM     27  H   UNL     1       0.089  -4.752  -1.759  0.00  0.00    +0.142 HD
ATOM     28  H   UNL     1       0.100  -6.047  -0.689  0.00  0.00    +0.142 HD
ENDBRANCH   6  26
BRANCH   4  29
ATOM     29  C   UNL     1       0.075  -2.807  -2.540  0.00  0.00    +0.195 C 
BRANCH  29  30
ATOM     30  O   UNL     1       0.067  -1.871  -3.620  0.00  0.00    -0.378 OA
ATOM     31  C   UNL     1       0.069  -2.476  -4.914  0.00  0.00    +0.194 C 
ENDBRANCH  29  30
ENDBRANCH   4  29
TORSDOF 7
