REMARK  Name = ZINC50052779
REMARK  7 active torsions:
REMARK  status: ('A' for Active; 'I' for Inactive)
REMARK    1  A    between atoms: C_1  and  C_2
REMARK    2  A    between atoms: C_2  and  C_3
REMARK    3  A    between atoms: C_2  and  C_4
REMARK    4  A    between atoms: C_4  and  N_5
REMARK    5  A    between atoms: C_6  and  C_8
REMARK    6  A    between atoms: C_8  and  N_9
REMARK    7  A    between atoms: N_12  and  C_13
REMARK                            x       y       z     vdW  Elec       q    Type
REMARK                         _______ _______ _______ _____ _____    ______ ____
ROOT
ATOM      1  N   UNL     1      -6.876  -2.201  -1.963  0.00  0.00    -0.291 N 
ATOM      2  C   UNL     1      -7.684  -1.969  -3.017  0.00  0.00    +0.304 C 
ATOM      3  O   UNL     1      -8.553  -2.770  -3.304  0.00  0.00    -0.252 OA
ATOM      4  N   UNL     1      -7.530  -0.850  -3.751  0.00  0.00    -0.269 N 
ATOM      5  H   UNL     1      -6.183  -1.562  -1.734  0.00  0.00    +0.151 HD
ATOM      6  H   UNL     1      -6.883  -0.179  -3.483  0.00  0.00    +0.156 HD
ENDROOT
BRANCH   4   7
ATOM      7  C   UNL     1      -8.305  -0.655  -4.903  0.00  0.00    +0.038 A 
ATOM      8  C   UNL     1      -7.758  -0.015  -6.007  0.00  0.00    +0.027 A 
ATOM      9  C   UNL     1      -8.521   0.177  -7.143  0.00  0.00    +0.051 A 
ATOM     10  C   UNL     1      -9.832  -0.268  -7.184  0.00  0.00    +0.167 A 
ATOM     11  C   UNL     1     -10.383  -0.911  -6.078  0.00  0.00    +0.169 A 
ATOM     12  C   UNL     1      -9.616  -1.108  -4.942  0.00  0.00    +0.073 A 
ATOM     13  O   UNL     1     -11.674  -1.249  -6.367  0.00  0.00    -0.447 OA
ATOM     14  C   UNL     1     -12.028  -0.459  -7.512  0.00  0.00    +0.254 C 
ATOM     15  O   UNL     1     -10.779  -0.203  -8.168  0.00  0.00    -0.448 OA
ATOM     16  C   UNL     1     -12.678   0.849  -7.074  0.00  0.00    +0.093 C 
ATOM     17  C   UNL     1     -13.989   0.547  -6.342  0.00  0.00    +0.008 C 
ATOM     18  C   UNL     1     -14.927  -0.218  -7.277  0.00  0.00    +0.000 C 
ATOM     19  C   UNL     1     -14.272  -1.536  -7.695  0.00  0.00    +0.008 C 
ATOM     20  C   UNL     1     -12.961  -1.243  -8.429  0.00  0.00    +0.093 C 
ENDBRANCH   4   7
BRANCH   1  21
ATOM     21  C   UNL     1      -7.044  -3.417  -1.164  0.00  0.00    +0.201 C 
BRANCH  21  23
ATOM     22  N   UNL     1      -5.989  -4.466   0.812  0.00  0.00    -0.314 N 
ATOM     23  C   UNL     1      -6.024  -3.435  -0.055  0.00  0.00    +0.230 C 
ATOM     24  O   UNL     1      -5.234  -2.521   0.057  0.00  0.00    -0.274 OA
ATOM     25  H   UNL     1      -6.620  -5.197   0.722  0.00  0.00    +0.149 HD
BRANCH  22  26
ATOM     26  C   UNL     1      -4.997  -4.483   1.890  0.00  0.00    +0.107 C 
BRANCH  26  28
ATOM     27  C   UNL     1      -4.855  -6.977   1.863  0.00  0.00    +0.009 C 
ATOM     28  C   UNL     1      -5.173  -5.753   2.724  0.00  0.00    -0.000 C 
ATOM     29  C   UNL     1      -4.222  -5.712   3.922  0.00  0.00    +0.009 C 
ENDBRANCH  26  28
ENDBRANCH  22  26
ENDBRANCH  21  23
ENDBRANCH   1  21
TORSDOF 5
