REMARK  Name = ZINC44458289
REMARK  6 active torsions:
REMARK  status: ('A' for Active; 'I' for Inactive)
REMARK    1  A    between atoms: C_1  and  C_2
REMARK    2  A    between atoms: C_5  and  N_12
REMARK    3  A    between atoms: C_8  and  C_10
REMARK    4  A    between atoms: C_8  and  C_11
REMARK    5  A    between atoms: C_13  and  C_15
REMARK    6  A    between atoms: N_24  and  C_25
REMARK                            x       y       z     vdW  Elec       q    Type
REMARK                         _______ _______ _______ _____ _____    ______ ____
ROOT
ATOM      1  N   UNL     1       1.421  -2.512  -2.463  0.00  0.00    -0.312 N 
ATOM      2  C   UNL     1       0.741  -2.639  -3.619  0.00  0.00    +0.218 C 
ATOM      3  O   UNL     1      -0.440  -2.366  -3.662  0.00  0.00    -0.275 OA
ATOM      4  H   UNL     1       2.365  -2.731  -2.429  0.00  0.00    +0.149 HD
ENDROOT
BRANCH   2   5
ATOM      5  C   UNL     1       1.448  -3.121  -4.860  0.00  0.00    +0.092 C 
ATOM      6  C   UNL     1       0.456  -3.176  -6.024  0.00  0.00    +0.016 C 
ATOM      7  C   UNL     1       1.180  -3.634  -7.292  0.00  0.00    +0.020 C 
ATOM      8  C   UNL     1       1.747  -5.040  -7.073  0.00  0.00    +0.109 C 
ATOM      9  N   UNL     1       2.588  -5.028  -5.868  0.00  0.00    -0.285 N 
ATOM     10  C   UNL     1       2.018  -4.521  -4.613  0.00  0.00    +0.122 C 
ATOM     11  C   UNL     1       3.860  -5.473  -5.914  0.00  0.00    +0.302 C 
ATOM     12  O   UNL     1       4.576  -5.370  -4.937  0.00  0.00    -0.253 OA
ATOM     13  N   UNL     1       4.337  -6.032  -7.044  0.00  0.00    -0.296 N 
ATOM     14  H   UNL     1       3.791  -6.049  -7.845  0.00  0.00    +0.151 HD
BRANCH  13  15
ATOM     15  C   UNL     1       5.681  -6.615  -7.061  0.00  0.00    +0.075 C 
ATOM     16  C   UNL     1       6.566  -6.315  -8.272  0.00  0.00    +0.024 C 
ATOM     17  C   UNL     1       5.964  -7.709  -8.092  0.00  0.00    +0.024 C 
ENDBRANCH  13  15
ENDBRANCH   2   5
BRANCH   1  21
ATOM     18  C   UNL     1      -0.025   1.504   0.032  0.00  0.00    +0.007 C 
ATOM     19  C   UNL     1      -0.005  -0.026   0.018  0.00  0.00    -0.012 C 
ATOM     20  C   UNL     1       0.713  -0.514  -1.242  0.00  0.00    +0.025 C 
ATOM     21  C   UNL     1       0.733  -2.044  -1.256  0.00  0.00    +0.074 C 
ATOM     22  C   UNL     1       1.472  -2.556  -0.018  0.00  0.00    +0.028 C 
ATOM     23  C   UNL     1       0.754  -2.067   1.242  0.00  0.00    -0.033 C 
ATOM     24  C   UNL     1       0.734  -0.537   1.256  0.00  0.00    +0.009 C 
ATOM     25  C   UNL     1       1.492  -2.579   2.481  0.00  0.00    +0.011 C 
ATOM     26  C   UNL     1      -0.682  -2.596   1.249  0.00  0.00    +0.011 C 
ENDBRANCH   1  21
TORSDOF 3
