REMARK  Name = ZINC49352892
REMARK  5 active torsions:
REMARK  status: ('A' for Active; 'I' for Inactive)
REMARK    1  A    between atoms: C_1  and  C_2
REMARK    2  A    between atoms: C_8  and  N_10
REMARK    3  A    between atoms: N_10  and  CA_11
REMARK    4  A    between atoms: CA_11  and  CB_13
REMARK    5  A    between atoms: CA_11  and  C_14
REMARK                            x       y       z     vdW  Elec       q    Type
REMARK                         _______ _______ _______ _____ _____    ______ ____
ROOT
ATOM      1  N   UNL     1       0.054  -0.037   2.450  0.00  0.00    +0.390 N 
ATOM      2  H1  UNL     1      -0.032   0.968   2.416  0.00  0.00    -0.084 HD
ATOM      3  H2  UNL     1      -0.864  -0.452   2.499  0.00  0.00    -0.084 HD
ENDROOT
BRANCH   1  10
ATOM      4  C   UNL     1      -0.019   1.526   0.010  0.00  0.00    +0.006 C 
ATOM      5  C   UNL     1       0.002  -0.004   0.002  0.00  0.00    -0.028 C 
ATOM      6  C   UNL     1       0.718  -0.497  -1.257  0.00  0.00    +0.002 C 
ATOM      7  C   UNL     1       0.739  -2.027  -1.265  0.00  0.00    +0.000 C 
ATOM      8  C   UNL     1       1.479  -2.534  -0.026  0.00  0.00    -0.002 C 
ATOM      9  C   UNL     1       0.763  -2.041   1.233  0.00  0.00    -0.015 C 
ATOM     10  C   ACE A   0       0.742  -0.511   1.242  0.00  0.00    -0.068 C 
ENDBRANCH   1  10
BRANCH   1  11
ATOM     11  CA  UNL     1       0.830  -0.422   3.637  0.00  0.00    +0.041 C 
ATOM     12  CB  UNL     1       2.175   0.306   3.625  0.00  0.00    -0.002 C 
BRANCH  11  13
ATOM     13  C   UNL     1       0.066  -0.045   4.880  0.00  0.00    +0.342 C 
ATOM     14  O   UNL     1      -1.024   0.494   4.786  0.00  0.00    -0.248 OA
ATOM     15  OXT UNL     1       0.537  -0.279   5.980  0.00  0.00    -0.248 OA
ENDBRANCH  11  13
ENDBRANCH   1  11
TORSDOF 3
