REMARK  Name = ZINC61639357
REMARK  6 active torsions:
REMARK  status: ('A' for Active; 'I' for Inactive)
REMARK    1  A    between atoms: C_1  and  C_2
REMARK    2  A    between atoms: C_2  and  C_3
REMARK    3  A    between atoms: C_3  and  C_4
REMARK    4  A    between atoms: N_8  and  C_12
REMARK    5  A    between atoms: C_12  and  C_13
REMARK    6  A    between atoms: C_17  and  N_19
REMARK                            x       y       z     vdW  Elec       q    Type
REMARK                         _______ _______ _______ _____ _____    ______ ____
ROOT
ATOM      1  C   UNL     1       0.739  -2.027  -1.265  0.00  0.00    +0.161 C 
ATOM      2  C   UNL     1       1.505  -2.544  -2.467  0.00  0.00    +0.244 C 
ATOM      3  O   UNL     1       2.673  -2.353  -2.728  0.00  0.00    -0.273 OA
ATOM      4  N   UNL     1       0.617  -3.260  -3.185  0.00  0.00    -0.219 N 
ATOM      5  C   UNL     1      -0.591  -3.268  -2.609  0.00  0.00    +0.309 C 
ATOM      6  O   UNL     1      -1.555  -3.848  -3.070  0.00  0.00    -0.252 OA
ATOM      7  N   UNL     1      -0.620  -2.563  -1.460  0.00  0.00    -0.288 N 
ATOM      8  H   UNL     1      -1.383  -2.433  -0.875  0.00  0.00    +0.151 HD
ENDROOT
BRANCH   1   9
ATOM      9  C   UNL     1       0.718  -0.497  -1.257  0.00  0.00    +0.031 C 
BRANCH   9  11
ATOM     10  C   UNL     1      -0.019   1.526   0.010  0.00  0.00    +0.004 C 
ATOM     11  C   UNL     1       0.002  -0.004   0.002  0.00  0.00    -0.001 C 
ENDBRANCH   9  11
ENDBRANCH   1   9
BRANCH   4  12
ATOM     12  C   UNL     1       0.935  -3.945  -4.440  0.00  0.00    +0.174 C 
BRANCH  12  13
ATOM     13  C   UNL     1       1.399  -5.348  -4.144  0.00  0.00    +0.079 A 
ATOM     14  C   UNL     1       2.742  -5.591  -3.930  0.00  0.00    +0.064 A 
ATOM     15  C   UNL     1       3.163  -6.886  -3.657  0.00  0.00    +0.025 A 
ATOM     16  C   UNL     1       2.215  -7.893  -3.609  0.00  0.00    +0.045 A 
ATOM     17  C   UNL     1       0.880  -7.575  -3.834  0.00  0.00    +0.117 A 
ATOM     18  N   UNL     1       0.517  -6.327  -4.086  0.00  0.00    -0.234 NA
ATOM     19 CL   UNL     1       3.891  -4.292  -4.002  0.00  0.00    -0.082 Cl
BRANCH  17  20
ATOM     20  N   UNL     1      -0.083  -8.577  -3.789  0.00  0.00    -0.343 N 
ATOM     21  H   UNL     1       0.177  -9.493  -3.602  0.00  0.00    +0.144 HD
ATOM     22  H   UNL     1      -1.016  -8.361  -3.946  0.00  0.00    +0.144 HD
ENDBRANCH  17  20
ENDBRANCH  12  13
ENDBRANCH   4  12
TORSDOF 5
