REMARK  Name = ZINC35325994
REMARK  9 active torsions:
REMARK  status: ('A' for Active; 'I' for Inactive)
REMARK    1  A    between atoms: C_1  and  C_2
REMARK    2  A    between atoms: C_2  and  C_3
REMARK    3  A    between atoms: C_10  and  N_27
REMARK    4  A    between atoms: C_11  and  C_25
REMARK    5  A    between atoms: C_12  and  C_14
REMARK    6  A    between atoms: C_16  and  O_23
REMARK    7  A    between atoms: C_17  and  O_21
REMARK    8  A    between atoms: O_21  and  C_22
REMARK    9  A    between atoms: O_23  and  C_24
REMARK                            x       y       z     vdW  Elec       q    Type
REMARK                         _______ _______ _______ _____ _____    ______ ____
ROOT
ATOM      1  C   UNL     1       0.707  -0.490  -1.238  0.00  0.00    +0.044 A 
ATOM      2  C   UNL     1       2.031  -0.651  -1.384  0.00  0.00    +0.049 A 
ATOM      3  C   UNL     1       2.274  -1.122  -2.693  0.00  0.00    +0.245 A 
ATOM      4  N   UNL     1       1.128  -1.235  -3.299  0.00  0.00    -0.135 NA
ATOM      5  N   UNL     1       0.119  -0.848  -2.403  0.00  0.00    -0.278 N 
ATOM      6  H   UNL     1      -0.833  -0.837  -2.587  0.00  0.00    +0.189 HD
ATOM      7  O   UNL     1       3.531  -1.379  -3.146  0.00  0.00    -0.421 OA
ATOM      8  C   UNL     1       4.562  -0.920  -2.409  0.00  0.00    +0.201 C 
ATOM      9  C   UNL     1       4.453  -0.458  -1.145  0.00  0.00    +0.098 C 
ATOM     10  C   UNL     1       3.145  -0.406  -0.398  0.00  0.00    +0.101 C 
ENDROOT
BRANCH  10  11
ATOM     11  C   UNL     1       3.125  -1.472   0.667  0.00  0.00    -0.030 A 
ATOM     12  C   UNL     1       2.947  -1.120   1.992  0.00  0.00    +0.054 A 
ATOM     13  C   UNL     1       2.929  -2.099   2.973  0.00  0.00    +0.163 A 
ATOM     14  C   UNL     1       3.090  -3.435   2.621  0.00  0.00    +0.175 A 
ATOM     15  C   UNL     1       3.268  -3.782   1.291  0.00  0.00    +0.063 A 
ATOM     16  C   UNL     1       3.280  -2.800   0.316  0.00  0.00    +0.023 A 
ATOM     17 BR   UNL     1       3.487  -5.597   0.807  0.00  0.00    -0.046 Br
BRANCH  14  18
ATOM     18  O   UNL     1       3.073  -4.399   3.580  0.00  0.00    -0.490 OA
ATOM     19  C   UNL     1       1.805  -4.975   3.900  0.00  0.00    +0.277 C 
ENDBRANCH  14  18
BRANCH  13  20
ATOM     20  O   UNL     1       2.754  -1.754   4.277  0.00  0.00    -0.491 OA
ATOM     21  C   UNL     1       2.596  -0.363   4.564  0.00  0.00    +0.277 C 
ENDBRANCH  13  20
ENDBRANCH  10  11
BRANCH   8  22
ATOM     22  N   UNL     1       5.808  -0.922  -2.983  0.00  0.00    -0.328 N 
ATOM     23  H   UNL     1       5.924  -1.247  -3.890  0.00  0.00    +0.145 HD
ATOM     24  H   UNL     1       6.574  -0.599  -2.482  0.00  0.00    +0.145 HD
ENDBRANCH   8  22
BRANCH   1  26
ATOM     25  C   UNL     1      -0.019   1.526   0.010  0.00  0.00    +0.010 C 
ATOM     26  C   UNL     1       0.002  -0.004   0.002  0.00  0.00    +0.052 C 
ENDBRANCH   1  26
BRANCH   9  27
ATOM     27  C   UNL     1       5.636   0.004  -0.483  0.00  0.00    +0.101 C 
ATOM     28  N   UNL     1       6.575   0.370   0.042  0.00  0.00    -0.191 NA
ENDBRANCH   9  27
TORSDOF 6
