REMARK  Name = ZINC39662551
REMARK  8 active torsions:
REMARK  status: ('A' for Active; 'I' for Inactive)
REMARK    1  A    between atoms: C_1  and  C_2
REMARK    2  A    between atoms: C_12  and  O_13
REMARK    3  A    between atoms: O_13  and  C_14
REMARK    4  A    between atoms: C_14  and  C_15
REMARK    5  A    between atoms: C_19  and  C_28
REMARK    6  A    between atoms: N_30  and  C_31
REMARK    7  A    between atoms: C_31  and  C_33
REMARK    8  A    between atoms: C_31  and  C_35
REMARK                            x       y       z     vdW  Elec       q    Type
REMARK                         _______ _______ _______ _____ _____    ______ ____
ROOT
ATOM      1  C   UNL     1       0.223  -6.171   3.549  0.00  0.00    +0.253 C 
ATOM      2  O   UNL     1       0.260  -6.504   2.383  0.00  0.00    -0.272 OA
ATOM      3  N   UNL     1       0.199  -7.108   4.517  0.00  0.00    -0.297 N 
ATOM      4  C   UNL     1       0.148  -6.899   5.983  0.00  0.00    +0.121 C 
ATOM      5  C   UNL     1      -0.808  -7.996   6.502  0.00  0.00    +0.100 C 
ATOM      6  C   UNL     1      -0.758  -9.098   5.431  0.00  0.00    -0.004 C 
ATOM      7  C   UNL     1       0.210  -8.582   4.356  0.00  0.00    +0.115 C 
ATOM      8  C   UNL     1      -0.234 -10.398   6.034  0.00  0.00    -0.010 C 
ATOM      9  C   UNL     1      -0.247 -11.494   4.965  0.00  0.00    -0.082 C 
ATOM     10  N   UNL     1      -1.616 -11.679   4.468  0.00  0.00    +0.379 N 
ATOM     11  C   UNL     1      -2.078 -10.453   3.806  0.00  0.00    -0.082 C 
ATOM     12  C   UNL     1      -2.142  -9.313   4.827  0.00  0.00    -0.010 C 
ATOM     13  H   UNL     1      -1.633 -12.442   3.808  0.00  0.00    -0.086 HD
ATOM     14  H   UNL     1      -2.227 -11.893   5.242  0.00  0.00    -0.086 HD
ENDROOT
BRANCH   5  15
ATOM     15  C   UNL     1      -2.208  -7.453   6.633  0.00  0.00    +0.219 C 
ATOM     16  O   UNL     1      -2.589  -6.573   5.891  0.00  0.00    -0.275 OA
ATOM     17  N   UNL     1      -3.036  -7.946   7.575  0.00  0.00    -0.296 N 
ATOM     18  H   UNL     1      -2.731  -8.650   8.169  0.00  0.00    +0.150 HD
BRANCH  17  19
ATOM     19  C   UNL     1      -4.397  -7.418   7.703  0.00  0.00    +0.207 C 
BRANCH  19  20
ATOM     20  C   UNL     1      -4.890  -7.636   9.111  0.00  0.00    -0.013 A 
ATOM     21  C   UNL     1      -4.599  -8.816   9.770  0.00  0.00    +0.006 A 
ATOM     22  C   UNL     1      -5.051  -9.015  11.061  0.00  0.00    +0.000 A 
ATOM     23  C   UNL     1      -5.794  -8.035  11.693  0.00  0.00    +0.000 A 
ATOM     24  C   UNL     1      -6.084  -6.856  11.033  0.00  0.00    +0.000 A 
ATOM     25  C   UNL     1      -5.628  -6.654   9.744  0.00  0.00    +0.006 A 
ENDBRANCH  19  20
BRANCH  19  26
ATOM     26  C   UNL     1      -5.285  -8.116   6.759  0.00  0.00    +0.090 C 
ATOM     27  N   UNL     1      -5.970  -8.655   6.030  0.00  0.00    -0.194 NA
ENDBRANCH  19  26
ENDBRANCH  17  19
ENDBRANCH   5  15
BRANCH   1  28
ATOM     28  C   UNL     1       0.206  -4.709   3.915  0.00  0.00    +0.324 C 
BRANCH  28  29
ATOM     29  O   UNL     1       0.238  -3.920   2.724  0.00  0.00    -0.479 OA
BRANCH  29  41
ATOM     30  C   UNL     1       0.266   2.022   0.892  0.00  0.00    +0.045 C 
ATOM     31  C   UNL     1       0.277   0.522   0.753  0.00  0.00    -0.033 A 
ATOM     32  C   UNL     1       0.316  -0.065  -0.469  0.00  0.00    +0.096 A 
ATOM     33  C   UNL     1       0.326  -1.473  -0.572  0.00  0.00    +0.338 A 
ATOM     34  O   UNL     1       0.361  -1.987  -1.675  0.00  0.00    -0.245 OA
ATOM     35  O   UNL     1       0.297  -2.259   0.515  0.00  0.00    -0.418 OA
ATOM     36  C   UNL     1       0.257  -1.738   1.761  0.00  0.00    +0.181 A 
ATOM     37  C   UNL     1       0.251  -0.344   1.937  0.00  0.00    +0.024 A 
ATOM     38  C   UNL     1       0.216   0.198   3.226  0.00  0.00    +0.012 A 
ATOM     39  C   UNL     1       0.192  -0.640   4.318  0.00  0.00    +0.004 A 
ATOM     40  C   UNL     1       0.204  -2.016   4.147  0.00  0.00    +0.049 A 
ATOM     41  C   UNL     1       0.228  -2.569   2.879  0.00  0.00    +0.164 A 
ENDBRANCH  29  41
ENDBRANCH  28  29
ENDBRANCH   1  28
TORSDOF 7
