REMARK  Name = ZINC06870459
REMARK  7 active torsions:
REMARK  status: ('A' for Active; 'I' for Inactive)
REMARK    1  A    between atoms: C_1  and  C_2
REMARK    2  A    between atoms: C_2  and  O_3
REMARK    3  A    between atoms: O_3  and  C_4
REMARK    4  A    between atoms: C_7  and  N_10
REMARK    5  A    between atoms: N_10  and  C_11
REMARK    6  A    between atoms: N_15  and  C_19
REMARK    7  A    between atoms: C_24  and  C_25
REMARK                            x       y       z     vdW  Elec       q    Type
REMARK                         _______ _______ _______ _____ _____    ______ ____
ROOT
ATOM      1  C   UNL     1      -0.114   7.365  -1.089  0.00  0.00    +0.226 C 
ATOM      2  C   UNL     1      -0.062   5.849  -1.208  0.00  0.00    +0.258 C 
ATOM      3  O   UNL     1      -0.022   5.284  -2.280  0.00  0.00    -0.272 OA
ATOM      4  N   UNL     1      -0.068   5.189  -0.061  0.00  0.00    -0.199 N 
ATOM      5  C   UNL     1      -0.107   5.795   1.140  0.00  0.00    +0.287 C 
ATOM      6  O   UNL     1      -0.111   5.278   2.240  0.00  0.00    -0.262 OA
ATOM      7  S   UNL     1      -0.151   7.536   0.740  0.00  0.00    -0.035 S 
ENDROOT
BRANCH   4   8
ATOM      8  C   UNL     1      -0.026   3.789  -0.099  0.00  0.00    +0.048 A 
ATOM      9  C   UNL     1      -1.206   3.058  -0.139  0.00  0.00    +0.024 A 
ATOM     10  C   UNL     1      -1.162   1.678  -0.181  0.00  0.00    +0.002 A 
ATOM     11  C   UNL     1       0.057   1.024  -0.173  0.00  0.00    +0.000 A 
ATOM     12  C   UNL     1       1.234   1.749  -0.133  0.00  0.00    +0.005 A 
ATOM     13  C   UNL     1       1.195   3.129  -0.097  0.00  0.00    -0.029 A 
ATOM     14  C   UNL     1       2.478   3.918  -0.053  0.00  0.00    +0.045 C 
ENDBRANCH   4   8
BRANCH   1  15
ATOM     15  N   UNL     1       1.088   7.981  -1.657  0.00  0.00    -0.324 N 
ATOM     16  H   UNL     1       1.961   7.598  -1.477  0.00  0.00    +0.148 HD
BRANCH  15  20
ATOM     17  C   UNL     1       0.755  11.378  -4.050  0.00  0.00    +0.121 A 
ATOM     18  C   UNL     1      -0.359  10.887  -3.385  0.00  0.00    +0.047 A 
ATOM     19  C   UNL     1      -0.250   9.761  -2.592  0.00  0.00    +0.026 A 
ATOM     20  C   UNL     1       0.976   9.122  -2.460  0.00  0.00    +0.028 A 
ATOM     21  C   UNL     1       2.092   9.618  -3.121  0.00  0.00    +0.026 A 
ATOM     22  C   UNL     1       1.979  10.740  -3.918  0.00  0.00    +0.047 A 
BRANCH  17  23
ATOM     23  O   UNL     1       0.646  12.487  -4.830  0.00  0.00    -0.492 OA
BRANCH  23  25
ATOM     24  C   UNL     1       1.517  14.186  -6.311  0.00  0.00    +0.048 C 
ATOM     25  C   UNL     1       1.833  12.938  -5.485  0.00  0.00    +0.225 C 
ENDBRANCH  23  25
ENDBRANCH  17  23
ENDBRANCH  15  20
ENDBRANCH   1  15
TORSDOF 5
