REMARK  Name = ZINC43595460
REMARK  8 active torsions:
REMARK  status: ('A' for Active; 'I' for Inactive)
REMARK    1  A    between atoms: C_1  and  C_2
REMARK    2  A    between atoms: C_2  and  C_4
REMARK    3  A    between atoms: C_2  and  C_20
REMARK    4  A    between atoms: C_4  and  N_5
REMARK    5  A    between atoms: N_5  and  C_6
REMARK    6  A    between atoms: C_7  and  C_9
REMARK    7  A    between atoms: C_20  and  O_22
REMARK    8  A    between atoms: O_22  and  C_23
REMARK                            x       y       z     vdW  Elec       q    Type
REMARK                         _______ _______ _______ _____ _____    ______ ____
ROOT
ATOM      1  N   UNL     1      -1.823  -0.047   1.449  0.00  0.00    -0.302 N 
ATOM      2  C   UNL     1      -2.260   1.319   1.752  0.00  0.00    +0.132 C 
ATOM      3  C   UNL     1      -2.167  -1.062   2.266  0.00  0.00    +0.237 C 
ATOM      4  O   UNL     1      -1.729  -2.175   2.069  0.00  0.00    -0.274 OA
ENDROOT
BRANCH   3   5
ATOM      5  C   UNL     1      -3.097  -0.813   3.426  0.00  0.00    +0.171 C 
ATOM      6  C   UNL     1      -2.287  -0.617   4.681  0.00  0.00    -0.018 A 
ATOM      7  C   UNL     1      -1.136   0.154   4.610  0.00  0.00    +0.006 A 
ATOM      8  C   UNL     1      -0.365   0.362   5.736  0.00  0.00    +0.000 A 
ATOM      9  C   UNL     1      -0.742  -0.200   6.942  0.00  0.00    +0.000 A 
ATOM     10  C   UNL     1      -1.886  -0.969   7.013  0.00  0.00    +0.004 A 
ATOM     11  C   UNL     1      -2.659  -1.181   5.882  0.00  0.00    -0.041 A 
ATOM     12  C   UNL     1      -3.894  -2.037   6.005  0.00  0.00    +0.050 C 
ATOM     13  C   UNL     1      -4.806  -1.814   4.799  0.00  0.00    +0.086 C 
ATOM     14  N   UNL     1      -4.001  -1.958   3.577  0.00  0.00    -0.302 NA
ATOM     15  H   UNL     1      -4.594  -2.059   2.767  0.00  0.00    +0.123 HD
ENDBRANCH   3   5
BRANCH   1  16
ATOM     16  C   UNL     1      -1.012  -0.309   0.257  0.00  0.00    +0.122 C 
BRANCH  16  18
ATOM     17  C   UNL     1       0.784   1.258   1.006  0.00  0.00    +0.021 C 
ATOM     18  C   UNL     1       0.471  -0.187   0.613  0.00  0.00    +0.112 C 
BRANCH  18  19
ATOM     19  C   UNL     1       1.307  -0.576  -0.579  0.00  0.00    +0.311 C 
ATOM     20  O   UNL     1       0.771  -0.915  -1.608  0.00  0.00    -0.251 OA
BRANCH  19  21
ATOM     21  O   UNL     1       2.646  -0.545  -0.499  0.00  0.00    -0.468 OA
ATOM     22  C   UNL     1       3.376  -0.926  -1.667  0.00  0.00    +0.280 C 
ENDBRANCH  19  21
ENDBRANCH  18  19
ENDBRANCH  16  18
ENDBRANCH   1  16
TORSDOF 5
