REMARK  Name = ZINC11321781
REMARK  7 active torsions:
REMARK  status: ('A' for Active; 'I' for Inactive)
REMARK    1  A    between atoms: C_1  and  N_2
REMARK    2  A    between atoms: N_2  and  C_3
REMARK    3  A    between atoms: C_6  and  C_11
REMARK    4  A    between atoms: C_11  and  S_12
REMARK    5  A    between atoms: S_12  and  C_13
REMARK    6  A    between atoms: C_15  and  C_19
REMARK    7  A    between atoms: N_17  and  N_18
REMARK                            x       y       z     vdW  Elec       q    Type
REMARK                         _______ _______ _______ _____ _____    ______ ____
ROOT
ATOM      1  S   UNL     1       4.077   2.450  -1.730  0.00  0.00    -0.078 S 
ENDROOT
BRANCH   1   2
ATOM      2  C   UNL     1       5.572   3.341  -1.450  0.00  0.00    +0.187 A 
ATOM      3  N   UNL     1       6.079   3.631  -0.276  0.00  0.00    -0.221 NA
ATOM      4  C   UNL     1       7.233   4.322  -0.450  0.00  0.00    +0.092 A 
ATOM      5  C   UNL     1       7.440   4.461  -1.783  0.00  0.00    +0.138 A 
ATOM      6  N   UNL     1       6.393   3.836  -2.416  0.00  0.00    -0.251 N 
BRANCH   4   7
ATOM      7  C   UNL     1       8.114   4.835   0.628  0.00  0.00    +0.002 A 
ATOM      8  C   UNL     1       9.280   5.529   0.308  0.00  0.00    +0.010 A 
ATOM      9  C   UNL     1      10.093   6.008   1.315  0.00  0.00    +0.001 A 
ATOM     10  C   UNL     1       9.758   5.792   2.639  0.00  0.00    +0.000 A 
ATOM     11  C   UNL     1       8.605   5.100   2.963  0.00  0.00    +0.001 A 
ATOM     12  C   UNL     1       7.782   4.621   1.964  0.00  0.00    +0.010 A 
ENDBRANCH   4   7
BRANCH   6  13
ATOM     13  N   UNL     1       6.209   3.733  -3.766  0.00  0.00    -0.296 N 
ATOM     14  H   UNL     1       5.678   4.514  -4.119  0.00  0.00    +0.163 HD
ATOM     15  H   UNL     1       7.093   3.650  -4.246  0.00  0.00    +0.163 HD
ENDBRANCH   6  13
ENDBRANCH   1   2
BRANCH   1  16
ATOM     16  C   UNL     1       3.575   2.132  -0.021  0.00  0.00    +0.153 C 
BRANCH  16  22
ATOM     17  C   UNL     1      -0.068  -2.783  -0.011  0.00  0.00    +0.132 C 
ATOM     18  N   UNL     1       1.187  -2.029  -0.020  0.00  0.00    -0.306 N 
ATOM     19  C   UNL     1       2.469  -2.739  -0.036  0.00  0.00    +0.132 C 
ATOM     20  C   UNL     1       1.163  -0.649  -0.013  0.00  0.00    +0.222 A 
ATOM     21  N   UNL     1       2.304   0.037  -0.020  0.00  0.00    -0.198 NA
ATOM     22  C   UNL     1       2.282   1.359  -0.012  0.00  0.00    +0.146 A 
ATOM     23  N   UNL     1       1.129   2.004   0.002  0.00  0.00    -0.199 NA
ATOM     24  C   UNL     1      -0.016   1.325   0.009  0.00  0.00    +0.217 A 
ATOM     25  N   UNL     1       0.002  -0.004   0.002  0.00  0.00    -0.181 NA
ATOM     26  N   UNL     1      -1.220   1.999   0.019  0.00  0.00    -0.327 N 
ATOM     27  H   UNL     1      -2.054   1.503   0.020  0.00  0.00    +0.145 HD
ATOM     28  H   UNL     1      -1.232   2.969   0.024  0.00  0.00    +0.145 HD
ENDBRANCH  16  22
ENDBRANCH   1  16
TORSDOF 5
