REMARK  Name = ZINC23708837
REMARK  8 active torsions:
REMARK  status: ('A' for Active; 'I' for Inactive)
REMARK    1  A    between atoms: C_1  and  C_2
REMARK    2  A    between atoms: C_5  and  O_25
REMARK    3  A    between atoms: C_6  and  N_8
REMARK    4  A    between atoms: C_9  and  C_11
REMARK    5  A    between atoms: C_11  and  C_12
REMARK    6  A    between atoms: C_12  and  C_14
REMARK    7  A    between atoms: C_12  and  N_21
REMARK    8  A    between atoms: O_25  and  C_26
REMARK                            x       y       z     vdW  Elec       q    Type
REMARK                         _______ _______ _______ _____ _____    ______ ____
ROOT
ATOM      1  C   UNL     1       3.319   7.509  -0.307  0.00  0.00    +0.113 C 
ENDROOT
BRANCH   1   2
ATOM      2  C   UNL     1       4.618   8.273  -0.297  0.00  0.00    -0.026 A 
ATOM      3  C   UNL     1       5.418   8.290  -1.425  0.00  0.00    +0.005 A 
ATOM      4  C   UNL     1       6.607   8.996  -1.418  0.00  0.00    +0.001 A 
ATOM      5  C   UNL     1       7.002   9.675  -0.281  0.00  0.00    +0.015 A 
ATOM      6  C   UNL     1       6.205   9.653   0.849  0.00  0.00    +0.018 A 
ATOM      7  C   UNL     1       5.012   8.951   0.841  0.00  0.00    +0.020 A 
ATOM      8 BR   UNL     1       6.745  10.581   2.406  0.00  0.00    -0.050 Br
ENDBRANCH   1   2
BRANCH   1   9
ATOM      9  N   UNL     1       2.595   7.793  -1.548  0.00  0.00    -0.292 N 
ATOM     10  C   UNL     1       1.880   8.929  -1.666  0.00  0.00    +0.298 C 
ATOM     11  O   UNL     1       1.909   9.761  -0.780  0.00  0.00    -0.253 OA
ATOM     12  N   UNL     1       1.133   9.144  -2.767  0.00  0.00    -0.313 N 
ATOM     13  H   UNL     1       2.634   7.079  -2.383  0.00  0.00    +0.151 HD
ATOM     14  H   UNL     1       0.549  10.072  -2.864  0.00  0.00    +0.146 HD
ATOM     15  H   UNL     1       1.106   8.392  -3.569  0.00  0.00    +0.146 HD
ENDBRANCH   1   9
BRANCH   1  16
ATOM     16  C   UNL     1       3.609   6.010  -0.217  0.00  0.00    +0.123 C 
BRANCH  16  18
ATOM     17  N   UNL     1       2.320   3.909  -0.010  0.00  0.00    -0.283 N 
ATOM     18  C   UNL     1       2.310   5.253  -0.102  0.00  0.00    +0.219 C 
ATOM     19  O   UNL     1       1.257   5.854  -0.094  0.00  0.00    -0.275 OA
ATOM     20  H   UNL     1       3.276   3.368   0.054  0.00  0.00    +0.155 HD
BRANCH  17  26
ATOM     21  C   UNL     1      -2.412   3.634   1.300  0.00  0.00    +0.044 C 
ATOM     22  C   UNL     1      -1.198   3.041   0.632  0.00  0.00    -0.048 A 
ATOM     23  C   UNL     1      -1.279   1.799   0.031  0.00  0.00    +0.007 A 
ATOM     24  C   UNL     1      -0.167   1.248  -0.579  0.00  0.00    +0.048 A 
ATOM     25  C   UNL     1       1.031   1.945  -0.597  0.00  0.00    +0.141 A 
ATOM     26  C   UNL     1       1.111   3.199   0.005  0.00  0.00    +0.076 A 
ATOM     27  C   UNL     1      -0.007   3.743   0.619  0.00  0.00    +0.030 A 
BRANCH  25  28
ATOM     28  O   UNL     1       2.124   1.407  -1.200  0.00  0.00    -0.493 OA
ATOM     29  C   UNL     1       1.967   0.118  -1.796  0.00  0.00    +0.277 C 
ENDBRANCH  25  28
ENDBRANCH  17  26
ENDBRANCH  16  18
ENDBRANCH   1  16
TORSDOF 6
