REMARK  Name = ZINC62133038
REMARK  4 active torsions:
REMARK  status: ('A' for Active; 'I' for Inactive)
REMARK    1  A    between atoms: C_4  and  S_16
REMARK    2  A    between atoms: C_5  and  N_7
REMARK    3  A    between atoms: C_10  and  C_13
REMARK    4  A    between atoms: S_16  and  N_19
REMARK                            x       y       z     vdW  Elec       q    Type
REMARK                         _______ _______ _______ _____ _____    ______ ____
ROOT
ATOM      1  C   UNL     1      -0.017   1.378   0.010  0.00  0.00    +0.002 A 
ATOM      2  C   UNL     1       1.171   2.085   0.002  0.00  0.00    +0.002 A 
ATOM      3  C   UNL     1       2.377   1.411  -0.013  0.00  0.00    +0.030 A 
ATOM      4  C   UNL     1       2.396   0.028  -0.020  0.00  0.00    +0.124 A 
ATOM      5  C   UNL     1       1.209  -0.679  -0.012  0.00  0.00    +0.040 A 
ATOM      6  C   UNL     1       0.002  -0.004   0.002  0.00  0.00    +0.023 A 
ENDROOT
BRANCH   5   7
ATOM      7  N   UNL     1       1.228  -2.077  -0.020  0.00  0.00    -0.391 NA
ATOM      8  C   UNL     1       0.508  -2.577  -1.210  0.00  0.00    +0.086 C 
ATOM      9  C   UNL     1      -0.210  -3.863  -0.727  0.00  0.00    +0.033 C 
ATOM     10  C   UNL     1      -0.625  -3.467   0.714  0.00  0.00    +0.119 C 
ATOM     11  C   UNL     1       0.553  -2.589   1.187  0.00  0.00    +0.100 C 
ATOM     12  H   UNL     1       2.182  -2.404  -0.040  0.00  0.00    +0.126 HD
BRANCH  10  13
ATOM     13  C   UNL     1      -0.765  -4.690   1.583  0.00  0.00    +0.361 C 
ATOM     14  O   UNL     1      -0.583  -5.799   1.109  0.00  0.00    -0.246 OA
ATOM     15  O   UNL     1      -1.061  -4.572   2.760  0.00  0.00    -0.246 OA
ENDBRANCH  10  13
ENDBRANCH   5   7
BRANCH   4  16
ATOM     16  S   UNL     1       3.934  -0.832  -0.041  0.00  0.00    +0.058 S 
ATOM     17  O   UNL     1       3.840  -1.807  -1.070  0.00  0.00    -0.153 OA
ATOM     18  O   UNL     1       4.953   0.158  -0.019  0.00  0.00    -0.153 OA
BRANCH  16  19
ATOM     19  N   UNL     1       4.050  -1.661   1.388  0.00  0.00    -0.203 NA
ATOM     20  H   UNL     1       3.334  -1.605   2.041  0.00  0.00    +0.144 HD
ATOM     21  H   UNL     1       4.833  -2.204   1.572  0.00  0.00    +0.144 HD
ENDBRANCH  16  19
ENDBRANCH   4  16
TORSDOF 4
