REMARK  Name = ZINC63264544
REMARK  8 active torsions:
REMARK  status: ('A' for Active; 'I' for Inactive)
REMARK    1  A    between atoms: C_1  and  C_2
REMARK    2  A    between atoms: C_2  and  C_3
REMARK    3  A    between atoms: C_2  and  C_4
REMARK    4  A    between atoms: C_2  and  C_5
REMARK    5  A    between atoms: C_11  and  C_13
REMARK    6  A    between atoms: N_15  and  N_16
REMARK    7  A    between atoms: C_17  and  C_19
REMARK    8  A    between atoms: N_21  and  C_22
REMARK                            x       y       z     vdW  Elec       q    Type
REMARK                         _______ _______ _______ _____ _____    ______ ____
ROOT
ATOM      1  C   UNL     1      -0.157  -5.392  -2.898  0.00  0.00    +0.234 C 
ATOM      2  O   UNL     1       0.997  -5.497  -3.255  0.00  0.00    -0.274 OA
ATOM      3  N   UNL     1      -1.074  -6.293  -3.304  0.00  0.00    -0.234 N 
ATOM      4  H   UNL     1      -1.997  -6.208  -3.018  0.00  0.00    +0.173 HD
ENDROOT
BRANCH   1  11
ATOM      5  C   UNL     1       0.497  -1.052  -0.957  0.00  0.00    +0.221 C 
ATOM      6  O   UNL     1       1.105  -0.722  -1.953  0.00  0.00    -0.275 OA
ATOM      7  N   UNL     1       0.268  -2.357  -0.710  0.00  0.00    -0.300 N 
ATOM      8  C   UNL     1      -0.375  -2.780   0.542  0.00  0.00    +0.108 C 
ATOM      9  C   UNL     1      -1.585  -3.656   0.204  0.00  0.00    +0.020 C 
ATOM     10  C   UNL     1      -1.139  -4.811  -0.695  0.00  0.00    +0.016 C 
ATOM     11  C   UNL     1      -0.567  -4.253  -2.000  0.00  0.00    +0.094 C 
ATOM     12  C   UNL     1       0.650  -3.383  -1.689  0.00  0.00    +0.120 C 
BRANCH   5  14
ATOM     13  C   UNL     1       0.354   1.386  -0.527  0.00  0.00    +0.020 C 
ATOM     14  C   UNL     1      -0.002  -0.004   0.004  0.00  0.00    +0.039 C 
ATOM     15  C   UNL     1       0.655  -0.211   1.371  0.00  0.00    +0.020 C 
ATOM     16  C   UNL     1      -1.520  -0.123   0.145  0.00  0.00    +0.020 C 
ENDBRANCH   5  14
ENDBRANCH   1  11
BRANCH   3  17
ATOM     17  N   UNL     1      -0.693  -7.352  -4.138  0.00  0.00    -0.227 N 
ATOM     18  C   UNL     1      -1.609  -8.253  -4.544  0.00  0.00    +0.315 C 
ATOM     19  O   UNL     1      -2.764  -8.147  -4.187  0.00  0.00    -0.264 OA
ATOM     20  H   UNL     1       0.230  -7.436  -4.424  0.00  0.00    +0.173 HD
BRANCH  18  21
ATOM     21  C   UNL     1      -1.203  -9.382  -5.435  0.00  0.00    +0.301 C 
ATOM     22  O   UNL     1      -0.049  -9.488  -5.792  0.00  0.00    -0.265 OA
ATOM     23  N   UNL     1      -2.120 -10.283  -5.841  0.00  0.00    -0.305 N 
ATOM     24  H   UNL     1      -3.043 -10.199  -5.555  0.00  0.00    +0.149 HD
BRANCH  23  25
ATOM     25  C   UNL     1      -1.722 -11.391  -6.713  0.00  0.00    +0.073 C 
ATOM     26  C   UNL     1      -2.640 -11.728  -7.890  0.00  0.00    +0.024 C 
ATOM     27  C   UNL     1      -2.575 -12.660  -6.678  0.00  0.00    +0.024 C 
ENDBRANCH  23  25
ENDBRANCH  18  21
ENDBRANCH   3  17
TORSDOF 5
