REMARK  Name = ZINC20155144
REMARK  8 active torsions:
REMARK  status: ('A' for Active; 'I' for Inactive)
REMARK    1  A    between atoms: C_1  and  C_2
REMARK    2  A    between atoms: C_8  and  N_10
REMARK    3  A    between atoms: N_10  and  C_11
REMARK    4  A    between atoms: C_11  and  C_12
REMARK    5  A    between atoms: N_14  and  C_15
REMARK    6  A    between atoms: C_18  and  N_34
REMARK    7  A    between atoms: C_20  and  C_21
REMARK    8  A    between atoms: N_23  and  C_24
REMARK                            x       y       z     vdW  Elec       q    Type
REMARK                         _______ _______ _______ _____ _____    ______ ____
ROOT
ATOM      1  C   UNL     1       4.955  -4.128   0.121  0.00  0.00    +0.046 A 
ATOM      2  C   UNL     1       6.174  -4.793   0.152  0.00  0.00    +0.026 A 
ATOM      3  C   UNL     1       7.351  -4.077   0.238  0.00  0.00    +0.034 A 
ATOM      4  C   UNL     1       7.326  -2.692   0.295  0.00  0.00    +0.127 A 
ATOM      5  C   UNL     1       6.126  -2.015   0.261  0.00  0.00    +0.047 A 
ATOM      6  C   UNL     1       4.927  -2.727   0.179  0.00  0.00    +0.060 A 
ENDROOT
BRANCH   1   9
ATOM      7  C   UNL     1       3.705  -6.107   0.516  0.00  0.00    +0.200 C 
ATOM      8  O   UNL     1       4.653  -6.577   1.110  0.00  0.00    -0.278 OA
ATOM      9  N   UNL     1       3.767  -4.850   0.035  0.00  0.00    -0.286 N 
ATOM     10  H   UNL     1       2.878  -4.393  -0.425  0.00  0.00    +0.155 HD
BRANCH   7  11
ATOM     11  C   UNL     1       2.459  -6.930   0.315  0.00  0.00    +0.016 C 
BRANCH  11  12
ATOM     12  N   UNL     1       2.642  -8.253   0.927  0.00  0.00    +0.387 N 
ATOM     13  H   UNL     1       2.842  -8.121   2.000  0.00  0.00    -0.085 HD
ATOM     14  H   UNL     1       3.503  -8.745   0.452  0.00  0.00    -0.085 HD
BRANCH  12  21
ATOM     15  C   UNL     1       2.475 -10.870   2.163  0.00  0.00    +0.006 C 
ATOM     16  C   UNL     1       1.837 -10.563   0.807  0.00  0.00    -0.028 C 
ATOM     17  C   UNL     1       0.589 -11.430   0.623  0.00  0.00    +0.002 C 
ATOM     18  C   UNL     1      -0.412 -11.125   1.739  0.00  0.00    +0.000 C 
ATOM     19  C   UNL     1      -0.805  -9.647   1.683  0.00  0.00    -0.002 C 
ATOM     20  C   UNL     1       0.443  -8.781   1.866  0.00  0.00    -0.015 C 
ATOM     21  C   UNL     1       1.444  -9.085   0.750  0.00  0.00    -0.068 C 
ENDBRANCH  12  21
ENDBRANCH  11  12
ENDBRANCH   7  11
ENDBRANCH   1   9
BRANCH   6  22
ATOM     22  C   UNL     1       3.639  -2.009   0.147  0.00  0.00    +0.250 C 
ATOM     23  O   UNL     1       2.595  -2.632   0.184  0.00  0.00    -0.270 OA
ATOM     24  N   UNL     1       3.619  -0.663   0.077  0.00  0.00    -0.281 N 
ATOM     25  H   UNL     1       4.559  -0.105  -0.043  0.00  0.00    +0.155 HD
BRANCH  24  26
ATOM     26  C   UNL     1       2.402   0.024   0.157  0.00  0.00    +0.037 A 
ATOM     27  C   UNL     1       2.223   1.205  -0.552  0.00  0.00    +0.027 A 
ATOM     28  C   UNL     1       1.023   1.884  -0.472  0.00  0.00    +0.051 A 
ATOM     29  C   UNL     1      -0.007   1.390   0.315  0.00  0.00    +0.162 A 
ATOM     30  C   UNL     1       0.168   0.206   1.023  0.00  0.00    +0.164 A 
ATOM     31  C   UNL     1       1.373  -0.474   0.944  0.00  0.00    +0.072 A 
ATOM     32  O   UNL     1      -0.834  -0.299   1.793  0.00  0.00    -0.485 OA
ATOM     33  C   UNL     1      -1.891   0.600   2.145  0.00  0.00    +0.270 C 
ATOM     34  C   UNL     1      -2.317   1.360   0.881  0.00  0.00    +0.270 C 
ATOM     35  O   UNL     1      -1.180   2.078   0.388  0.00  0.00    -0.485 OA
ENDBRANCH  24  26
ENDBRANCH   6  22
BRANCH   4  36
ATOM     36  N   UNL     1       8.596  -1.937   0.387  0.00  0.00    +0.056 N 
ATOM     37  O   UNL     1       9.658  -2.531   0.412  0.00  0.00    -0.126 OA
ATOM     38  O   UNL     1       8.578  -0.720   0.437  0.00  0.00    -0.126 OA
ENDBRANCH   4  36
TORSDOF 7
