REMARK  Name = ZINC57456158
REMARK  9 active torsions:
REMARK  status: ('A' for Active; 'I' for Inactive)
REMARK    1  A    between atoms: C_1  and  C_2
REMARK    2  A    between atoms: C_2  and  C_3
REMARK    3  A    between atoms: C_3  and  C_5
REMARK    4  A    between atoms: C_3  and  N_8
REMARK    5  A    between atoms: C_5  and  C_6
REMARK    6  A    between atoms: C_5  and  C_7
REMARK    7  A    between atoms: C_9  and  C_11
REMARK    8  A    between atoms: C_13  and  C_23
REMARK    9  A    between atoms: C_19  and  C_20
REMARK                            x       y       z     vdW  Elec       q    Type
REMARK                         _______ _______ _______ _____ _____    ______ ____
ROOT
ATOM      1  C   UNL     1       4.250   0.543   2.238  0.00  0.00    +0.113 A 
ATOM      2  C   UNL     1       4.995   0.675   3.372  0.00  0.00    +0.063 A 
ATOM      3  C   UNL     1       6.318   1.173   3.276  0.00  0.00    +0.110 A 
ATOM      4  N   UNL     1       6.819   1.504   2.095  0.00  0.00    -0.224 NA
ATOM      5  C   UNL     1       6.098   1.377   0.984  0.00  0.00    +0.171 A 
ATOM      6  N   UNL     1       4.812   0.894   1.027  0.00  0.00    -0.278 N 
ATOM      7  C   UNL     1       4.343   0.874  -0.249  0.00  0.00    +0.206 A 
ATOM      8  N   UNL     1       5.261   1.309  -1.064  0.00  0.00    -0.229 NA
ATOM      9  C   UNL     1       6.366   1.644  -0.367  0.00  0.00    +0.169 A 
ENDROOT
BRANCH   9  10
ATOM     10  C   UNL     1       7.616   2.171  -0.919  0.00  0.00    +0.264 C 
ATOM     11  O   UNL     1       8.550   2.422  -0.179  0.00  0.00    -0.269 OA
ATOM     12  N   UNL     1       7.732   2.379  -2.246  0.00  0.00    -0.324 N 
ATOM     13  H   UNL     1       6.988   2.179  -2.835  0.00  0.00    +0.145 HD
ATOM     14  H   UNL     1       8.560   2.728  -2.611  0.00  0.00    +0.145 HD
ENDBRANCH   9  10
BRANCH   3  15
ATOM     15  C   UNL     1       7.136   1.323   4.490  0.00  0.00    +0.153 A 
ATOM     16  C   UNL     1       8.416   1.793   4.540  0.00  0.00    +0.051 A 
ATOM     17  C   UNL     1       8.804   1.766   5.891  0.00  0.00    +0.042 A 
ATOM     18  C   UNL     1       7.757   1.286   6.595  0.00  0.00    +0.196 A 
ATOM     19  O   UNL     1       6.750   1.026   5.747  0.00  0.00    -0.461 OA
ENDBRANCH   3  15
BRANCH   1  21
ATOM     20  N   UNL     1       2.296  -0.218   3.498  0.00  0.00    -0.307 N 
ATOM     21  C   UNL     1       2.869   0.026   2.303  0.00  0.00    +0.261 C 
ATOM     22  O   UNL     1       2.247  -0.178   1.278  0.00  0.00    -0.269 OA
ATOM     23  H   UNL     1       2.815  -0.126   4.312  0.00  0.00    +0.149 HD
BRANCH  20  24
ATOM     24  C   UNL     1       0.890  -0.623   3.568  0.00  0.00    +0.076 C 
BRANCH  24  25
ATOM     25  C   UNL     1      -0.000   0.622   3.561  0.00  0.00    +0.003 C 
ATOM     26  C   UNL     1      -1.469   0.199   3.634  0.00  0.00    +0.009 C 
ATOM     27  C   UNL     1       0.339   1.498   4.769  0.00  0.00    +0.009 C 
ENDBRANCH  24  25
BRANCH  24  29
ATOM     28  C   UNL     1       1.445  -2.720   4.806  0.00  0.00    +0.006 C 
ATOM     29  C   UNL     1       0.650  -1.414   4.855  0.00  0.00    +0.019 C 
ENDBRANCH  24  29
ENDBRANCH  20  24
ENDBRANCH   1  21
TORSDOF 6
