REMARK  Name = ZINC20503813
REMARK  8 active torsions:
REMARK  status: ('A' for Active; 'I' for Inactive)
REMARK    1  A    between atoms: N_4  and  C_6
REMARK    2  A    between atoms: C_9  and  N_12
REMARK    3  A    between atoms: N_12  and  C_13
REMARK    4  A    between atoms: C_13  and  N_15
REMARK    5  A    between atoms: N_15  and  C_16
REMARK    6  A    between atoms: C_16  and  C_17
REMARK    7  A    between atoms: C_26  and  C_28
REMARK    8  A    between atoms: C_28  and  N_29
REMARK                            x       y       z     vdW  Elec       q    Type
REMARK                         _______ _______ _______ _____ _____    ______ ____
ROOT
ATOM      1  N   UNL     1       1.882   6.680   4.242  0.00  0.00    -0.328 N 
ATOM      2  H   UNL     1       2.477   5.961   4.824  0.00  0.00    +0.148 HD
ENDROOT
BRANCH   1   3
ATOM      3  C   UNL     1       2.478   7.446   3.306  0.00  0.00    +0.134 C 
ATOM      4  S   UNL     1       1.552   8.565   2.400  0.00  0.00    -0.019 S 
BRANCH   3   5
ATOM      5  N   UNL     1       3.802   7.329   3.083  0.00  0.00    -0.297 N 
ATOM      6  H   UNL     1       4.409   6.661   3.712  0.00  0.00    +0.154 HD
BRANCH   5  10
ATOM      7  C   UNL     1       5.598   9.502   0.012  0.00  0.00    +0.065 A 
ATOM      8  C   UNL     1       4.700  10.124   0.869  0.00  0.00    +0.029 A 
ATOM      9  C   UNL     1       4.105   9.405   1.886  0.00  0.00    +0.025 A 
ATOM     10  C   UNL     1       4.405   8.059   2.051  0.00  0.00    +0.033 A 
ATOM     11  C   UNL     1       5.307   7.438   1.197  0.00  0.00    +0.025 A 
ATOM     12  C   UNL     1       5.897   8.156   0.177  0.00  0.00    +0.029 A 
BRANCH   7  16
ATOM     13  C   UNL     1       7.430  10.771  -2.747  0.00  0.00    +0.041 A 
ATOM     14  C   UNL     1       6.729  11.911  -2.337  0.00  0.00    +0.135 A 
ATOM     15  N   UNL     1       5.989  11.588  -1.307  0.00  0.00    -0.175 NA
ATOM     16  N   UNL     1       6.202  10.233  -1.022  0.00  0.00    -0.240 N 
ATOM     17  C   UNL     1       7.089   9.753  -1.923  0.00  0.00    +0.114 A 
ENDBRANCH   7  16
ENDBRANCH   5  10
ENDBRANCH   3   5
ENDBRANCH   1   3
BRANCH   1  18
ATOM     18  C   UNL     1       0.443   6.807   4.485  0.00  0.00    +0.088 C 
BRANCH  18  19
ATOM     19  C   UNL     1       0.024   5.833   5.588  0.00  0.00    -0.051 C 
ATOM     20  C   UNL     1      -1.503   5.871   5.756  0.00  0.00    -0.010 C 
ATOM     21  C   UNL     1      -2.064   4.470   5.483  0.00  0.00    -0.012 C 
ATOM     22  C   UNL     1      -1.424   3.488   6.472  0.00  0.00    -0.015 C 
ATOM     23  C   UNL     1       0.096   3.516   6.286  0.00  0.00    -0.078 C 
ATOM     24  N   UNL     1       0.440   4.472   5.224  0.00  0.00    +0.383 N 
ATOM     25  C   UNL     1      -0.146   4.067   3.940  0.00  0.00    -0.073 C 
ATOM     26  C   UNL     1      -1.673   4.055   4.059  0.00  0.00    -0.011 C 
ATOM     27  H   UNL     1       1.534   4.471   5.110  0.00  0.00    -0.081 HD
BRANCH  26  28
ATOM     28  C   UNL     1      -2.273   5.041   3.055  0.00  0.00    +0.086 C 
BRANCH  28  29
ATOM     29  N   UNL     1      -1.994   4.579   1.688  0.00  0.00    -0.298 NA
ATOM     30  C   UNL     1      -2.283   3.145   1.548  0.00  0.00    +0.112 C 
ATOM     31  C   UNL     1      -1.923   2.694   0.130  0.00  0.00    +0.175 C 
ATOM     32  O   UNL     1      -2.644   3.488  -0.816  0.00  0.00    -0.377 OA
ATOM     33  C   UNL     1      -2.385   4.890  -0.707  0.00  0.00    +0.175 C 
ATOM     34  C   UNL     1      -2.750   5.364   0.702  0.00  0.00    +0.112 C 
ENDBRANCH  28  29
ENDBRANCH  26  28
ENDBRANCH  18  19
ENDBRANCH   1  18
TORSDOF 8
