REMARK  Name = ZINC12506447
REMARK  5 active torsions:
REMARK  status: ('A' for Active; 'I' for Inactive)
REMARK    1  A    between atoms: C_1  and  C_2
REMARK    2  A    between atoms: C_2  and  O_3
REMARK    3  A    between atoms: O_3  and  C_4
REMARK    4  A    between atoms: C_6  and  C_12
REMARK    5  A    between atoms: C_9  and  O_10
REMARK                            x       y       z     vdW  Elec       q    Type
REMARK                         _______ _______ _______ _____ _____    ______ ____
ROOT
ATOM      1  C   UNL     1       0.655  -4.953  -0.019  0.00  0.00    +0.209 C 
ATOM      2  N   UNL     1       0.417  -6.119   0.853  0.00  0.00    -0.294 N 
ATOM      3  C   UNL     1      -0.329  -7.170   0.339  0.00  0.00    +0.159 C 
ATOM      4  N   UNL     1       0.079  -7.679  -0.895  0.00  0.00    -0.259 N 
ATOM      5  C   UNL     1       0.607  -6.737  -1.776  0.00  0.00    +0.205 A 
ATOM      6  N   UNL     1       0.892  -5.452  -1.377  0.00  0.00    -0.288 N 
ATOM      7  C   UNL     1       1.410  -4.785  -2.467  0.00  0.00    +0.076 A 
ATOM      8  C   UNL     1       1.877  -3.494  -2.678  0.00  0.00    +0.077 A 
ATOM      9  C   UNL     1       2.348  -3.131  -3.925  0.00  0.00    +0.164 A 
ATOM     10  C   UNL     1       2.357  -4.048  -4.971  0.00  0.00    +0.164 A 
ATOM     11  C   UNL     1       1.893  -5.333  -4.779  0.00  0.00    +0.079 A 
ATOM     12  C   UNL     1       1.415  -5.715  -3.522  0.00  0.00    +0.095 A 
ATOM     13  N   UNL     1       0.908  -6.885  -3.033  0.00  0.00    -0.214 NA
ATOM     14  O   UNL     1       2.830  -3.670  -6.196  0.00  0.00    -0.488 OA
ATOM     15  C   UNL     1       2.039  -2.714  -6.904  0.00  0.00    +0.232 C 
ATOM     16  C   UNL     1       2.377  -1.299  -6.460  0.00  0.00    +0.082 C 
ATOM     17  C   UNL     1       2.018  -1.047  -5.004  0.00  0.00    +0.232 C 
ATOM     18  O   UNL     1       2.809  -1.863  -4.138  0.00  0.00    -0.488 OA
ATOM     19  N   UNL     1      -1.357  -7.657   0.975  0.00  0.00    -0.375 N 
ATOM     20  H   UNL     1       0.771  -6.151   1.755  0.00  0.00    +0.151 HD
ATOM     21  H   UNL     1      -1.618  -7.284   1.832  0.00  0.00    +0.158 HD
ATOM     22  H   UNL     1       0.000  -8.618  -1.122  0.00  0.00    +0.158 HD
ATOM     23  H   UNL     1      -1.861  -8.392   0.592  0.00  0.00    +0.158 HD
ENDROOT
BRANCH   1  26
ATOM     24  C   UNL     1      -1.498  -1.849   0.006  0.00  0.00    +0.164 A 
ATOM     25  C   UNL     1      -0.389  -2.680  -0.003  0.00  0.00    +0.056 A 
ATOM     26  C   UNL     1      -0.552  -4.052  -0.009  0.00  0.00    -0.002 A 
ATOM     27  C   UNL     1      -1.822  -4.600  -0.006  0.00  0.00    +0.031 A 
ATOM     28  C   UNL     1      -2.934  -3.777   0.003  0.00  0.00    +0.086 A 
ATOM     29  C   UNL     1      -2.776  -2.400   0.016  0.00  0.00    +0.177 A 
ATOM     30 CL   UNL     1      -4.526  -4.469   0.006  0.00  0.00    -0.080 Cl
BRANCH  29  31
ATOM     31  O   UNL     1      -3.868  -1.589   0.031  0.00  0.00    -0.502 OA
ATOM     32  H   UNL     1      -4.192  -1.349  -0.848  0.00  0.00    +0.292 HD
ENDBRANCH  29  31
BRANCH  24  33
ATOM     33  O   UNL     1      -1.339  -0.499   0.012  0.00  0.00    -0.489 OA
BRANCH  33  35
ATOM     34  C   UNL     1      -0.019   1.526   0.010  0.00  0.00    +0.048 C 
ATOM     35  C   UNL     1       0.002  -0.004   0.002  0.00  0.00    +0.226 C 
ENDBRANCH  33  35
ENDBRANCH  24  33
ENDBRANCH   1  26
TORSDOF 4
