REMARK  Name = ZINC49739018
REMARK  8 active torsions:
REMARK  status: ('A' for Active; 'I' for Inactive)
REMARK    1  A    between atoms: C_1  and  C_2
REMARK    2  A    between atoms: C_2  and  C_4
REMARK    3  A    between atoms: C_8  and  C_10
REMARK    4  A    between atoms: C_10  and  C_11
REMARK    5  A    between atoms: C_10  and  C_12
REMARK    6  A    between atoms: C_10  and  N_13
REMARK    7  A    between atoms: N_16  and  C_17
REMARK    8  A    between atoms: C_17  and  C_18
REMARK                            x       y       z     vdW  Elec       q    Type
REMARK                         _______ _______ _______ _____ _____    ______ ____
ROOT
ATOM      1  N   UNL     1      -2.070  -3.597  -4.567  0.00  0.00    -0.290 N 
ATOM      2  C   UNL     1      -3.045  -4.316  -5.157  0.00  0.00    +0.300 C 
ATOM      3  O   UNL     1      -4.082  -4.537  -4.562  0.00  0.00    -0.253 OA
ATOM      4  N   UNL     1      -2.871  -4.789  -6.407  0.00  0.00    -0.295 N 
ATOM      5  H   UNL     1      -1.242  -3.421  -5.041  0.00  0.00    +0.151 HD
ATOM      6  H   UNL     1      -2.043  -4.613  -6.881  0.00  0.00    +0.150 HD
ENDROOT
BRANCH   1   7
ATOM      7  C   UNL     1      -2.259  -3.083  -3.208  0.00  0.00    +0.056 C 
ATOM      8  C   UNL     1      -2.463  -4.252  -2.243  0.00  0.00    +0.036 C 
ATOM      9  C   UNL     1      -3.489  -2.173  -3.174  0.00  0.00    +0.036 C 
BRANCH   7  14
ATOM     10  C   UNL     1       0.896  -0.999  -3.370  0.00  0.00    -0.022 A 
ATOM     11  C   UNL     1       1.195  -0.853  -2.015  0.00  0.00    +0.008 A 
ATOM     12  C   UNL     1       0.377  -1.427  -1.065  0.00  0.00    +0.001 A 
ATOM     13  C   UNL     1      -0.739  -2.147  -1.453  0.00  0.00    +0.006 A 
ATOM     14  C   UNL     1      -1.042  -2.296  -2.795  0.00  0.00    -0.024 A 
ATOM     15  C   UNL     1      -0.234  -1.722  -3.755  0.00  0.00    +0.014 A 
BRANCH  10  17
ATOM     16  C   UNL     1       3.187  -0.866  -4.559  0.00  0.00    +0.044 C 
ATOM     17  C   UNL     1       1.768  -0.386  -4.394  0.00  0.00    -0.050 C 
ATOM     18  C   UNL     1       1.303   0.585  -5.166  0.00  0.00    +0.012 C 
ENDBRANCH  10  17
ENDBRANCH   7  14
ENDBRANCH   1   7
BRANCH   4  19
ATOM     19  C   UNL     1      -3.931  -5.571  -7.049  0.00  0.00    +0.160 C 
BRANCH  19  20
ATOM     20  C   UNL     1      -3.482  -5.984  -8.452  0.00  0.00    +0.276 C 
ATOM     21  C   UNL     1      -4.573  -6.789  -9.111  0.00  0.00    +0.260 C 
ATOM     22  O   UNL     1      -4.571  -7.999  -9.029  0.00  0.00    -0.271 OA
ATOM     23  N   UNL     1      -5.552  -6.158  -9.793  0.00  0.00    -0.279 N 
ATOM     24  C   UNL     1      -5.469  -4.772  -9.983  0.00  0.00    +0.076 A 
ATOM     25  C   UNL     1      -6.553  -4.062 -10.473  0.00  0.00    +0.027 A 
ATOM     26  C   UNL     1      -6.459  -2.693 -10.642  0.00  0.00    +0.002 A 
ATOM     27  C   UNL     1      -5.287  -2.032 -10.324  0.00  0.00    +0.004 A 
ATOM     28  C   UNL     1      -4.200  -2.736  -9.840  0.00  0.00    +0.047 A 
ATOM     29  C   UNL     1      -4.284  -4.107  -9.674  0.00  0.00    +0.143 A 
ATOM     30  O   UNL     1      -3.212  -4.814  -9.229  0.00  0.00    -0.476 OA
ATOM     31  H   UNL     1      -6.304  -6.658 -10.146  0.00  0.00    +0.155 HD
ENDBRANCH  19  20
ENDBRANCH   4  19
TORSDOF 5
