REMARK  Name = ZINC66849004
REMARK  5 active torsions:
REMARK  status: ('A' for Active; 'I' for Inactive)
REMARK    1  A    between atoms: C_1  and  C_2
REMARK    2  A    between atoms: C_2  and  C_4
REMARK    3  A    between atoms: C_2  and  N_11
REMARK    4  A    between atoms: N_9  and  C_10
REMARK    5  A    between atoms: C_15  and  C_18
REMARK                            x       y       z     vdW  Elec       q    Type
REMARK                         _______ _______ _______ _____ _____    ______ ____
ROOT
ATOM      1  N   UNL     1       0.713  -0.491   1.192  0.00  0.00    -0.287 NA
ATOM      2  C   UNL     1       0.070  -0.008   2.423  0.00  0.00    +0.113 C 
ATOM      3  C   UNL     1       0.805  -0.586   3.636  0.00  0.00    +0.176 C 
ATOM      4  O   UNL     1       2.186  -0.222   3.568  0.00  0.00    -0.369 OA
ATOM      5  C   UNL     1       2.843  -0.677   2.382  0.00  0.00    +0.162 C 
ATOM      6  C   UNL     1       2.129  -0.100   1.156  0.00  0.00    +0.121 C 
ENDROOT
BRANCH   5   7
ATOM      7  C   UNL     1       4.278  -0.215   2.393  0.00  0.00    -0.015 A 
ATOM      8  C   UNL     1       4.606   1.009   2.946  0.00  0.00    +0.006 A 
ATOM      9  C   UNL     1       5.921   1.434   2.957  0.00  0.00    +0.003 A 
ATOM     10  C   UNL     1       6.910   0.635   2.415  0.00  0.00    +0.038 A 
ATOM     11  C   UNL     1       6.583  -0.591   1.861  0.00  0.00    +0.124 A 
ATOM     12  C   UNL     1       5.266  -1.018   1.856  0.00  0.00    +0.044 A 
ATOM     13  F   UNL     1       7.549  -1.372   1.330  0.00  0.00    -0.205 F 
ENDBRANCH   5   7
BRANCH   1  15
ATOM     14  C   UNL     1      -0.019   1.526   0.010  0.00  0.00    +0.034 C 
ATOM     15  C   UNL     1       0.002  -0.004   0.002  0.00  0.00    +0.141 C 
BRANCH  15  16
ATOM     16  C   UNL     1      -1.412  -0.526   0.013  0.00  0.00    +0.237 C 
ATOM     17  O   UNL     1      -1.790  -1.233   0.922  0.00  0.00    -0.274 OA
ATOM     18  N   UNL     1      -2.256  -0.206  -0.988  0.00  0.00    -0.239 N 
ATOM     19  C   UNL     1      -3.520  -0.672  -0.979  0.00  0.00    +0.306 C 
ATOM     20  O   UNL     1      -3.899  -1.381  -0.067  0.00  0.00    -0.252 OA
ATOM     21  N   UNL     1      -4.364  -0.353  -1.980  0.00  0.00    -0.302 N 
ATOM     22  C   UNL     1      -5.738  -0.860  -1.970  0.00  0.00    +0.129 C 
ATOM     23  H   UNL     1      -1.953   0.360  -1.716  0.00  0.00    +0.159 HD
ATOM     24  H   UNL     1      -4.061   0.213  -2.707  0.00  0.00    +0.150 HD
ENDBRANCH  15  16
ENDBRANCH   1  15
TORSDOF 3
