REMARK  Name = ZINC04312334
REMARK  11 active torsions:
REMARK  status: ('A' for Active; 'I' for Inactive)
REMARK    1  A    between atoms: C_1  and  C_2
REMARK    2  A    between atoms: C_9  and  C_32
REMARK    3  A    between atoms: C_10  and  C_11
REMARK    4  A    between atoms: C_11  and  C_13
REMARK    5  A    between atoms: N_17  and  C_26
REMARK    6  A    between atoms: C_18  and  C_20
REMARK    7  A    between atoms: C_23  and  C_25
REMARK    8  A    between atoms: C_26  and  C_27
REMARK    9  A    between atoms: C_27  and  N_28
REMARK   10  A    between atoms: N_28  and  C_29
REMARK   11  A    between atoms: N_28  and  C_30
REMARK                            x       y       z     vdW  Elec       q    Type
REMARK                         _______ _______ _______ _____ _____    ______ ____
ROOT
ATOM      1  C   UNL     1       4.530   4.823  -0.051  0.00  0.00    +0.081 C 
ATOM      2  C   UNL     1       5.840   4.500  -0.139  0.00  0.00    +0.249 C 
ATOM      3  C   UNL     1       6.642   5.737  -0.211  0.00  0.00    +0.288 C 
ATOM      4  O   UNL     1       7.854   5.777  -0.297  0.00  0.00    -0.266 OA
ATOM      5  N   UNL     1       5.835   6.812  -0.167  0.00  0.00    -0.282 N 
ATOM      6  C   UNL     1       4.451   6.332  -0.070  0.00  0.00    +0.180 C 
ATOM      7  O   UNL     1       6.338   3.240  -0.159  0.00  0.00    -0.282 OA
ENDROOT
BRANCH   6   8
ATOM      8  C   UNL     1       3.654   6.795  -1.262  0.00  0.00    +0.130 A 
ATOM      9  C   UNL     1       2.367   7.187  -1.243  0.00  0.00    +0.047 A 
ATOM     10  C   UNL     1       2.025   7.534  -2.570  0.00  0.00    +0.045 A 
ATOM     11  C   UNL     1       3.124   7.333  -3.321  0.00  0.00    +0.102 A 
ATOM     12  O   UNL     1       4.108   6.891  -2.522  0.00  0.00    -0.463 OA
ATOM     13  C   UNL     1       3.233   7.571  -4.805  0.00  0.00    +0.086 C 
ENDBRANCH   6   8
BRANCH   1  14
ATOM     14  C   UNL     1       3.402   3.888   0.040  0.00  0.00    +0.214 C 
ATOM     15  O   UNL     1       2.842   3.710   1.108  0.00  0.00    -0.285 OA
BRANCH  14  25
ATOM     16  C   UNL     1       0.727   0.529  -4.314  0.00  0.00    +0.047 C 
ATOM     17  C   UNL     1       0.789   1.040  -2.897  0.00  0.00    -0.008 A 
ATOM     18  C   UNL     1      -0.150   0.656  -1.985  0.00  0.00    +0.008 A 
ATOM     19  C   UNL     1      -0.082   1.143  -0.674  0.00  0.00    +0.018 A 
ATOM     20  C   UNL     1       0.918   1.982  -0.312  0.00  0.00    +0.093 A 
ATOM     21  N   UNL     1       1.860   2.365  -1.214  0.00  0.00    -0.296 N 
ATOM     22  C   UNL     1       1.818   1.911  -2.502  0.00  0.00    +0.141 A 
ATOM     23  N   UNL     1       2.846   2.433  -3.171  0.00  0.00    -0.232 NA
ATOM     24  C   UNL     1       3.556   3.208  -2.371  0.00  0.00    +0.068 A 
ATOM     25  C   UNL     1       2.963   3.193  -1.115  0.00  0.00    +0.116 A 
ATOM     26  C   UNL     1       4.795   3.977  -2.754  0.00  0.00    +0.068 C 
ENDBRANCH  14  25
ENDBRANCH   1  14
BRANCH   5  27
ATOM     27  C   UNL     1       6.261   8.213  -0.215  0.00  0.00    +0.091 C 
BRANCH  27  28
ATOM     28  C   UNL     1       6.307   8.683  -1.670  0.00  0.00    -0.060 C 
BRANCH  28  29
ATOM     29  N   UNL     1       6.734  10.088  -1.718  0.00  0.00    +0.377 N 
ATOM     30  C   UNL     1       8.122  10.232  -1.260  0.00  0.00    -0.097 C 
ATOM     31  C   UNL     1       6.564  10.644  -3.066  0.00  0.00    -0.097 C 
ATOM     32  H   UNL     1       6.091  10.660  -1.032  0.00  0.00    -0.083 HD
ENDBRANCH  28  29
ENDBRANCH  27  28
ENDBRANCH   5  27
TORSDOF 6
