REMARK  Name = ZINC60392954
REMARK  3 active torsions:
REMARK  status: ('A' for Active; 'I' for Inactive)
REMARK    1  A    between atoms: C_1  and  C_2
REMARK    2  A    between atoms: C_5  and  C_7
REMARK    3  A    between atoms: C_10  and  C_12
REMARK                            x       y       z     vdW  Elec       q    Type
REMARK                         _______ _______ _______ _____ _____    ______ ____
ROOT
ATOM      1  C   UNL     1       1.314   0.159   2.237  0.00  0.00    +0.109 A 
ATOM      2  C   UNL     1       2.614   0.183   2.579  0.00  0.00    +0.045 A 
ATOM      3  C   UNL     1       2.747   1.133   3.619  0.00  0.00    +0.047 A 
ATOM      4  C   UNL     1       1.519   1.633   3.849  0.00  0.00    +0.134 A 
ATOM      5  O   UNL     1       0.656   1.043   3.005  0.00  0.00    -0.462 OA
ENDROOT
BRANCH   4   6
ATOM      6  C   UNL     1       1.172   2.680   4.875  0.00  0.00    +0.227 C 
ATOM      7  C   UNL     1       0.503   2.046   6.079  0.00  0.00    +0.248 C 
ATOM      8  O   UNL     1       0.975   1.218   6.828  0.00  0.00    -0.273 OA
ATOM      9  N   UNL     1      -0.727   2.595   6.143  0.00  0.00    -0.238 N 
ATOM     10  C   UNL     1      -0.925   3.478   5.158  0.00  0.00    +0.307 C 
ATOM     11  O   UNL     1      -1.957   4.102   5.008  0.00  0.00    -0.252 OA
ATOM     12  N   UNL     1       0.149   3.601   4.351  0.00  0.00    -0.281 N 
ATOM     13  H   UNL     1      -1.386   2.376   6.820  0.00  0.00    +0.159 HD
ATOM     14  H   UNL     1       0.232   4.180   3.578  0.00  0.00    +0.151 HD
ENDBRANCH   4   6
BRANCH   1  18
ATOM     15  C   UNL     1      -0.019   1.526   0.010  0.00  0.00    +0.008 C 
ATOM     16  C   UNL     1       0.002  -0.004   0.002  0.00  0.00    -0.003 C 
ATOM     17  C   UNL     1      -0.828  -0.728   1.065  0.00  0.00    +0.015 C 
ATOM     18  C   UNL     1       0.700  -0.708   1.168  0.00  0.00    +0.058 C 
ENDBRANCH   1  18
TORSDOF 2
