REMARK  Name = ZINC42477787
REMARK  3 active torsions:
REMARK  status: ('A' for Active; 'I' for Inactive)
REMARK    1  A    between atoms: C_3  and  C_8
REMARK    2  A    between atoms: C_9  and  C_10
REMARK    3  A    between atoms: N_12  and  C_13
REMARK                            x       y       z     vdW  Elec       q    Type
REMARK                         _______ _______ _______ _____ _____    ______ ____
ROOT
ATOM      1  C   UNL     1       6.088   2.244  -0.045  0.00  0.00    +0.237 C 
ATOM      2  O   UNL     1       6.074   3.461  -0.039  0.00  0.00    -0.271 OA
ATOM      3  N   UNL     1       7.262   1.583  -0.060  0.00  0.00    -0.301 N 
ATOM      4  H   UNL     1       7.273   0.613  -0.065  0.00  0.00    +0.150 HD
ENDROOT
BRANCH   3   5
ATOM      5  C   UNL     1       8.523   2.330  -0.068  0.00  0.00    +0.159 C 
ATOM      6  C   UNL     1       9.639   1.462   0.517  0.00  0.00    +0.032 C 
ATOM      7  C   UNL     1      10.754   2.326   1.078  0.00  0.00    +0.004 C 
ATOM      8  C   UNL     1      11.513   3.109   0.023  0.00  0.00    +0.019 C 
ATOM      9  C   UNL     1      10.617   4.171  -0.618  0.00  0.00    +0.104 C 
ATOM     10  N   UNL     1       9.878   3.554  -1.732  0.00  0.00    -0.314 N 
ATOM     11  C   UNL     1       8.888   2.695  -1.492  0.00  0.00    +0.233 C 
ATOM     12  O   UNL     1       8.281   2.200  -2.417  0.00  0.00    -0.274 OA
ATOM     13  H   UNL     1      10.111   3.778  -2.647  0.00  0.00    +0.149 HD
ENDBRANCH   3   5
BRANCH   1  15
ATOM     14  C   UNL     1       3.653   2.158  -0.022  0.00  0.00    +0.013 C 
ATOM     15  C   UNL     1       4.828   1.497  -0.036  0.00  0.00    +0.068 C 
BRANCH  14  18
ATOM     16  C   UNL     1      -0.017   1.379   0.010  0.00  0.00    +0.002 A 
ATOM     17  C   UNL     1       1.166   2.089   0.002  0.00  0.00    +0.008 A 
ATOM     18  C   UNL     1       2.386   1.407  -0.013  0.00  0.00    -0.023 A 
ATOM     19  C   UNL     1       2.398   0.009  -0.021  0.00  0.00    +0.028 A 
ATOM     20  C   UNL     1       1.207  -0.687  -0.013  0.00  0.00    +0.042 A 
ATOM     21  C   UNL     1       0.002  -0.004   0.002  0.00  0.00    +0.020 A 
ATOM     22 CL   UNL     1       1.218  -2.423  -0.023  0.00  0.00    -0.084 Cl
ENDBRANCH  14  18
ENDBRANCH   1  15
TORSDOF 3
