REMARK  Name = ZINC49323062
REMARK  5 active torsions:
REMARK  status: ('A' for Active; 'I' for Inactive)
REMARK    1  A    between atoms: C_1  and  C_2
REMARK    2  A    between atoms: C_2  and  C_3
REMARK    3  A    between atoms: C_2  and  N_4
REMARK    4  A    between atoms: C_8  and  C_10
REMARK    5  A    between atoms: C_10  and  N_11
REMARK                            x       y       z     vdW  Elec       q    Type
REMARK                         _______ _______ _______ _____ _____    ______ ____
ROOT
ATOM      1  N   UNL     1      -1.372  -0.511   0.012  0.00  0.00    -0.297 N 
ATOM      2  C   UNL     1      -2.051  -0.643  -1.145  0.00  0.00    +0.306 C 
ATOM      3  O   UNL     1      -1.522  -0.341  -2.197  0.00  0.00    -0.252 OA
ATOM      4  N   UNL     1      -3.315  -1.109  -1.135  0.00  0.00    -0.239 N 
ATOM      5  C   UNL     1      -3.994  -1.241  -2.292  0.00  0.00    +0.238 C 
ATOM      6  O   UNL     1      -3.467  -0.940  -3.341  0.00  0.00    -0.274 OA
ATOM      7  H   UNL     1      -1.794  -0.752   0.852  0.00  0.00    +0.151 HD
ATOM      8  H   UNL     1      -3.737  -1.350  -0.295  0.00  0.00    +0.159 HD
ENDROOT
BRANCH   1  10
ATOM      9  C   UNL     1      -0.019   1.526   0.010  0.00  0.00    +0.027 C 
ATOM     10  C   UNL     1       0.002  -0.004   0.002  0.00  0.00    +0.068 C 
ATOM     11  C   UNL     1       0.742  -0.511   1.242  0.00  0.00    +0.027 C 
ENDBRANCH   1  10
BRANCH   5  12
ATOM     12  C   UNL     1      -5.408  -1.762  -2.281  0.00  0.00    +0.201 C 
BRANCH  12  13
ATOM     13  N   UNL     1      -5.920  -1.811  -3.653  0.00  0.00    -0.321 N 
ATOM     14  C   UNL     1      -6.622  -0.715  -4.326  0.00  0.00    +0.110 C 
ATOM     15  C   UNL     1      -6.952  -1.250  -5.729  0.00  0.00    +0.056 C 
ATOM     16  C   UNL     1      -6.393  -2.655  -5.742  0.00  0.00    -0.024 A 
ATOM     17  C   UNL     1      -5.807  -2.906  -4.511  0.00  0.00    +0.033 A 
ATOM     18  C   UNL     1      -5.212  -4.149  -4.285  0.00  0.00    +0.024 A 
ATOM     19  C   UNL     1      -5.206  -5.108  -5.276  0.00  0.00    +0.017 A 
ATOM     20  C   UNL     1      -5.789  -4.845  -6.503  0.00  0.00    +0.018 A 
ATOM     21  C   UNL     1      -6.389  -3.619  -6.731  0.00  0.00    +0.020 A 
ATOM     22 BR   UNL     1      -5.778  -6.162  -7.860  0.00  0.00    -0.050 Br
ENDBRANCH  12  13
ENDBRANCH   5  12
TORSDOF 3
