REMARK  Name = ZINC58223131
REMARK  6 active torsions:
REMARK  status: ('A' for Active; 'I' for Inactive)
REMARK    1  A    between atoms: C_1  and  C_2
REMARK    2  A    between atoms: C_4  and  C_16
REMARK    3  A    between atoms: C_7  and  N_8
REMARK    4  A    between atoms: N_8  and  C_9
REMARK    5  A    between atoms: C_9  and  C_10
REMARK    6  A    between atoms: C_22  and  C_25
REMARK                            x       y       z     vdW  Elec       q    Type
REMARK                         _______ _______ _______ _____ _____    ______ ____
ROOT
ATOM      1  C   UNL     1      -0.688   1.392   0.096  0.00  0.00    +0.045 C 
ATOM      2  C   UNL     1      -0.303  -0.064   0.047  0.00  0.00    -0.029 A 
ATOM      3  C   UNL     1      -0.316  -0.739  -1.153  0.00  0.00    +0.018 A 
ATOM      4  C   UNL     1       0.042  -2.089  -1.197  0.00  0.00    +0.037 A 
ATOM      5  C   UNL     1       0.413  -2.750  -0.022  0.00  0.00    +0.015 A 
ATOM      6  C   UNL     1       0.424  -2.070   1.174  0.00  0.00    +0.024 A 
ATOM      7  C   UNL     1       0.072  -0.724   1.214  0.00  0.00    +0.030 A 
ENDROOT
BRANCH   4   8
ATOM      8  C   UNL     1       0.029  -2.815  -2.481  0.00  0.00    +0.247 C 
ATOM      9  O   UNL     1       0.447  -2.278  -3.488  0.00  0.00    -0.270 OA
ATOM     10  N   UNL     1      -0.447  -4.075  -2.538  0.00  0.00    -0.297 N 
ATOM     11  C   UNL     1      -1.078  -4.691  -1.362  0.00  0.00    +0.108 C 
ATOM     12  C   UNL     1      -2.463  -5.210  -1.761  0.00  0.00    +0.019 C 
ATOM     13  C   UNL     1      -2.325  -6.147  -2.963  0.00  0.00    +0.006 C 
ATOM     14  C   UNL     1      -1.738  -5.377  -4.148  0.00  0.00    +0.003 C 
ATOM     15  C   UNL     1      -0.351  -4.857  -3.778  0.00  0.00    +0.111 C 
ATOM     16  C   UNL     1      -1.632  -6.306  -5.359  0.00  0.00    +0.009 C 
ENDBRANCH   4   8
BRANCH   7  17
ATOM     17  N   UNL     1       0.090  -0.038   2.423  0.00  0.00    -0.335 N 
ATOM     18  H   UNL     1      -0.158   0.899   2.453  0.00  0.00    +0.147 HD
BRANCH  17  19
ATOM     19  C   UNL     1       0.484  -0.731   3.653  0.00  0.00    +0.198 C 
BRANCH  19  20
ATOM     20  C   UNL     1       0.420   0.229   4.813  0.00  0.00    +0.237 C 
ATOM     21  O   UNL     1       0.078   1.378   4.631  0.00  0.00    -0.274 OA
ATOM     22  N   UNL     1       0.742  -0.190   6.053  0.00  0.00    -0.239 N 
ATOM     23  C   UNL     1       0.684   0.668   7.090  0.00  0.00    +0.303 C 
ATOM     24  O   UNL     1       0.342   1.820   6.908  0.00  0.00    -0.253 OA
ATOM     25  N   UNL     1       1.006   0.249   8.330  0.00  0.00    -0.313 N 
ATOM     26  H   UNL     1       1.015  -1.109   6.198  0.00  0.00    +0.159 HD
ATOM     27  H   UNL     1       1.279  -0.670   8.476  0.00  0.00    +0.146 HD
ATOM     28  H   UNL     1       0.965   0.867   9.077  0.00  0.00    +0.146 HD
ENDBRANCH  19  20
ENDBRANCH  17  19
ENDBRANCH   7  17
TORSDOF 4
