REMARK  Name = ZINC62411451
REMARK  8 active torsions:
REMARK  status: ('A' for Active; 'I' for Inactive)
REMARK    1  A    between atoms: C_1  and  C_2
REMARK    2  A    between atoms: C_2  and  C_3
REMARK    3  A    between atoms: C_2  and  N_12
REMARK    4  A    between atoms: N_5  and  C_6
REMARK    5  A    between atoms: C_6  and  C_7
REMARK    6  A    between atoms: N_15  and  C_16
REMARK    7  A    between atoms: C_23  and  C_25
REMARK    8  A    between atoms: C_23  and  C_26
REMARK                            x       y       z     vdW  Elec       q    Type
REMARK                         _______ _______ _______ _____ _____    ______ ____
ROOT
ATOM      1  N   UNL     1       0.687  -0.482  -1.202  0.00  0.00    -0.288 N 
ATOM      2  C   UNL     1       2.031  -0.585  -1.216  0.00  0.00    +0.304 C 
ATOM      3  O   UNL     1       2.674  -0.284  -0.229  0.00  0.00    -0.252 OA
ATOM      4  N   UNL     1       2.662  -1.022  -2.324  0.00  0.00    -0.269 N 
ATOM      5  H   UNL     1       0.174  -0.722  -1.989  0.00  0.00    +0.151 HD
ATOM      6  H   UNL     1       2.147  -1.325  -3.088  0.00  0.00    +0.156 HD
ENDROOT
BRANCH   4   7
ATOM      7  C   UNL     1       4.062  -1.037  -2.373  0.00  0.00    +0.038 A 
ATOM      8  C   UNL     1       4.718  -0.758  -3.564  0.00  0.00    +0.027 A 
ATOM      9  C   UNL     1       6.099  -0.772  -3.613  0.00  0.00    +0.051 A 
ATOM     10  C   UNL     1       6.833  -1.066  -2.475  0.00  0.00    +0.167 A 
ATOM     11  C   UNL     1       6.177  -1.346  -1.279  0.00  0.00    +0.169 A 
ATOM     12  C   UNL     1       4.793  -1.326  -1.229  0.00  0.00    +0.073 A 
ATOM     13  O   UNL     1       7.113  -1.600  -0.318  0.00  0.00    -0.448 OA
ATOM     14  C   UNL     1       8.333  -1.873  -1.031  0.00  0.00    +0.248 C 
ATOM     15  O   UNL     1       8.180  -1.144  -2.263  0.00  0.00    -0.448 OA
ATOM     16  C   UNL     1       9.541  -1.357  -0.247  0.00  0.00    +0.104 C 
ATOM     17  C   UNL     1       8.470  -3.372  -1.307  0.00  0.00    +0.104 C 
ENDBRANCH   4   7
BRANCH   1  19
ATOM     18  C   UNL     1      -0.028   1.522   0.004  0.00  0.00    +0.038 C 
ATOM     19  C   UNL     1       0.002  -0.008   0.003  0.00  0.00    +0.157 C 
BRANCH  19  20
ATOM     20  C   UNL     1      -1.409  -0.537   0.019  0.00  0.00    +0.233 C 
ATOM     21  O   UNL     1      -1.803  -1.241  -0.886  0.00  0.00    -0.274 OA
ATOM     22  N   UNL     1      -2.233  -0.228   1.040  0.00  0.00    -0.307 N 
ATOM     23  H   UNL     1      -1.918   0.335   1.764  0.00  0.00    +0.149 HD
BRANCH  22  24
ATOM     24  C   UNL     1      -3.605  -0.743   1.056  0.00  0.00    +0.178 C 
BRANCH  24  25
ATOM     25  C   UNL     1      -4.310  -0.255   2.295  0.00  0.00    +0.122 A 
ATOM     26  C   UNL     1      -5.021   0.882   2.399  0.00  0.00    +0.046 A 
ATOM     27  C   UNL     1      -5.503   0.944   3.727  0.00  0.00    +0.041 A 
ATOM     28  C   UNL     1      -5.058  -0.159   4.355  0.00  0.00    +0.195 A 
ATOM     29  O   UNL     1      -4.340  -0.884   3.481  0.00  0.00    -0.466 OA
ENDBRANCH  24  25
ENDBRANCH  22  24
ENDBRANCH  19  20
ENDBRANCH   1  19
TORSDOF 5
