REMARK  Name = ZINC12940838
REMARK  7 active torsions:
REMARK  status: ('A' for Active; 'I' for Inactive)
REMARK    1  A    between atoms: N_4  and  C_6
REMARK    2  A    between atoms: C_6  and  C_7
REMARK    3  A    between atoms: C_10  and  C_13
REMARK    4  A    between atoms: C_13  and  N_14
REMARK    5  A    between atoms: C_15  and  C_17
REMARK    6  A    between atoms: C_17  and  C_18
REMARK    7  A    between atoms: C_18  and  N_19
REMARK                            x       y       z     vdW  Elec       q    Type
REMARK                         _______ _______ _______ _____ _____    ______ ____
ROOT
ATOM      1  N   UNL     1      -3.472   3.619   2.648  0.00  0.00    -0.311 N 
ATOM      2  C   UNL     1      -2.915   3.255   1.477  0.00  0.00    +0.215 C 
ATOM      3  O   UNL     1      -3.427   3.594   0.431  0.00  0.00    -0.276 OA
ATOM      4  H   UNL     1      -3.063   3.348   3.485  0.00  0.00    +0.149 HD
ENDROOT
BRANCH   1   5
ATOM      5  C   UNL     1      -4.695   4.426   2.659  0.00  0.00    +0.139 C 
BRANCH   5   9
ATOM      6  C   UNL     1      -5.864   5.189   6.696  0.00  0.00    -0.026 A 
ATOM      7  C   UNL     1      -5.016   6.065   6.045  0.00  0.00    +0.006 A 
ATOM      8  C   UNL     1      -4.637   5.818   4.739  0.00  0.00    +0.005 A 
ATOM      9  C   UNL     1      -5.107   4.695   4.083  0.00  0.00    -0.030 A 
ATOM     10  C   UNL     1      -5.960   3.822   4.732  0.00  0.00    +0.005 A 
ATOM     11  C   UNL     1      -6.335   4.066   6.041  0.00  0.00    +0.006 A 
BRANCH   6  12
ATOM     12  C   UNL     1      -6.276   5.458   8.120  0.00  0.00    +0.178 C 
BRANCH  12  16
ATOM     13  C   UNL     1      -9.533   6.952   8.527  0.00  0.00    +0.041 A 
ATOM     14  C   UNL     1      -8.898   7.907   7.727  0.00  0.00    +0.134 A 
ATOM     15  N   UNL     1      -7.679   7.496   7.488  0.00  0.00    -0.179 NA
ATOM     16  N   UNL     1      -7.499   6.264   8.131  0.00  0.00    -0.267 N 
ATOM     17  C   UNL     1      -8.652   5.950   8.756  0.00  0.00    +0.108 A 
ENDBRANCH  12  16
ENDBRANCH   6  12
ENDBRANCH   5   9
ENDBRANCH   1   5
BRANCH   2  18
ATOM     18  C   UNL     1      -1.658   2.425   1.466  0.00  0.00    +0.115 C 
BRANCH  18  19
ATOM     19  C   UNL     1      -1.239   2.152   0.020  0.00  0.00    +0.127 C 
BRANCH  19  20
ATOM     20  N   UNL     1      -0.016   1.345   0.009  0.00  0.00    -0.224 N 
ATOM     21  C   UNL     1       0.002  -0.004   0.002  0.00  0.00    +0.247 C 
ATOM     22  O   UNL     1      -0.953  -0.751   0.007  0.00  0.00    -0.273 OA
ATOM     23  C   UNL     1       1.464  -0.388  -0.014  0.00  0.00    +0.113 C 
ATOM     24  C   UNL     1       1.792  -1.178  -1.276  0.00  0.00    +0.035 C 
ATOM     25  C   UNL     1       3.281  -1.532  -1.287  0.00  0.00    +0.003 C 
ATOM     26  C   UNL     1       3.616  -2.361  -0.045  0.00  0.00    +0.000 C 
ATOM     27  C   UNL     1       3.305  -1.546   1.212  0.00  0.00    +0.003 C 
ATOM     28  C   UNL     1       1.816  -1.192   1.233  0.00  0.00    +0.035 C 
ATOM     29  N   UNL     1       2.171   0.899  -0.014  0.00  0.00    -0.285 N 
ATOM     30  C   UNL     1       1.222   1.855   0.000  0.00  0.00    +0.309 C 
ATOM     31  O   UNL     1       1.462   3.046   0.004  0.00  0.00    -0.252 OA
ATOM     32  H   UNL     1       3.131   1.035  -0.023  0.00  0.00    +0.151 HD
ENDBRANCH  19  20
ENDBRANCH  18  19
ENDBRANCH   2  18
TORSDOF 7
