REMARK  Name = ZINC63899652
REMARK  6 active torsions:
REMARK  status: ('A' for Active; 'I' for Inactive)
REMARK    1  A    between atoms: C_7  and  C_10
REMARK    2  A    between atoms: C_10  and  C_11
REMARK    3  A    between atoms: C_11  and  N_12
REMARK    4  A    between atoms: C_13  and  C_15
REMARK    5  A    between atoms: C_18  and  C_29
REMARK    6  A    between atoms: N_19  and  C_21
REMARK                            x       y       z     vdW  Elec       q    Type
REMARK                         _______ _______ _______ _____ _____    ______ ____
ROOT
ATOM      1  C   UNL     1      -1.721  -6.546  -2.688  0.00  0.00    +0.183 C 
ATOM      2  C   UNL     1      -3.037  -6.129  -2.068  0.00  0.00    +0.028 C 
ATOM      3  C   UNL     1      -3.980  -6.354  -2.987  0.00  0.00    +0.057 C 
ATOM      4  N   UNL     1      -3.434  -6.875  -4.152  0.00  0.00    -0.260 N 
ATOM      5  N   UNL     1      -2.079  -7.019  -4.040  0.00  0.00    -0.224 NA
ATOM      6  H   UNL     1      -1.598  -6.485  -4.748  0.00  0.00    +0.146 HD
ENDROOT
BRANCH   4   7
ATOM      7  C   UNL     1      -4.208  -7.229  -5.344  0.00  0.00    +0.113 C 
ATOM      8  C   UNL     1      -4.122  -8.744  -5.590  0.00  0.00    +0.048 C 
ATOM      9  C   UNL     1      -4.657  -9.081  -7.003  0.00  0.00    +0.168 C 
ATOM     10  S   UNL     1      -4.312  -7.539  -7.944  0.00  0.00    -0.029 S 
ATOM     11  O   UNL     1      -3.290  -7.797  -8.896  0.00  0.00    -0.174 OA
ATOM     12  O   UNL     1      -5.543  -6.975  -8.374  0.00  0.00    -0.174 OA
ATOM     13  C   UNL     1      -3.619  -6.503  -6.587  0.00  0.00    +0.189 C 
ENDBRANCH   4   7
BRANCH   3  14
ATOM     14  C   UNL     1      -5.416  -6.083  -2.789  0.00  0.00    +0.034 A 
ATOM     15  C   UNL     1      -6.073  -5.693  -1.651  0.00  0.00    +0.017 A 
ATOM     16  C   UNL     1      -7.434  -5.498  -1.706  0.00  0.00    +0.008 A 
ATOM     17  C   UNL     1      -8.084  -5.696  -2.883  0.00  0.00    +0.046 A 
ATOM     18  S   UNL     1      -6.751  -6.170  -3.971  0.00  0.00    -0.095 S 
ENDBRANCH   3  14
BRANCH   1  20
ATOM     19  N   UNL     1      -0.359  -4.763  -1.647  0.00  0.00    -0.313 N 
ATOM     20  C   UNL     1      -0.783  -5.370  -2.773  0.00  0.00    +0.236 C 
ATOM     21  O   UNL     1      -0.410  -4.969  -3.855  0.00  0.00    -0.274 OA
ATOM     22  H   UNL     1      -0.657  -5.084  -0.781  0.00  0.00    +0.149 HD
BRANCH  19  23
ATOM     23  C   UNL     1       0.553  -3.619  -1.730  0.00  0.00    +0.108 C 
BRANCH  23  24
ATOM     24  C   UNL     1       0.876  -3.122  -0.319  0.00  0.00    +0.052 C 
BRANCH  24  31
ATOM     25  C   UNL     1       0.168   1.412  -0.336  0.00  0.00    +0.001 A 
ATOM     26  C   UNL     1       1.347   2.164  -0.433  0.00  0.00    +0.002 A 
ATOM     27  C   UNL     1       2.569   1.598  -0.513  0.00  0.00    +0.026 A 
ATOM     28  C   UNL     1       2.707   0.182  -0.501  0.00  0.00    +0.043 A 
ATOM     29  N   UNL     1       3.763  -0.592  -0.567  0.00  0.00    -0.380 N 
ATOM     30  C   UNL     1       3.322  -1.990  -0.513  0.00  0.00    +0.144 C 
ATOM     31  C   UNL     1       1.814  -1.945  -0.404  0.00  0.00    -0.040 C 
ATOM     32  C   UNL     1       1.478  -0.635  -0.400  0.00  0.00    -0.001 A 
ATOM     33  C   UNL     1       0.187   0.060  -0.317  0.00  0.00    +0.010 A 
ATOM     34  H   UNL     1       4.683  -0.291  -0.638  0.00  0.00    +0.160 HD
ENDBRANCH  24  31
ENDBRANCH  23  24
ENDBRANCH  19  23
ENDBRANCH   1  20
TORSDOF 6
