REMARK  Name = ZINC49179930
REMARK  4 active torsions:
REMARK  status: ('A' for Active; 'I' for Inactive)
REMARK    1  A    between atoms: C_3  and  C_6
REMARK    2  A    between atoms: C_6  and  N_7
REMARK    3  A    between atoms: C_8  and  C_10
REMARK    4  A    between atoms: C_15  and  O_16
REMARK                            x       y       z     vdW  Elec       q    Type
REMARK                         _______ _______ _______ _____ _____    ______ ____
ROOT
ATOM      1  C   UNL     1       5.933   0.556   2.966  0.00  0.00    +0.078 A 
ATOM      2  C   UNL     1       5.044   0.565   4.039  0.00  0.00    +0.020 A 
ATOM      3  C   UNL     1       5.513   0.546   5.342  0.00  0.00    -0.043 A 
ATOM      4  C   UNL     1       6.872   0.513   5.584  0.00  0.00    -0.041 A 
ATOM      5  C   UNL     1       7.766   0.507   4.523  0.00  0.00    +0.050 A 
ATOM      6  C   UNL     1       7.312   0.523   3.216  0.00  0.00    +0.129 A 
ATOM      7  C   UNL     1       7.444   0.475   6.978  0.00  0.00    +0.035 C 
ATOM      8  C   UNL     1       6.400   0.917   8.001  0.00  0.00    +0.005 C 
ATOM      9  C   UNL     1       5.120   0.106   7.766  0.00  0.00    +0.005 C 
ATOM     10  C   UNL     1       4.493   0.566   6.451  0.00  0.00    +0.035 C 
ENDROOT
BRANCH   1  12
ATOM     11  N   UNL     1       4.101   0.607   1.347  0.00  0.00    -0.304 N 
ATOM     12  C   UNL     1       5.428   0.575   1.580  0.00  0.00    +0.248 C 
ATOM     13  O   UNL     1       6.208   0.561   0.648  0.00  0.00    -0.270 OA
ATOM     14  H   UNL     1       3.478   0.617   2.090  0.00  0.00    +0.149 HD
BRANCH  11  15
ATOM     15  C   UNL     1       3.599   0.625  -0.029  0.00  0.00    +0.179 C 
BRANCH  15  18
ATOM     16  C   UNL     1      -0.016   1.341   0.009  0.00  0.00    +0.041 A 
ATOM     17  C   UNL     1       1.331   1.769  -0.001  0.00  0.00    +0.046 A 
ATOM     18  C   UNL     1       2.092   0.660  -0.014  0.00  0.00    +0.122 A 
ATOM     19  O   UNL     1       1.282  -0.411  -0.012  0.00  0.00    -0.466 OA
ATOM     20  C   UNL     1       0.002  -0.004   0.002  0.00  0.00    +0.195 A 
ENDBRANCH  15  18
ENDBRANCH  11  15
ENDBRANCH   1  12
BRANCH   6  21
ATOM     21  O   UNL     1       8.194   0.510   2.185  0.00  0.00    -0.506 OA
ATOM     22  H   UNL     1       8.469   1.390   1.893  0.00  0.00    +0.292 HD
ENDBRANCH   6  21
TORSDOF 4
