REMARK  Name = ZINC06346830
REMARK  5 active torsions:
REMARK  status: ('A' for Active; 'I' for Inactive)
REMARK    1  A    between atoms: N_8  and  N_9
REMARK    2  A    between atoms: C_10  and  C_12
REMARK    3  A    between atoms: C_15  and  N_18
REMARK    4  A    between atoms: N_21  and  C_22
REMARK    5  A    between atoms: C_22  and  C_23
REMARK                            x       y       z     vdW  Elec       q    Type
REMARK                         _______ _______ _______ _____ _____    ______ ____
ROOT
ATOM      1  C   UNL     1       0.047   1.319   0.764  0.00  0.00    +0.001 A 
ATOM      2  C   UNL     1       1.229   2.035   0.675  0.00  0.00    +0.002 A 
ATOM      3  C   UNL     1       2.418   1.397   0.384  0.00  0.00    +0.024 A 
ATOM      4  C   UNL     1       2.440   0.023   0.175  0.00  0.00    +0.046 A 
ATOM      5  C   UNL     1       1.242  -0.698   0.265  0.00  0.00    +0.028 A 
ATOM      6  C   UNL     1       0.050  -0.047   0.559  0.00  0.00    +0.012 A 
ATOM      7  C   UNL     1       1.585  -2.114  -0.002  0.00  0.00    +0.153 C 
ATOM      8  N   UNL     1       0.772  -3.143  -0.022  0.00  0.00    -0.174 NA
ATOM      9  C   UNL     1       3.042  -2.115  -0.243  0.00  0.00    +0.272 C 
ATOM     10  O   UNL     1       3.725  -3.088  -0.501  0.00  0.00    -0.268 OA
ATOM     11  N   UNL     1       3.480  -0.850  -0.127  0.00  0.00    -0.261 N 
ENDROOT
BRANCH   8  12
ATOM     12  N   UNL     1      -0.610  -2.946   0.098  0.00  0.00    -0.202 N 
ATOM     13  C   UNL     1      -1.435  -4.007   0.201  0.00  0.00    +0.263 C 
ATOM     14  O   UNL     1      -0.980  -5.134   0.191  0.00  0.00    -0.268 OA
ATOM     15  H   UNL     1      -0.973  -2.047   0.106  0.00  0.00    +0.178 HD
BRANCH  13  16
ATOM     16  C   UNL     1      -2.889  -3.800   0.327  0.00  0.00    +0.038 A 
ATOM     17  C   UNL     1      -3.414  -2.503   0.333  0.00  0.00    +0.015 A 
ATOM     18  C   UNL     1      -4.767  -2.314   0.450  0.00  0.00    +0.023 A 
ATOM     19  C   UNL     1      -5.618  -3.411   0.563  0.00  0.00    +0.025 A 
ATOM     20  C   UNL     1      -5.098  -4.702   0.557  0.00  0.00    +0.023 A 
ATOM     21  C   UNL     1      -3.747  -4.899   0.434  0.00  0.00    +0.015 A 
BRANCH  19  22
ATOM     22  N   UNL     1      -6.989  -3.215   0.682  0.00  0.00    -0.358 N 
ATOM     23  H   UNL     1      -7.352  -2.316   0.686  0.00  0.00    +0.142 HD
ATOM     24  H   UNL     1      -7.583  -3.978   0.760  0.00  0.00    +0.142 HD
ENDBRANCH  19  22
ENDBRANCH  13  16
ENDBRANCH   8  12
BRANCH  11  25
ATOM     25  C   UNL     1       4.876  -0.441  -0.297  0.00  0.00    +0.149 C 
BRANCH  25  26
ATOM     26  C   UNL     1       5.584  -0.507   1.032  0.00  0.00    -0.030 A 
ATOM     27  C   UNL     1       5.598   0.597   1.863  0.00  0.00    +0.006 A 
ATOM     28  C   UNL     1       6.248   0.537   3.082  0.00  0.00    +0.020 A 
ATOM     29  C   UNL     1       6.884  -0.629   3.469  0.00  0.00    +0.041 A 
ATOM     30  C   UNL     1       6.869  -1.734   2.637  0.00  0.00    +0.020 A 
ATOM     31  C   UNL     1       6.215  -1.674   1.421  0.00  0.00    +0.006 A 
ATOM     32 CL   UNL     1       7.700  -0.706   5.000  0.00  0.00    -0.084 Cl
ENDBRANCH  25  26
ENDBRANCH  11  25
TORSDOF 5
