REMARK  Name = ZINC40426568
REMARK  8 active torsions:
REMARK  status: ('A' for Active; 'I' for Inactive)
REMARK    1  A    between atoms: C_1  and  C_2
REMARK    2  A    between atoms: C_2  and  C_4
REMARK    3  A    between atoms: C_2  and  N_15
REMARK    4  A    between atoms: N_6  and  C_7
REMARK    5  A    between atoms: C_10  and  O_13
REMARK    6  A    between atoms: O_13  and  C_14
REMARK    7  A    between atoms: C_21  and  C_28
REMARK    8  A    between atoms: N_26  and  C_27
REMARK                            x       y       z     vdW  Elec       q    Type
REMARK                         _______ _______ _______ _____ _____    ______ ____
ROOT
ATOM      1  N   UNL     1       0.909  -0.188  -1.183  0.00  0.00    -0.281 N 
ATOM      2  C   UNL     1       0.497  -1.026  -2.319  0.00  0.00    +0.160 C 
ATOM      3  C   UNL     1       1.681  -1.015  -3.260  0.00  0.00    +0.042 C 
ATOM      4  C   UNL     1       2.623  -0.246  -2.676  0.00  0.00    +0.058 C 
ATOM      5  C   UNL     1       2.155   0.248  -1.441  0.00  0.00    +0.247 C 
ATOM      6  O   UNL     1       2.797   0.973  -0.702  0.00  0.00    -0.270 OA
ATOM      7  C   UNL     1       3.935  -0.058  -3.410  0.00  0.00    +0.143 C 
ATOM      8  N   UNL     1       4.073  -0.736  -4.711  0.00  0.00    -0.288 N 
ATOM      9  C   UNL     1       3.040  -1.473  -5.164  0.00  0.00    +0.307 C 
ATOM     10  O   UNL     1       3.145  -2.037  -6.236  0.00  0.00    -0.252 OA
ATOM     11  N   UNL     1       1.901  -1.605  -4.471  0.00  0.00    -0.260 N 
ATOM     12  C   UNL     1       0.833  -2.427  -5.045  0.00  0.00    +0.139 C 
ATOM     13  H   UNL     1       4.889  -0.654  -5.229  0.00  0.00    +0.151 HD
ENDROOT
BRANCH   7  14
ATOM     14  C   UNL     1       4.135   1.418  -3.634  0.00  0.00    -0.004 A 
ATOM     15  C   UNL     1       3.740   1.998  -4.825  0.00  0.00    +0.007 A 
ATOM     16  C   UNL     1       3.924   3.352  -5.029  0.00  0.00    +0.000 A 
ATOM     17  C   UNL     1       4.504   4.128  -4.043  0.00  0.00    +0.001 A 
ATOM     18  C   UNL     1       4.900   3.550  -2.852  0.00  0.00    +0.020 A 
ATOM     19  C   UNL     1       4.710   2.196  -2.644  0.00  0.00    +0.046 A 
ATOM     20 CL   UNL     1       5.201   1.470  -1.145  0.00  0.00    -0.083 Cl
ENDBRANCH   7  14
BRANCH   1  22
ATOM     21  C   UNL     1      -0.100   1.633   0.101  0.00  0.00    +0.038 C 
ATOM     22  C   UNL     1       0.109   0.120   0.005  0.00  0.00    +0.160 C 
BRANCH  22  23
ATOM     23  C   UNL     1       0.829  -0.366   1.236  0.00  0.00    +0.237 C 
ATOM     24  O   UNL     1       1.905  -0.917   1.131  0.00  0.00    -0.273 OA
ATOM     25  N   UNL     1       0.278  -0.191   2.453  0.00  0.00    -0.284 N 
ATOM     26  H   UNL     1      -0.544   0.316   2.545  0.00  0.00    +0.155 HD
BRANCH  25  27
ATOM     27  C   UNL     1       0.892  -0.740   3.586  0.00  0.00    +0.034 A 
ATOM     28  C   UNL     1       0.813  -0.082   4.807  0.00  0.00    +0.027 A 
ATOM     29  C   UNL     1       1.418  -0.624   5.923  0.00  0.00    +0.047 A 
ATOM     30  C   UNL     1       2.106  -1.824   5.826  0.00  0.00    +0.120 A 
ATOM     31  C   UNL     1       2.186  -2.482   4.607  0.00  0.00    +0.047 A 
ATOM     32  C   UNL     1       1.575  -1.944   3.491  0.00  0.00    +0.027 A 
BRANCH  30  33
ATOM     33  O   UNL     1       2.702  -2.357   6.926  0.00  0.00    -0.495 OA
ATOM     34  C   UNL     1       3.393  -3.596   6.753  0.00  0.00    +0.277 C 
ENDBRANCH  30  33
ENDBRANCH  25  27
ENDBRANCH  22  23
ENDBRANCH   1  22
TORSDOF 5
