REMARK  Name = ZINC67631904
REMARK  13 active torsions:
REMARK  status: ('A' for Active; 'I' for Inactive)
REMARK    1  A    between atoms: C_1  and  C_2
REMARK    2  A    between atoms: C_7  and  C_9
REMARK    3  A    between atoms: C_7  and  N_26
REMARK    4  A    between atoms: C_9  and  N_10
REMARK    5  A    between atoms: N_13  and  C_14
REMARK    6  A    between atoms: C_14  and  C_15
REMARK    7  A    between atoms: C_18  and  N_21
REMARK    8  A    between atoms: N_21  and  C_22
REMARK    9  A    between atoms: C_22  and  C_23
REMARK   10  A    between atoms: C_23  and  O_24
REMARK   11  A    between atoms: O_24  and  C_25
REMARK   12  A    between atoms: N_26  and  C_27
REMARK   13  A    between atoms: N_26  and  C_28
REMARK                            x       y       z     vdW  Elec       q    Type
REMARK                         _______ _______ _______ _____ _____    ______ ____
ROOT
ATOM      1  N   UNL     1       1.866  -4.013   0.110  0.00  0.00    -0.301 N 
ATOM      2  C   UNL     1       2.681  -4.581  -0.802  0.00  0.00    +0.300 C 
ATOM      3  O   UNL     1       3.383  -3.883  -1.508  0.00  0.00    -0.253 OA
ATOM      4  N   UNL     1       2.718  -5.922  -0.931  0.00  0.00    -0.295 N 
ATOM      5  H   UNL     1       1.306  -4.570   0.673  0.00  0.00    +0.150 HD
ATOM      6  H   UNL     1       2.158  -6.479  -0.367  0.00  0.00    +0.151 HD
ENDROOT
BRANCH   1   7
ATOM      7  C   UNL     1       1.826  -2.555   0.250  0.00  0.00    +0.094 C 
BRANCH   7  13
ATOM      8  C   UNL     1       3.105  -2.691   4.382  0.00  0.00    +0.007 C 
ATOM      9  C   UNL     1       2.643  -2.138   3.032  0.00  0.00    -0.015 C 
ATOM     10  C   UNL     1       2.534  -0.614   3.115  0.00  0.00    +0.003 C 
ATOM     11  C   UNL     1       2.072  -0.061   1.766  0.00  0.00    -0.001 C 
ATOM     12  C   UNL     1       0.705  -0.651   1.414  0.00  0.00    -0.010 C 
ATOM     13  C   UNL     1       0.813  -2.175   1.331  0.00  0.00    -0.050 C 
ATOM     14  C   UNL     1       1.275  -2.728   2.680  0.00  0.00    -0.007 C 
BRANCH  13  15
ATOM     15  N   UNL     1      -0.499  -2.741   0.993  0.00  0.00    +0.381 N 
ATOM     16  C   UNL     1      -1.489  -2.311   1.990  0.00  0.00    -0.096 C 
ATOM     17  C   UNL     1      -0.908  -2.271  -0.337  0.00  0.00    -0.096 C 
ATOM     18  H   UNL     1      -0.441  -3.748   0.991  0.00  0.00    -0.082 HD
ENDBRANCH  13  15
ENDBRANCH   7  13
ENDBRANCH   1   7
BRANCH   4  19
ATOM     19  C   UNL     1       3.603  -6.538  -1.922  0.00  0.00    +0.141 C 
BRANCH  19  20
ATOM     20  C   UNL     1       3.456  -8.037  -1.863  0.00  0.00    -0.030 A 
ATOM     21  C   UNL     1       4.260  -8.777  -1.016  0.00  0.00    +0.007 A 
ATOM     22  C   UNL     1       4.127 -10.151  -0.960  0.00  0.00    +0.023 A 
ATOM     23  C   UNL     1       3.185 -10.789  -1.756  0.00  0.00    +0.027 A 
ATOM     24  C   UNL     1       2.379 -10.042  -2.607  0.00  0.00    +0.023 A 
ATOM     25  C   UNL     1       2.513  -8.669  -2.653  0.00  0.00    +0.007 A 
BRANCH  23  26
ATOM     26  N   UNL     1       3.049 -12.178  -1.703  0.00  0.00    -0.342 N 
ATOM     27  H   UNL     1       3.612 -12.698  -1.109  0.00  0.00    +0.146 HD
BRANCH  26  28
ATOM     28  C   UNL     1       2.054 -12.849  -2.543  0.00  0.00    +0.129 C 
BRANCH  28  29
ATOM     29  C   UNL     1       2.110 -14.358  -2.294  0.00  0.00    +0.178 C 
BRANCH  29  30
ATOM     30  O   UNL     1       1.716 -14.633  -0.949  0.00  0.00    -0.381 OA
ATOM     31  C   UNL     1       1.734 -16.021  -0.611  0.00  0.00    +0.194 C 
ENDBRANCH  29  30
ENDBRANCH  28  29
ENDBRANCH  26  28
ENDBRANCH  23  26
ENDBRANCH  19  20
ENDBRANCH   4  19
TORSDOF 9
