REMARK  Name = ZINC00525524
REMARK  6 active torsions:
REMARK  status: ('A' for Active; 'I' for Inactive)
REMARK    1  A    between atoms: C_1  and  C_2
REMARK    2  A    between atoms: C_6  and  C_20
REMARK    3  A    between atoms: N_8  and  C_19
REMARK    4  A    between atoms: C_9  and  O_18
REMARK    5  A    between atoms: N_13  and  C_17
REMARK    6  A    between atoms: C_24  and  O_26
REMARK                            x       y       z     vdW  Elec       q    Type
REMARK                         _______ _______ _______ _____ _____    ______ ____
ROOT
ATOM      1  C   UNL     1       0.314   1.306  -0.130  0.00  0.00    +0.028 C 
ATOM      2  C   UNL     1       0.196  -0.220  -0.158  0.00  0.00    +0.080 C 
ATOM      3  C   UNL     1      -1.257  -0.629   0.080  0.00  0.00    +0.075 C 
ATOM      4  C   UNL     1      -2.165  -0.172  -1.065  0.00  0.00    +0.116 C 
ATOM      5  N   UNL     1      -3.521  -0.655  -0.749  0.00  0.00    -0.283 N 
ATOM      6  C   UNL     1      -3.683  -1.891  -0.174  0.00  0.00    +0.258 C 
ATOM      7  N   UNL     1      -2.691  -2.605   0.255  0.00  0.00    -0.325 N 
ATOM      8  C   UNL     1      -1.310  -2.160   0.156  0.00  0.00    +0.182 C 
ATOM      9  N   UNL     1      -0.470  -2.600   1.264  0.00  0.00    -0.268 N 
ATOM     10  C   UNL     1       0.649  -1.912   1.565  0.00  0.00    +0.304 C 
ATOM     11  O   UNL     1       1.355  -2.316   2.468  0.00  0.00    -0.253 OA
ATOM     12  N   UNL     1       1.018  -0.799   0.911  0.00  0.00    -0.296 N 
ATOM     13  C   UNL     1      -0.839  -3.784   2.045  0.00  0.00    +0.135 C 
ATOM     14  C   UNL     1      -4.688   0.178  -1.046  0.00  0.00    +0.134 C 
ATOM     15  H   UNL     1       1.851  -0.366   1.152  0.00  0.00    +0.151 HD
ATOM     16  H   UNL     1      -2.874  -3.463   0.667  0.00  0.00    +0.166 HD
ENDROOT
BRANCH   4  17
ATOM     17  C   UNL     1      -2.160   1.332  -1.157  0.00  0.00    -0.023 A 
ATOM     18  C   UNL     1      -1.760   1.951  -2.327  0.00  0.00    +0.006 A 
ATOM     19  C   UNL     1      -1.755   3.331  -2.415  0.00  0.00    +0.004 A 
ATOM     20  C   UNL     1      -2.149   4.095  -1.333  0.00  0.00    +0.045 A 
ATOM     21  C   UNL     1      -2.551   3.476  -0.159  0.00  0.00    +0.117 A 
ATOM     22  C   UNL     1      -2.561   2.091  -0.075  0.00  0.00    +0.051 A 
BRANCH  21  23
ATOM     23  O   UNL     1      -2.939   4.225   0.907  0.00  0.00    -0.507 OA
ATOM     24  H   UNL     1      -3.884   4.427   0.922  0.00  0.00    +0.292 HD
ENDBRANCH  21  23
ENDBRANCH   4  17
BRANCH   6  25
ATOM     25  O   UNL     1      -4.934  -2.386  -0.051  0.00  0.00    -0.483 OA
ATOM     26  H   UNL     1      -4.973  -3.259   0.362  0.00  0.00    +0.295 HD
ENDBRANCH   6  25
TORSDOF 3
