REMARK  Name = ZINC01026740
REMARK  9 active torsions:
REMARK  status: ('A' for Active; 'I' for Inactive)
REMARK    1  A    between atoms: C_1  and  C_2
REMARK    2  A    between atoms: C_2  and  C_3
REMARK    3  A    between atoms: C_3  and  C_5
REMARK    4  A    between atoms: C_3  and  O_6
REMARK    5  A    between atoms: O_6  and  C_7
REMARK    6  A    between atoms: C_7  and  C_9
REMARK    7  A    between atoms: C_10  and  C_28
REMARK    8  A    between atoms: C_14  and  C_18
REMARK    9  A    between atoms: C_15  and  N_17
REMARK                            x       y       z     vdW  Elec       q    Type
REMARK                         _______ _______ _______ _____ _____    ______ ____
ROOT
ATOM      1  C   UNL     1      -4.345   1.210  -1.952  0.00  0.00    +0.100 C 
ATOM      2  C   UNL     1      -5.406   1.825  -2.506  0.00  0.00    +0.111 C 
ATOM      3  O   UNL     1      -6.548   1.120  -2.396  0.00  0.00    -0.450 OA
ATOM      4  C   UNL     1      -6.239  -0.242  -2.026  0.00  0.00    +0.304 C 
ATOM      5  C   UNL     1      -4.796  -0.123  -1.447  0.00  0.00    +0.188 C 
ATOM      6  C   UNL     1      -4.102  -1.306  -2.033  0.00  0.00    +0.112 C 
ATOM      7  C   UNL     1      -4.924  -1.821  -2.991  0.00  0.00    +0.197 C 
ATOM      8  O   UNL     1      -6.065  -1.115  -3.133  0.00  0.00    -0.432 OA
ATOM      9  C   UNL     1      -4.997  -0.199   0.033  0.00  0.00    +0.188 C 
ATOM     10  O   UNL     1      -4.215   0.167   0.884  0.00  0.00    -0.290 OA
ATOM     11  C   UNL     1      -6.326  -0.804   0.264  0.00  0.00    +0.030 A 
ATOM     12  C   UNL     1      -7.075  -0.792  -0.917  0.00  0.00    +0.048 A 
ATOM     13  C   UNL     1      -8.374  -1.267  -0.902  0.00  0.00    +0.012 A 
ATOM     14  C   UNL     1      -8.925  -1.770   0.262  0.00  0.00    +0.001 A 
ATOM     15  C   UNL     1      -8.183  -1.804   1.429  0.00  0.00    +0.001 A 
ATOM     16  C   UNL     1      -6.885  -1.338   1.432  0.00  0.00    +0.012 A 
ATOM     17  C   UNL     1      -5.324   3.169  -3.184  0.00  0.00    +0.086 C 
ENDROOT
BRANCH   7  18
ATOM     18  N   UNL     1      -4.624  -2.937  -3.731  0.00  0.00    -0.329 N 
ATOM     19  H   UNL     1      -5.249  -3.258  -4.400  0.00  0.00    +0.145 HD
ATOM     20  H   UNL     1      -3.787  -3.404  -3.585  0.00  0.00    +0.145 HD
ENDBRANCH   7  18
BRANCH   1  21
ATOM     21  C   UNL     1      -3.031   1.730  -1.867  0.00  0.00    +0.340 C 
ATOM     22  O   UNL     1      -2.783   2.832  -2.320  0.00  0.00    -0.245 OA
BRANCH  21  23
ATOM     23  O   UNL     1      -2.054   1.005  -1.282  0.00  0.00    -0.458 OA
BRANCH  23  24
ATOM     24  C   UNL     1      -0.753   1.593  -1.232  0.00  0.00    +0.173 C 
ATOM     25  C   UNL     1       0.031   1.205  -2.487  0.00  0.00    +0.052 C 
BRANCH  24  27
ATOM     26  C   UNL     1      -0.729   1.579   1.267  0.00  0.00    +0.007 C 
ATOM     27  C   UNL     1      -0.013   1.086   0.008  0.00  0.00    +0.041 C 
ENDBRANCH  24  27
ENDBRANCH  23  24
ENDBRANCH  21  23
ENDBRANCH   1  21
BRANCH   6  28
ATOM     28  C   UNL     1      -2.812  -1.806  -1.663  0.00  0.00    +0.101 C 
ATOM     29  N   UNL     1      -1.789  -2.203  -1.369  0.00  0.00    -0.191 NA
ENDBRANCH   6  28
TORSDOF 6
