REMARK  Name = ZINC10441945
REMARK  12 active torsions:
REMARK  status: ('A' for Active; 'I' for Inactive)
REMARK    1  A    between atoms: C_1  and  C_2
REMARK    2  A    between atoms: C_2  and  C_3
REMARK    3  A    between atoms: C_3  and  C_4
REMARK    4  A    between atoms: C_4  and  N_5
REMARK    5  A    between atoms: C_6  and  N_35
REMARK    6  A    between atoms: C_7  and  N_14
REMARK    7  A    between atoms: N_14  and  C_15
REMARK    8  A    between atoms: C_15  and  C_16
REMARK    9  A    between atoms: C_22  and  C_24
REMARK   10  A    between atoms: C_24  and  C_26
REMARK   11  A    between atoms: C_24  and  S_27
REMARK   12  A    between atoms: S_27  and  C_28
REMARK                            x       y       z     vdW  Elec       q    Type
REMARK                         _______ _______ _______ _____ _____    ______ ____
ROOT
ATOM      1  N   UNL     1       4.517  -1.343  -0.877  0.00  0.00    -0.259 N 
ATOM      2  C   UNL     1       5.055  -0.470  -1.754  0.00  0.00    +0.233 C 
ATOM      3  O   UNL     1       4.913  -0.643  -2.947  0.00  0.00    -0.274 OA
ENDROOT
BRANCH   1   6
ATOM      4  N   UNL     1       2.135  -3.597  -2.534  0.00  0.00    -0.280 N 
ATOM      5  C   UNL     1       2.727  -2.437  -2.092  0.00  0.00    +0.127 A 
ATOM      6  C   UNL     1       3.885  -2.515  -1.346  0.00  0.00    +0.140 A 
ATOM      7  C   UNL     1       4.429  -3.782  -1.065  0.00  0.00    +0.277 A 
ATOM      8  O   UNL     1       5.455  -3.879  -0.412  0.00  0.00    -0.266 OA
ATOM      9  N   UNL     1       3.807  -4.888  -1.518  0.00  0.00    -0.273 N 
ATOM     10  H   UNL     1       4.188  -5.789  -1.312  0.00  0.00    +0.173 HD
ATOM     11  C   UNL     1       2.678  -4.793  -2.244  0.00  0.00    +0.331 A 
ATOM     12  O   UNL     1       2.139  -5.807  -2.644  0.00  0.00    -0.246 OA
BRANCH   5  13
ATOM     13  N   UNL     1       2.172  -1.216  -2.388  0.00  0.00    -0.343 N 
ATOM     14  H   UNL     1       2.625  -0.400  -2.125  0.00  0.00    +0.144 HD
ATOM     15  H   UNL     1       1.326  -1.170  -2.861  0.00  0.00    +0.144 HD
ENDBRANCH   5  13
BRANCH   4  16
ATOM     16  C   UNL     1       0.904  -3.530  -3.327  0.00  0.00    +0.128 C 
BRANCH  16  17
ATOM     17  C   UNL     1       1.259  -3.445  -4.813  0.00  0.00    +0.021 C 
BRANCH  17  19
ATOM     18  C   UNL     1       0.329  -3.290  -7.127  0.00  0.00    +0.004 C 
ATOM     19  C   UNL     1      -0.025  -3.375  -5.641  0.00  0.00    -0.002 C 
ENDBRANCH  17  19
ENDBRANCH  16  17
ENDBRANCH   4  16
ENDBRANCH   1   6
BRANCH   2  20
ATOM     20  C   UNL     1       5.831   0.720  -1.253  0.00  0.00    +0.134 C 
ATOM     21  C   UNL     1       7.272   0.300  -0.954  0.00  0.00    +0.029 C 
BRANCH  20  22
ATOM     22  S   UNL     1       5.830   2.020  -2.518  0.00  0.00    -0.113 S 
BRANCH  22  23
ATOM     23  C   UNL     1       6.479   3.429  -1.682  0.00  0.00    +0.009 A 
ATOM     24  C   UNL     1       6.728   3.375  -0.316  0.00  0.00    +0.016 A 
ATOM     25  C   UNL     1       7.241   4.479   0.335  0.00  0.00    +0.021 A 
ATOM     26  C   UNL     1       7.498   5.642  -0.369  0.00  0.00    +0.041 A 
ATOM     27  C   UNL     1       7.247   5.701  -1.729  0.00  0.00    +0.021 A 
ATOM     28  C   UNL     1       6.739   4.598  -2.387  0.00  0.00    +0.016 A 
ATOM     29 CL   UNL     1       8.138   7.030   0.454  0.00  0.00    -0.084 Cl
ENDBRANCH  22  23
ENDBRANCH  20  22
ENDBRANCH   2  20
BRANCH   1  30
ATOM     30  C   UNL     1       4.589  -1.075   0.561  0.00  0.00    +0.149 C 
BRANCH  30  31
ATOM     31  C   UNL     1       3.314  -0.409   1.012  0.00  0.00    -0.030 A 
ATOM     32  C   UNL     1       2.209  -1.177   1.331  0.00  0.00    +0.005 A 
ATOM     33  C   UNL     1       1.040  -0.567   1.745  0.00  0.00    +0.000 A 
ATOM     34  C   UNL     1       0.975   0.811   1.839  0.00  0.00    +0.000 A 
ATOM     35  C   UNL     1       2.080   1.578   1.520  0.00  0.00    +0.000 A 
ATOM     36  C   UNL     1       3.249   0.968   1.106  0.00  0.00    +0.005 A 
ENDBRANCH  30  31
ENDBRANCH   1  30
TORSDOF 10
