REMARK  Name = ZINC49148544
REMARK  7 active torsions:
REMARK  status: ('A' for Active; 'I' for Inactive)
REMARK    1  A    between atoms: C_1  and  C_2
REMARK    2  A    between atoms: C_2  and  C_4
REMARK    3  A    between atoms: C_2  and  N_10
REMARK    4  A    between atoms: C_11  and  C_13
REMARK    5  A    between atoms: C_16  and  C_18
REMARK    6  A    between atoms: C_19  and  C_20
REMARK    7  A    between atoms: C_20  and  N_21
REMARK                            x       y       z     vdW  Elec       q    Type
REMARK                         _______ _______ _______ _____ _____    ______ ____
ROOT
ATOM      1  N   UNL     1       0.688  -0.476  -1.203  0.00  0.00    -0.304 N 
ATOM      2  C   UNL     1       0.006  -0.608  -2.358  0.00  0.00    +0.251 C 
ATOM      3  O   UNL     1      -1.179  -0.335  -2.400  0.00  0.00    -0.270 OA
ATOM      4  H   UNL     1       1.632  -0.695  -1.170  0.00  0.00    +0.150 HD
ENDROOT
BRANCH   2   5
ATOM      5  C   UNL     1       0.692  -1.081  -3.564  0.00  0.00    +0.075 A 
ATOM      6  C   UNL     1       0.179  -1.277  -4.838  0.00  0.00    +0.022 A 
ATOM      7  C   UNL     1       1.014  -1.729  -5.819  0.00  0.00    +0.025 A 
ATOM      8  C   UNL     1       2.343  -1.975  -5.503  0.00  0.00    +0.063 A 
ATOM      9  S   UNL     1       2.403  -1.544  -3.772  0.00  0.00    -0.075 S 
BRANCH   8  10
ATOM     10  C   UNL     1       3.397  -2.447  -6.350  0.00  0.00    -0.061 C 
ATOM     11  C   UNL     1       4.261  -2.834  -7.044  0.00  0.00    -0.116 C 
BRANCH  11  12
ATOM     12  C   UNL     1       5.345  -3.319  -7.914  0.00  0.00    +0.005 C 
BRANCH  12  13
ATOM     13  N   UNL     1       6.586  -3.426  -7.137  0.00  0.00    +0.385 N 
ATOM     14  H   UNL     1       7.329  -3.759  -7.733  0.00  0.00    -0.089 HD
ATOM     15  H   UNL     1       6.832  -2.520  -6.768  0.00  0.00    -0.089 HD
ATOM     16  H   UNL     1       6.451  -4.074  -6.375  0.00  0.00    -0.089 HD
ENDBRANCH  12  13
ENDBRANCH  11  12
ENDBRANCH   8  10
ENDBRANCH   2   5
BRANCH   1  18
ATOM     17  C   UNL     1      -0.019   1.526   0.010  0.00  0.00    +0.033 C 
ATOM     18  C   UNL     1       0.002  -0.004   0.002  0.00  0.00    +0.107 C 
BRANCH  18  19
ATOM     19  C   UNL     1       0.731  -0.503   1.223  0.00  0.00    +0.011 A 
ATOM     20  C   UNL     1       0.222  -0.979   2.385  0.00  0.00    +0.014 A 
ATOM     21  C   UNL     1       1.091  -1.386   3.381  0.00  0.00    +0.028 A 
ATOM     22  C   UNL     1       2.427  -1.297   3.164  0.00  0.00    +0.078 A 
ATOM     23  S   UNL     1       2.489  -0.629   1.510  0.00  0.00    -0.080 S 
ATOM     24 CL   UNL     1       3.737  -1.728   4.219  0.00  0.00    -0.076 Cl
ENDBRANCH  18  19
ENDBRANCH   1  18
TORSDOF 6
