REMARK  Name = ZINC13399254
REMARK  5 active torsions:
REMARK  status: ('A' for Active; 'I' for Inactive)
REMARK    1  A    between atoms: C_1  and  C_2
REMARK    2  A    between atoms: C_9  and  C_11
REMARK    3  A    between atoms: N_16  and  S_19
REMARK    4  A    between atoms: S_19  and  C_22
REMARK    5  A    between atoms: C_24  and  C_27
REMARK                            x       y       z     vdW  Elec       q    Type
REMARK                         _______ _______ _______ _____ _____    ______ ____
ROOT
ATOM      1  C   UNL     1      -0.018   1.462   0.010  0.00  0.00    +0.253 C 
ATOM      2  O   UNL     1       0.002   0.420   0.640  0.00  0.00    -0.269 OA
ATOM      3  N   UNL     1       1.081   1.866  -0.657  0.00  0.00    -0.295 N 
ATOM      4  C   UNL     1       2.284   1.023  -0.698  0.00  0.00    +0.125 C 
ATOM      5  C   UNL     1       2.660   0.785  -2.170  0.00  0.00    +0.128 C 
ATOM      6  N   UNL     1       2.679   2.080  -2.864  0.00  0.00    -0.173 NA
ATOM      7  C   UNL     1       1.478   2.925  -2.819  0.00  0.00    +0.128 C 
ATOM      8  C   UNL     1       1.100   3.162  -1.351  0.00  0.00    +0.125 C 
ENDROOT
BRANCH   1  16
ATOM      9  C   UNL     1      -7.318   3.482  -0.072  0.00  0.00    +0.008 C 
ATOM     10  C   UNL     1      -5.835   3.722   0.216  0.00  0.00    -0.009 C 
ATOM     11  C   UNL     1      -5.377   4.995  -0.501  0.00  0.00    +0.009 C 
ATOM     12  C   UNL     1      -3.978   5.373   0.007  0.00  0.00    +0.043 C 
ATOM     13  C   UNL     1      -3.119   4.146  -0.019  0.00  0.00    -0.006 A 
ATOM     14  C   UNL     1      -3.536   2.852  -0.145  0.00  0.00    -0.036 A 
ATOM     15  C   UNL     1      -2.551   1.877  -0.150  0.00  0.00    +0.024 A 
ATOM     16  C   UNL     1      -1.235   2.278  -0.018  0.00  0.00    +0.075 A 
ATOM     17  S   UNL     1      -1.403   4.051   0.100  0.00  0.00    -0.088 S 
ATOM     18  C   UNL     1      -5.021   2.525  -0.277  0.00  0.00    +0.039 C 
ENDBRANCH   1  16
BRANCH   6  19
ATOM     19  S   UNL     1       4.029   2.577  -3.684  0.00  0.00    +0.067 S 
ATOM     20  O   UNL     1       4.755   1.403  -4.022  0.00  0.00    -0.152 OA
ATOM     21  O   UNL     1       3.591   3.510  -4.662  0.00  0.00    -0.152 OA
BRANCH  19  22
ATOM     22  C   UNL     1       5.029   3.475  -2.544  0.00  0.00    +0.143 A 
ATOM     23  C   UNL     1       5.994   3.009  -1.727  0.00  0.00    +0.051 A 
ATOM     24  C   UNL     1       6.667   3.970  -0.890  0.00  0.00    +0.072 A 
ATOM     25  C   UNL     1       6.256   5.284  -0.990  0.00  0.00    +0.062 A 
ATOM     26  S   UNL     1       5.005   5.220  -2.185  0.00  0.00    -0.076 S 
BRANCH  24  27
ATOM     27  C   UNL     1       7.738   3.568   0.033  0.00  0.00    +0.387 C 
ATOM     28  O   UNL     1       8.078   2.403   0.100  0.00  0.00    -0.241 OA
ATOM     29  O   UNL     1       8.343   4.492   0.806  0.00  0.00    -0.241 OA
ENDBRANCH  24  27
ENDBRANCH  19  22
ENDBRANCH   6  19
TORSDOF 4
