REMARK  Name = ZINC18219343
REMARK  4 active torsions:
REMARK  status: ('A' for Active; 'I' for Inactive)
REMARK    1  A    between atoms: C_1  and  C_2
REMARK    2  A    between atoms: C_2  and  C_26
REMARK    3  A    between atoms: C_6  and  C_14
REMARK    4  A    between atoms: C_17  and  N_20
REMARK                            x       y       z     vdW  Elec       q    Type
REMARK                         _______ _______ _______ _____ _____    ______ ____
ROOT
ATOM      1  C   UNL     1      -0.019   1.526   0.010  0.00  0.00    +0.011 C 
ATOM      2  C   UNL     1       0.002  -0.004   0.002  0.00  0.00    -0.023 C 
ATOM      3  C   UNL     1      -1.431  -0.539   0.041  0.00  0.00    +0.058 C 
ATOM      4  C   UNL     1      -1.407  -2.049   0.073  0.00  0.00    +0.020 C 
ATOM      5  C   UNL     1      -0.397  -2.714   0.673  0.00  0.00    +0.041 C 
ATOM      6  C   UNL     1      -0.354  -4.225   0.736  0.00  0.00    +0.175 C 
ATOM      7  N   UNL     1      -1.319  -4.790  -0.198  0.00  0.00    -0.221 N 
ATOM      8  C   UNL     1      -2.303  -4.064  -0.785  0.00  0.00    +0.218 A 
ATOM      9  N   UNL     1      -2.991  -4.864  -1.553  0.00  0.00    -0.201 NA
ATOM     10  C   UNL     1      -2.480  -6.097  -1.486  0.00  0.00    +0.247 A 
ATOM     11  N   UNL     1      -1.455  -6.095  -0.669  0.00  0.00    -0.156 NA
ATOM     12  N   UNL     1      -2.447  -2.709  -0.537  0.00  0.00    -0.287 N 
ATOM     13  C   UNL     1       0.672  -2.019   1.267  0.00  0.00    +0.164 C 
ATOM     14  O   UNL     1       1.558  -2.646   1.813  0.00  0.00    -0.292 OA
ATOM     15  C   UNL     1       0.742  -0.517   1.242  0.00  0.00    +0.086 C 
ATOM     16  C   UNL     1       0.705  -0.503  -1.262  0.00  0.00    +0.011 C 
ATOM     17  H   UNL     1      -3.259  -2.239  -0.786  0.00  0.00    +0.155 HD
ENDROOT
BRANCH   6  18
ATOM     18  C   UNL     1      -0.689  -4.677   2.134  0.00  0.00    -0.018 A 
ATOM     19  C   UNL     1      -1.915  -4.358   2.688  0.00  0.00    +0.008 A 
ATOM     20  C   UNL     1      -2.223  -4.773   3.970  0.00  0.00    +0.033 A 
ATOM     21  C   UNL     1      -1.305  -5.507   4.698  0.00  0.00    +0.126 A 
ATOM     22  C   UNL     1      -0.080  -5.827   4.144  0.00  0.00    +0.033 A 
ATOM     23  C   UNL     1       0.226  -5.416   2.860  0.00  0.00    +0.008 A 
BRANCH  21  24
ATOM     24  N   UNL     1      -1.635  -5.950   6.071  0.00  0.00    +0.056 N 
ATOM     25  O   UNL     1      -2.706  -5.670   6.556  0.00  0.00    -0.126 OA
ATOM     26  O   UNL     1      -0.832  -6.593   6.708  0.00  0.00    -0.126 OA
ENDBRANCH  21  24
ENDBRANCH   6  18
TORSDOF 2
