REMARK  Name = ZINC18117121
REMARK  5 active torsions:
REMARK  status: ('A' for Active; 'I' for Inactive)
REMARK    1  A    between atoms: C_10  and  C_11
REMARK    2  A    between atoms: N_12  and  N_13
REMARK    3  A    between atoms: C_17  and  C_20
REMARK    4  A    between atoms: C_20  and  C_21
REMARK    5  A    between atoms: C_26  and  N_27
REMARK                            x       y       z     vdW  Elec       q    Type
REMARK                         _______ _______ _______ _____ _____    ______ ____
ROOT
ATOM      1  N   UNL     1       5.925   2.003  -0.284  0.00  0.00    -0.127 NA
ATOM      2  C   UNL     1       5.994   3.318  -0.321  0.00  0.00    +0.183 C 
ATOM      3  N   UNL     1       4.956   4.225  -0.314  0.00  0.00    -0.263 N 
ATOM      4  C   UNL     1       5.154   5.532  -0.354  0.00  0.00    +0.232 C 
ATOM      5  C   UNL     1       6.606   5.979  -0.409  0.00  0.00    +0.144 C 
ATOM      6  S   UNL     1       7.454   4.346  -0.384  0.00  0.00    -0.075 S 
ATOM      7  O   UNL     1       4.235   6.323  -0.348  0.00  0.00    -0.274 OA
ATOM      8  H   UNL     1       4.045   3.892  -0.279  0.00  0.00    +0.157 HD
ENDROOT
BRANCH   1  10
ATOM      9  C   UNL     1       4.709   0.113  -0.205  0.00  0.00    +0.143 C 
ATOM     10  N   UNL     1       4.776   1.418  -0.241  0.00  0.00    -0.155 NA
BRANCH   9  20
ATOM     11  C   UNL     1      -0.199   1.644   0.205  0.00  0.00    +0.001 A 
ATOM     12  C   UNL     1       1.023   2.312   0.163  0.00  0.00    +0.001 A 
ATOM     13  C   UNL     1       2.194   1.624   0.046  0.00  0.00    +0.009 A 
ATOM     14  C   UNL     1       2.171   0.227  -0.031  0.00  0.00    -0.009 A 
ATOM     15  C   UNL     1       0.931  -0.456   0.013  0.00  0.00    -0.017 A 
ATOM     16  C   UNL     1      -0.257   0.285   0.132  0.00  0.00    +0.008 A 
ATOM     17  C   UNL     1       0.911  -1.859  -0.065  0.00  0.00    +0.008 A 
ATOM     18  C   UNL     1       2.070  -2.565  -0.182  0.00  0.00    +0.001 A 
ATOM     19  C   UNL     1       3.307  -1.940  -0.228  0.00  0.00    +0.010 A 
ATOM     20  C   UNL     1       3.402  -0.553  -0.156  0.00  0.00    +0.002 A 
ENDBRANCH   9  20
ENDBRANCH   1  10
BRANCH   5  21
ATOM     21  C   UNL     1       6.901   6.745  -1.700  0.00  0.00    +0.061 C 
BRANCH  21  22
ATOM     22  C   UNL     1       8.318   7.258  -1.667  0.00  0.00    -0.016 A 
ATOM     23  C   UNL     1       9.304   6.612  -2.390  0.00  0.00    +0.006 A 
ATOM     24  C   UNL     1      10.603   7.083  -2.360  0.00  0.00    +0.000 A 
ATOM     25  C   UNL     1      10.917   8.199  -1.606  0.00  0.00    +0.002 A 
ATOM     26  C   UNL     1       9.931   8.845  -0.884  0.00  0.00    +0.033 A 
ATOM     27  C   UNL     1       8.630   8.377  -0.918  0.00  0.00    +0.129 A 
BRANCH  27  28
ATOM     28  N   UNL     1       7.574   9.071  -0.149  0.00  0.00    +0.057 N 
ATOM     29  O   UNL     1       7.864   9.986   0.587  0.00  0.00    -0.126 OA
ATOM     30  O   UNL     1       6.421   8.724  -0.256  0.00  0.00    -0.126 OA
ENDBRANCH  27  28
ENDBRANCH  21  22
ENDBRANCH   5  21
TORSDOF 5
