REMARK  Name = ZINC58226517
REMARK  5 active torsions:
REMARK  status: ('A' for Active; 'I' for Inactive)
REMARK    1  A    between atoms: C_1  and  C_2
REMARK    2  A    between atoms: C_4  and  N_9
REMARK    3  A    between atoms: C_10  and  C_12
REMARK    4  A    between atoms: C_12  and  N_13
REMARK    5  A    between atoms: N_13  and  C_14
REMARK                            x       y       z     vdW  Elec       q    Type
REMARK                         _______ _______ _______ _____ _____    ______ ____
ROOT
ATOM      1  N   UNL     1       0.028  -2.771  -2.420  0.00  0.00    -0.284 N 
ATOM      2  C   UNL     1       0.148  -4.113  -2.428  0.00  0.00    +0.234 C 
ATOM      3  O   UNL     1       0.162  -4.727  -1.382  0.00  0.00    -0.274 OA
ATOM      4  H   UNL     1      -0.060  -2.287  -3.256  0.00  0.00    +0.155 HD
ENDROOT
BRANCH   1   8
ATOM      5  C   UNL     1       1.619  -2.350   2.213  0.00  0.00    +0.045 C 
ATOM      6  C   UNL     1       0.793  -1.849   1.057  0.00  0.00    -0.035 A 
ATOM      7  C   UNL     1       0.792  -2.538  -0.141  0.00  0.00    +0.027 A 
ATOM      8  C   UNL     1       0.030  -2.075  -1.206  0.00  0.00    +0.034 A 
ATOM      9  C   UNL     1      -0.729  -0.921  -1.063  0.00  0.00    +0.024 A 
ATOM     10  C   UNL     1      -0.724  -0.236   0.136  0.00  0.00    +0.017 A 
ATOM     11  C   UNL     1       0.032  -0.703   1.197  0.00  0.00    +0.021 A 
ATOM     12 BR   UNL     1       0.029   0.233   2.841  0.00  0.00    -0.050 Br
ENDBRANCH   1   8
BRANCH   2  13
ATOM     13  C   UNL     1       0.265  -4.851  -3.737  0.00  0.00    +0.198 C 
BRANCH  13  14
ATOM     14  N   UNL     1       0.383  -6.289  -3.478  0.00  0.00    -0.333 N 
ATOM     15  H   UNL     1       0.376  -6.619  -2.566  0.00  0.00    +0.147 HD
BRANCH  14  16
ATOM     16  C   UNL     1       0.503  -7.175  -4.535  0.00  0.00    +0.071 A 
ATOM     17  C   UNL     1       0.518  -6.700  -5.864  0.00  0.00    +0.157 A 
ATOM     18  N   UNL     1       0.631  -7.533  -6.860  0.00  0.00    -0.177 NA
ATOM     19  N   UNL     1       0.740  -8.910  -6.641  0.00  0.00    -0.242 N 
ATOM     20  H   UNL     1       0.823  -9.512  -7.397  0.00  0.00    +0.192 HD
ATOM     21  C   UNL     1       0.730  -9.407  -5.388  0.00  0.00    +0.285 A 
ATOM     22  O   UNL     1       0.825 -10.611  -5.204  0.00  0.00    -0.265 OA
ATOM     23  C   UNL     1       0.615  -8.533  -4.298  0.00  0.00    +0.129 A 
ATOM     24 CL   UNL     1       0.606  -9.147  -2.674  0.00  0.00    -0.076 Cl
ENDBRANCH  14  16
ENDBRANCH  13  14
ENDBRANCH   2  13
TORSDOF 4
