REMARK  Name = ZINC08873260
REMARK  7 active torsions:
REMARK  status: ('A' for Active; 'I' for Inactive)
REMARK    1  A    between atoms: C_3  and  C_9
REMARK    2  A    between atoms: C_4  and  O_8
REMARK    3  A    between atoms: C_6  and  O_7
REMARK    4  A    between atoms: N_10  and  N_11
REMARK    5  A    between atoms: C_12  and  C_14
REMARK    6  A    between atoms: C_15  and  C_25
REMARK    7  A    between atoms: C_25  and  N_52
REMARK                            x       y       z     vdW  Elec       q    Type
REMARK                         _______ _______ _______ _____ _____    ______ ____
ROOT
ATOM      1  C   UNL     1      -0.513   5.403  -0.051  0.00  0.00    +0.154 A 
ATOM      2  C   UNL     1       0.761   5.909  -0.058  0.00  0.00    +0.079 A 
ATOM      3  N   UNL     1       1.581   4.864   0.070  0.00  0.00    -0.135 NA
ATOM      4  N   UNL     1       0.889   3.785   0.157  0.00  0.00    -0.058 NA
ATOM      5  N   UNL     1      -0.370   4.045   0.094  0.00  0.00    -0.183 N 
ATOM      6  C   UNL     1      -1.407   3.110   0.156  0.00  0.00    +0.241 A 
ATOM      7  C   UNL     1      -1.248   1.653   0.190  0.00  0.00    +0.206 A 
ATOM      8  N   UNL     1      -2.434   1.112   0.252  0.00  0.00    -0.032 NA
ATOM      9  O   UNL     1      -3.389   2.159   0.255  0.00  0.00    -0.239 OA
ATOM     10  N   UNL     1      -2.681   3.384   0.189  0.00  0.00    -0.027 NA
ATOM     11  N   UNL     1      -0.041   0.965   0.166  0.00  0.00    -0.337 N 
ATOM     12  H   UNL     1      -0.034  -0.005   0.196  0.00  0.00    +0.144 HD
ATOM     13  H   UNL     1       0.795   1.454   0.116  0.00  0.00    +0.144 HD
ENDROOT
BRANCH   1  15
ATOM     14  N   UNL     1      -2.417   6.569   0.938  0.00  0.00    -0.202 N 
ATOM     15  C   UNL     1      -1.770   6.157  -0.170  0.00  0.00    +0.284 C 
ATOM     16  O   UNL     1      -2.226   6.409  -1.270  0.00  0.00    -0.267 OA
ATOM     17  H   UNL     1      -2.017   6.435   1.811  0.00  0.00    +0.178 HD
BRANCH  14  19
ATOM     18  C   UNL     1      -4.291   7.589   1.896  0.00  0.00    +0.142 C 
ATOM     19  N   UNL     1      -3.668   7.192   0.829  0.00  0.00    -0.187 NA
BRANCH  18  22
ATOM     20  C   UNL     1      -7.508   9.283   2.816  0.00  0.00    +0.046 A 
ATOM     21  C   UNL     1      -6.279   8.671   2.928  0.00  0.00    +0.016 A 
ATOM     22  C   UNL     1      -5.606   8.243   1.781  0.00  0.00    +0.036 A 
ATOM     23  C   UNL     1      -6.184   8.444   0.519  0.00  0.00    +0.129 A 
ATOM     24  C   UNL     1      -7.421   9.056   0.420  0.00  0.00    +0.091 A 
ATOM     25  C   UNL     1      -8.082   9.477   1.565  0.00  0.00    +0.120 A 
BRANCH  25  26
ATOM     26  O   UNL     1      -9.294  10.082   1.463  0.00  0.00    -0.507 OA
ATOM     27  H   UNL     1      -9.247  11.044   1.373  0.00  0.00    +0.292 HD
ENDBRANCH  25  26
BRANCH  23  28
ATOM     28  O   UNL     1      -5.534   8.036  -0.601  0.00  0.00    -0.506 OA
ATOM     29  H   UNL     1      -5.743   7.130  -0.869  0.00  0.00    +0.292 HD
ENDBRANCH  23  28
ENDBRANCH  18  22
ENDBRANCH  14  19
ENDBRANCH   1  15
BRANCH   2  30
ATOM     30  C   UNL     1       1.157   7.356  -0.190  0.00  0.00    -0.018 C 
BRANCH  30  36
ATOM     31  C   UNL     1       2.459   6.957  -2.192  0.00  0.00    -0.078 C 
ATOM     32  C   UNL     1       2.516   7.215  -3.699  0.00  0.00    -0.019 C 
ATOM     33  C   UNL     1       2.673   8.717  -3.949  0.00  0.00    -0.004 C 
ATOM     34  C   UNL     1       1.507   9.461  -3.293  0.00  0.00    -0.019 C 
ATOM     35  C   UNL     1       1.479   9.138  -1.798  0.00  0.00    -0.078 C 
ATOM     36  N   UNL     1       1.301   7.681  -1.625  0.00  0.00    +0.383 N 
ATOM     37  H   UNL     1       0.451   7.388  -2.120  0.00  0.00    -0.081 HD
ENDBRANCH  30  36
ENDBRANCH   2  30
TORSDOF 7
