REMARK  Name = ZINC13056582
REMARK  11 active torsions:
REMARK  status: ('A' for Active; 'I' for Inactive)
REMARK    1  A    between atoms: C_1  and  C_2
REMARK    2  A    between atoms: C_2  and  C_3
REMARK    3  A    between atoms: C_3  and  C_5
REMARK    4  A    between atoms: C_3  and  C_6
REMARK    5  A    between atoms: C_9  and  N_12
REMARK    6  A    between atoms: C_13  and  C_37
REMARK    7  A    between atoms: C_14  and  C_29
REMARK    8  A    between atoms: C_15  and  C_20
REMARK    9  A    between atoms: C_23  and  O_27
REMARK   10  A    between atoms: C_24  and  O_26
REMARK   11  A    between atoms: O_27  and  C_28
REMARK                            x       y       z     vdW  Elec       q    Type
REMARK                         _______ _______ _______ _____ _____    ______ ____
ROOT
ATOM      1  N   UNL     1      -3.154   2.405   7.065  0.00  0.00    -0.255 N 
ATOM      2  C   UNL     1      -3.306   3.737   7.333  0.00  0.00    +0.025 C 
ATOM      3  C   UNL     1      -3.725   4.160   8.544  0.00  0.00    +0.056 C 
ATOM      4  C   UNL     1      -4.023   3.109   9.595  0.00  0.00    +0.139 C 
ATOM      5  N   UNL     1      -3.828   1.703   9.206  0.00  0.00    -0.315 N 
ATOM      6  C   UNL     1      -3.407   1.435   7.954  0.00  0.00    +0.142 C 
ATOM      7  S   UNL     1      -3.182  -0.196   7.486  0.00  0.00    -0.018 S 
ATOM      8  C   UNL     1      -2.999   4.749   6.259  0.00  0.00    +0.062 C 
ATOM      9  H   UNL     1      -4.001   0.985   9.835  0.00  0.00    +0.149 HD
ENDROOT
BRANCH   3  10
ATOM     10  C   UNL     1      -3.883   5.540   8.823  0.00  0.00    +0.246 C 
ATOM     11  O   UNL     1      -4.980   6.060   8.724  0.00  0.00    -0.270 OA
ATOM     12  N   UNL     1      -2.820   6.278   9.199  0.00  0.00    -0.293 N 
ATOM     13  C   UNL     1      -1.509   5.652   9.435  0.00  0.00    +0.136 C 
ATOM     14  C   UNL     1      -0.453   6.436   8.641  0.00  0.00    +0.179 C 
ATOM     15  O   UNL     1      -0.560   7.825   8.963  0.00  0.00    -0.377 OA
ATOM     16  C   UNL     1      -1.812   8.415   8.603  0.00  0.00    +0.179 C 
ATOM     17  C   UNL     1      -2.936   7.732   9.390  0.00  0.00    +0.136 C 
ENDBRANCH   3  10
BRANCH   1  21
ATOM     18  C   UNL     1      -1.848   1.300   3.265  0.00  0.00    -0.044 A 
ATOM     19  C   UNL     1      -1.021   1.119   4.358  0.00  0.00    +0.006 A 
ATOM     20  C   UNL     1      -1.449   1.490   5.618  0.00  0.00    +0.024 A 
ATOM     21  C   UNL     1      -2.715   2.033   5.788  0.00  0.00    +0.040 A 
ATOM     22  C   UNL     1      -3.546   2.208   4.689  0.00  0.00    +0.024 A 
ATOM     23  C   UNL     1      -3.110   1.841   3.431  0.00  0.00    +0.006 A 
BRANCH  18  24
ATOM     24  C   UNL     1      -1.377   0.899   1.891  0.00  0.00    +0.016 C 
ATOM     25  C   UNL     1      -1.056  -0.597   1.877  0.00  0.00    +0.012 C 
BRANCH  24  27
ATOM     26  C   UNL     1       0.288   1.380   0.091  0.00  0.00    +0.004 C 
ATOM     27  C   UNL     1      -0.119   1.693   1.532  0.00  0.00    +0.004 C 
ENDBRANCH  24  27
ENDBRANCH  18  24
ENDBRANCH   1  21
BRANCH   4  28
ATOM     28  C   UNL     1      -5.456   3.277  10.027  0.00  0.00    -0.019 A 
ATOM     29  C   UNL     1      -6.472   2.706   9.283  0.00  0.00    +0.009 A 
ATOM     30  C   UNL     1      -7.789   2.853   9.679  0.00  0.00    +0.050 A 
ATOM     31  C   UNL     1      -8.093   3.583  10.817  0.00  0.00    +0.161 A 
ATOM     32  C   UNL     1      -7.071   4.162  11.562  0.00  0.00    +0.159 A 
ATOM     33  C   UNL     1      -5.753   4.007  11.163  0.00  0.00    +0.055 A 
BRANCH  32  34
ATOM     34  O   UNL     1      -7.365   4.880  12.679  0.00  0.00    -0.503 OA
ATOM     35  H   UNL     1      -7.511   5.822  12.514  0.00  0.00    +0.292 HD
ENDBRANCH  32  34
BRANCH  31  36
ATOM     36  O   UNL     1      -9.389   3.733  11.204  0.00  0.00    -0.491 OA
ATOM     37  C   UNL     1     -10.385   3.110  10.390  0.00  0.00    +0.277 C 
ENDBRANCH  31  36
ENDBRANCH   4  28
TORSDOF 7
