REMARK  Name = ZINC28000285
REMARK  7 active torsions:
REMARK  status: ('A' for Active; 'I' for Inactive)
REMARK    1  A    between atoms: C_7  and  N_18
REMARK    2  A    between atoms: C_24  and  C_26
REMARK    3  A    between atoms: C_26  and  C_27
REMARK    4  A    between atoms: C_33  and  CA_35
REMARK    5  A    between atoms: CA_35  and  C_37
REMARK    6  A    between atoms: CA_35  and  N_39
REMARK    7  A    between atoms: C_37  and  O_38
REMARK                            x       y       z     vdW  Elec       q    Type
REMARK                         _______ _______ _______ _____ _____    ______ ____
ROOT
ATOM      1  N   UNL     1       2.837   3.112  -1.235  0.00  0.00    -0.287 NA
ATOM      2  C   UNL     1       2.512   2.584  -2.566  0.00  0.00    +0.104 C 
ATOM      3  C   UNL     1       2.810   3.652  -3.623  0.00  0.00    +0.123 C 
ATOM      4  N   UNL     1       4.201   4.102  -3.454  0.00  0.00    -0.299 N 
ATOM      5  C   UNL     1       4.640   4.518  -2.114  0.00  0.00    +0.123 C 
ATOM      6  C   UNL     1       4.270   3.415  -1.116  0.00  0.00    +0.104 C 
ATOM      7  C   UNL     1       5.050   4.131  -4.501  0.00  0.00    +0.216 C 
ATOM      8  O   UNL     1       6.193   4.505  -4.343  0.00  0.00    -0.276 OA
ENDROOT
BRANCH   1  15
ATOM      9  C   UNL     1       4.381  -1.442  -0.912  0.00  0.00    +0.020 A 
ATOM     10  C   UNL     1       3.007  -1.458  -0.959  0.00  0.00    +0.007 A 
ATOM     11  C   UNL     1       2.273  -0.256  -0.800  0.00  0.00    -0.024 A 
ATOM     12  C   UNL     1       2.948   0.859  -0.546  0.00  0.00    +0.066 A 
ATOM     13  N   UNL     1       4.298   0.853  -0.561  0.00  0.00    -0.258 NA
ATOM     14  C   UNL     1       5.015  -0.228  -0.726  0.00  0.00    +0.111 A 
ATOM     15  C   UNL     1       2.406   2.185  -0.180  0.00  0.00    +0.137 C 
ATOM     16  C   UNL     1       0.977   2.472   0.067  0.00  0.00    -0.021 A 
ATOM     17  C   UNL     1       0.734   3.852   0.243  0.00  0.00    +0.007 A 
ATOM     18  C   UNL     1      -0.539   4.349   0.358  0.00  0.00    +0.020 A 
ATOM     19  C   UNL     1      -1.605   3.467   0.308  0.00  0.00    +0.041 A 
ATOM     20  C   UNL     1      -1.353   2.125   0.186  0.00  0.00    +0.024 A 
ATOM     21  C   UNL     1      -0.037   1.614   0.094  0.00  0.00    -0.041 A 
ATOM     22  C   UNL     1      -0.085   0.101   0.059  0.00  0.00    +0.040 C 
ATOM     23  C   UNL     1       0.796  -0.531  -0.974  0.00  0.00    +0.041 C 
ATOM     24 CL   UNL     1      -3.237   4.052   0.398  0.00  0.00    -0.084 Cl
ENDBRANCH   1  15
BRANCH   7  25
ATOM     25  C   UNL     1       4.579   3.700  -5.866  0.00  0.00    +0.099 C 
BRANCH  25  26
ATOM     26  C   UNL     1       5.729   3.830  -6.866  0.00  0.00    +0.001 C 
ATOM     27  C   UNL     1       6.112   5.304  -7.015  0.00  0.00    +0.023 C 
ATOM     28  C   UNL     1       7.287   5.426  -7.991  0.00  0.00    +0.108 C 
ATOM     29  N   UNL     1       6.924   4.767  -9.253  0.00  0.00    -0.303 N 
ATOM     30  C   UNL     1       6.454   3.375  -9.213  0.00  0.00    +0.108 C 
ATOM     31  C   UNL     1       5.289   3.276  -8.223  0.00  0.00    +0.023 C 
ATOM     32  C   UNL     1       7.020   5.426 -10.425  0.00  0.00    +0.203 C 
ATOM     33  O   UNL     1       6.717   4.870 -11.459  0.00  0.00    -0.277 OA
BRANCH  32  34
ATOM     34  CA  UNL     1       7.503   6.853 -10.449  0.00  0.00    +0.039 C 
BRANCH  34  35
ATOM     35  N   UNL     1       7.972   7.188 -11.800  0.00  0.00    +0.387 N 
ATOM     36  H1  UNL     1       8.325   8.230 -11.818  0.00  0.00    -0.089 HD
ATOM     37  H2  UNL     1       7.145   7.068 -12.515  0.00  0.00    -0.089 HD
ATOM     38  H3  UNL     1       8.798   6.516 -12.078  0.00  0.00    -0.089 HD
ENDBRANCH  34  35
BRANCH  34  39
ATOM     39  C   UNL     1       6.355   7.787 -10.062  0.00  0.00    +0.149 C 
BRANCH  39  40
ATOM     40  O   UNL     1       6.841   9.127  -9.971  0.00  0.00    -0.396 OA
ATOM     41  H   UNL     1       6.155   9.944  -9.702  0.00  0.00    +0.209 HD
ENDBRANCH  39  40
ENDBRANCH  34  39
ENDBRANCH  32  34
ENDBRANCH  25  26
ENDBRANCH   7  25
TORSDOF 7
