REMARK  Name = ZINC41558373
REMARK  5 active torsions:
REMARK  status: ('A' for Active; 'I' for Inactive)
REMARK    1  A    between atoms: C_3  and  C_27
REMARK    2  A    between atoms: C_6  and  C_7
REMARK    3  A    between atoms: C_7  and  N_8
REMARK    4  A    between atoms: C_9  and  C_11
REMARK    5  A    between atoms: N_13  and  C_14
REMARK                            x       y       z     vdW  Elec       q    Type
REMARK                         _______ _______ _______ _____ _____    ______ ____
ROOT
ATOM      1  C   UNL     1      -4.774  -3.486  -2.279  0.00  0.00    +0.303 C 
ATOM      2  O   UNL     1      -5.414  -4.482  -2.548  0.00  0.00    -0.265 OA
ATOM      3  N   UNL     1      -4.456  -2.607  -3.249  0.00  0.00    -0.278 N 
ATOM      4  H   UNL     1      -4.003  -1.779  -3.025  0.00  0.00    +0.155 HD
ENDROOT
BRANCH   3   5
ATOM      5  C   UNL     1      -4.779  -2.888  -4.581  0.00  0.00    +0.038 A 
ATOM      6  C   UNL     1      -3.925  -2.489  -5.602  0.00  0.00    +0.027 A 
ATOM      7  C   UNL     1      -4.243  -2.764  -6.918  0.00  0.00    +0.051 A 
ATOM      8  C   UNL     1      -5.412  -3.439  -7.223  0.00  0.00    +0.167 A 
ATOM      9  C   UNL     1      -6.271  -3.843  -6.199  0.00  0.00    +0.169 A 
ATOM     10  C   UNL     1      -5.951  -3.571  -4.882  0.00  0.00    +0.073 A 
ATOM     11  O   UNL     1      -7.341  -4.485  -6.765  0.00  0.00    -0.447 OA
ATOM     12  C   UNL     1      -7.347  -4.015  -8.121  0.00  0.00    +0.254 C 
ATOM     13  O   UNL     1      -5.955  -3.830  -8.419  0.00  0.00    -0.448 OA
ATOM     14  C   UNL     1      -8.123  -2.700  -8.250  0.00  0.00    +0.093 C 
ATOM     15  C   UNL     1      -8.793  -2.797  -9.645  0.00  0.00    +0.008 C 
ATOM     16  C   UNL     1      -9.170  -4.298  -9.744  0.00  0.00    +0.008 C 
ATOM     17  C   UNL     1      -7.992  -5.030  -9.063  0.00  0.00    +0.093 C 
ENDBRANCH   3   5
BRANCH   1  19
ATOM     18  N   UNL     1      -4.657  -4.115   0.098  0.00  0.00    -0.303 N 
ATOM     19  C   UNL     1      -4.339  -3.236  -0.873  0.00  0.00    +0.300 C 
ATOM     20  O   UNL     1      -3.699  -2.240  -0.604  0.00  0.00    -0.265 OA
ATOM     21  H   UNL     1      -5.168  -4.911  -0.117  0.00  0.00    +0.149 HD
BRANCH  18  22
ATOM     22  C   UNL     1      -4.230  -3.869   1.478  0.00  0.00    +0.140 C 
BRANCH  22  28
ATOM     23  C   UNL     1      -3.910  -6.105   2.554  0.00  0.00    +0.006 A 
ATOM     24  C   UNL     1      -4.343  -7.137   3.361  0.00  0.00    +0.019 A 
ATOM     25  C   UNL     1      -5.591  -7.058   3.981  0.00  0.00    +0.052 A 
ATOM     26  C   UNL     1      -6.393  -5.933   3.781  0.00  0.00    +0.019 A 
ATOM     27  C   UNL     1      -5.948  -4.908   2.972  0.00  0.00    +0.006 A 
ATOM     28  C   UNL     1      -4.710  -4.993   2.360  0.00  0.00    -0.030 A 
BRANCH  25  29
ATOM     29  C   UNL     1      -6.047  -8.126   4.819  0.00  0.00    +0.099 C 
ATOM     30  N   UNL     1      -6.408  -8.973   5.484  0.00  0.00    -0.191 NA
ENDBRANCH  25  29
ENDBRANCH  22  28
ENDBRANCH  18  22
ENDBRANCH   1  19
TORSDOF 5
