REMARK  Name = ZINC02626891
REMARK  9 active torsions:
REMARK  status: ('A' for Active; 'I' for Inactive)
REMARK    1  A    between atoms: C_1  and  C_2
REMARK    2  A    between atoms: C_2  and  C_4
REMARK    3  A    between atoms: C_2  and  S_15
REMARK    4  A    between atoms: N_6  and  C_7
REMARK    5  A    between atoms: C_7  and  C_8
REMARK    6  A    between atoms: C_8  and  C_9
REMARK    7  A    between atoms: S_15  and  C_16
REMARK    8  A    between atoms: C_19  and  C_27
REMARK    9  A    between atoms: N_20  and  C_21
REMARK                            x       y       z     vdW  Elec       q    Type
REMARK                         _______ _______ _______ _____ _____    ______ ____
ROOT
ATOM      1  C   UNL     1       0.780  -2.912  -1.009  0.00  0.00    +0.197 A 
ATOM      2  N   UNL     1       0.993  -4.146  -0.610  0.00  0.00    -0.122 NA
ATOM      3  N   UNL     1       1.547  -4.149   0.549  0.00  0.00    -0.125 NA
ATOM      4  C   UNL     1       1.729  -2.914   0.964  0.00  0.00    +0.205 A 
ATOM      5  N   UNL     1       1.237  -2.082  -0.021  0.00  0.00    -0.268 N 
ENDROOT
BRANCH   5   6
ATOM      6  C   UNL     1       1.214  -0.680  -0.013  0.00  0.00    +0.051 A 
ATOM      7  C   UNL     1       0.002  -0.004   0.002  0.00  0.00    +0.026 A 
ATOM      8  C   UNL     1      -0.017   1.377   0.010  0.00  0.00    +0.002 A 
ATOM      9  C   UNL     1       1.171   2.086   0.002  0.00  0.00    +0.000 A 
ATOM     10  C   UNL     1       2.380   1.415  -0.013  0.00  0.00    +0.002 A 
ATOM     11  C   UNL     1       2.405   0.034  -0.021  0.00  0.00    +0.026 A 
ENDBRANCH   5   6
BRANCH   4  12
ATOM     12  C   UNL     1       2.338  -2.499   2.237  0.00  0.00    +0.172 A 
ATOM     13  C   UNL     1       2.554  -3.298   3.319  0.00  0.00    +0.053 A 
ATOM     14  C   UNL     1       3.155  -2.492   4.305  0.00  0.00    +0.042 A 
ATOM     15  C   UNL     1       3.269  -1.253   3.787  0.00  0.00    +0.196 A 
ATOM     16  O   UNL     1       2.775  -1.260   2.538  0.00  0.00    -0.460 OA
ENDBRANCH   4  12
BRANCH   1  17
ATOM     17  S   UNL     1       0.043  -2.418  -2.531  0.00  0.00    -0.073 S 
BRANCH  17  19
ATOM     18  C   UNL     1      -1.308  -4.790  -2.418  0.00  0.00    +0.029 C 
ATOM     19  C   UNL     1      -0.278  -4.041  -3.266  0.00  0.00    +0.137 C 
BRANCH  19  20
ATOM     20  C   UNL     1      -0.811  -3.863  -4.664  0.00  0.00    +0.226 C 
ATOM     21  O   UNL     1      -1.299  -2.803  -4.996  0.00  0.00    -0.275 OA
ATOM     22  N   UNL     1      -0.747  -4.881  -5.545  0.00  0.00    -0.314 N 
ATOM     23  H   UNL     1      -0.357  -5.728  -5.279  0.00  0.00    +0.149 HD
BRANCH  22  24
ATOM     24  C   UNL     1      -1.266  -4.707  -6.904  0.00  0.00    +0.108 C 
BRANCH  24  25
ATOM     25  C   UNL     1      -1.071  -6.004  -7.693  0.00  0.00    +0.049 C 
BRANCH  25  26
ATOM     26  C   UNL     1      -1.605  -5.825  -9.091  0.00  0.00    -0.072 C 
ATOM     27  C   UNL     1      -0.771  -5.484 -10.020  0.00  0.00    -0.028 C 
ATOM     28  C   UNL     1      -1.155  -5.261 -11.454  0.00  0.00    +0.027 C 
ATOM     29  C   UNL     1      -2.521  -5.889 -11.738  0.00  0.00    +0.004 C 
ATOM     30  C   UNL     1      -3.501  -5.433 -10.649  0.00  0.00    +0.005 C 
ATOM     31  C   UNL     1      -3.070  -6.060  -9.320  0.00  0.00    +0.030 C 
ENDBRANCH  25  26
ENDBRANCH  24  25
ENDBRANCH  22  24
ENDBRANCH  19  20
ENDBRANCH  17  19
ENDBRANCH   1  17
TORSDOF 8
