REMARK  Name = ZINC60154783
REMARK  3 active torsions:
REMARK  status: ('A' for Active; 'I' for Inactive)
REMARK    1  A    between atoms: C_3  and  C_21
REMARK    2  A    between atoms: C_5  and  N_7
REMARK    3  A    between atoms: N_23  and  C_24
REMARK                            x       y       z     vdW  Elec       q    Type
REMARK                         _______ _______ _______ _____ _____    ______ ____
ROOT
ATOM      1  C   UNL     1       0.301   1.358   0.492  0.00  0.00    +0.003 A 
ATOM      2  C   UNL     1       1.375   2.103   0.047  0.00  0.00    +0.013 A 
ATOM      3  C   UNL     1       2.474   1.465  -0.531  0.00  0.00    +0.039 A 
ATOM      4  C   UNL     1       2.482   0.076  -0.657  0.00  0.00    +0.038 A 
ATOM      5  C   UNL     1       1.399  -0.662  -0.207  0.00  0.00    +0.057 A 
ATOM      6  C   UNL     1       0.309  -0.018   0.367  0.00  0.00    +0.025 A 
ENDROOT
BRANCH   5   7
ATOM      7  N   UNL     1       1.402  -2.056  -0.332  0.00  0.00    -0.188 N 
ATOM      8  C   UNL     1       0.332  -2.688  -0.857  0.00  0.00    +0.240 C 
ATOM      9  O   UNL     1      -0.612  -2.048  -1.270  0.00  0.00    -0.273 OA
ATOM     10  C   UNL     1       0.316  -4.191  -0.928  0.00  0.00    +0.093 C 
ATOM     11  C   UNL     1      -1.124  -4.708  -0.930  0.00  0.00    +0.040 C 
ATOM     12  C   UNL     1      -1.125  -6.199  -0.743  0.00  0.00    -0.030 C 
ATOM     13  C   UNL     1      -0.117  -6.875  -0.289  0.00  0.00    -0.030 C 
ATOM     14  C   UNL     1       1.196  -6.264   0.110  0.00  0.00    +0.040 C 
ATOM     15  C   UNL     1       1.037  -4.758   0.304  0.00  0.00    +0.092 C 
ATOM     16  C   UNL     1       2.380  -4.090   0.435  0.00  0.00    +0.234 C 
ATOM     17  O   UNL     1       3.333  -4.715   0.850  0.00  0.00    -0.274 OA
ATOM     18  N   UNL     1       2.519  -2.793   0.084  0.00  0.00    -0.227 N 
ATOM     19  H   UNL     1       3.391  -2.370   0.123  0.00  0.00    +0.173 HD
ENDBRANCH   5   7
BRANCH   3  20
ATOM     20  C   UNL     1       3.625   2.260  -1.010  0.00  0.00    +0.248 C 
ATOM     21  O   UNL     1       4.581   1.703  -1.513  0.00  0.00    -0.270 OA
ATOM     22  N   UNL     1       3.614   3.602  -0.887  0.00  0.00    -0.280 N 
ATOM     23  H   UNL     1       2.887   4.041  -0.418  0.00  0.00    +0.155 HD
BRANCH  22  24
ATOM     24  C   UNL     1       4.653   4.364  -1.437  0.00  0.00    +0.056 A 
ATOM     25  C   UNL     1       5.923   3.814  -1.564  0.00  0.00    +0.072 A 
ATOM     26  C   UNL     1       6.947   4.568  -2.108  0.00  0.00    +0.144 A 
ATOM     27  C   UNL     1       6.703   5.876  -2.525  0.00  0.00    +0.077 A 
ATOM     28  C   UNL     1       5.437   6.422  -2.397  0.00  0.00    +0.048 A 
ATOM     29  C   UNL     1       4.411   5.665  -1.859  0.00  0.00    +0.064 A 
ATOM     30 CL   UNL     1       2.821   6.345  -1.704  0.00  0.00    -0.082 Cl
ATOM     31  N   UNL     1       7.754   6.628  -3.074  0.00  0.00    -0.280 N 
ATOM     32  C   UNL     1       8.875   5.990  -3.476  0.00  0.00    +0.255 C 
ATOM     33  O   UNL     1       9.808   6.622  -3.924  0.00  0.00    -0.272 OA
ATOM     34  C   UNL     1       8.962   4.489  -3.364  0.00  0.00    +0.325 C 
ATOM     35  O   UNL     1       8.196   4.046  -2.241  0.00  0.00    -0.481 OA
ATOM     36  H   UNL     1       7.677   7.591  -3.163  0.00  0.00    +0.155 HD
ENDBRANCH  22  24
ENDBRANCH   3  20
TORSDOF 3
