REMARK  Name = ZINC01201489
REMARK  6 active torsions:
REMARK  status: ('A' for Active; 'I' for Inactive)
REMARK    1  A    between atoms: C_1  and  C_2
REMARK    2  A    between atoms: C_3  and  C_31
REMARK    3  A    between atoms: C_4  and  C_21
REMARK    4  A    between atoms: C_10  and  C_15
REMARK    5  A    between atoms: C_31  and  O_33
REMARK    6  A    between atoms: O_33  and  C_34
REMARK                            x       y       z     vdW  Elec       q    Type
REMARK                         _______ _______ _______ _____ _____    ______ ____
ROOT
ATOM      1  C   UNL     1       7.385  -0.827   1.216  0.00  0.00    +0.061 C 
ATOM      2  C   UNL     1       6.745   0.114   0.229  0.00  0.00    +0.016 C 
ATOM      3  C   UNL     1       6.194   1.261   0.661  0.00  0.00    +0.065 C 
ATOM      4  C   UNL     1       5.542   2.219  -0.291  0.00  0.00    +0.094 C 
ATOM      5  C   UNL     1       5.970   1.946  -1.711  0.00  0.00    +0.024 C 
ATOM      6  C   UNL     1       6.529   0.764  -2.048  0.00  0.00    +0.016 C 
ATOM      7  N   UNL     1       6.730  -0.204  -1.101  0.00  0.00    -0.321 N 
ATOM      8  C   UNL     1       6.943   0.477  -3.470  0.00  0.00    +0.059 C 
ATOM      9  C   UNL     1       7.361   1.780  -4.156  0.00  0.00    +0.032 C 
ATOM     10  C   UNL     1       6.182   2.757  -4.105  0.00  0.00    +0.088 C 
ATOM     11  C   UNL     1       5.772   2.954  -2.671  0.00  0.00    +0.162 C 
ATOM     12  O   UNL     1       5.259   4.004  -2.336  0.00  0.00    -0.292 OA
ATOM     13  H   UNL     1       6.880  -1.246  -1.419  0.00  0.00    +0.152 HD
ENDROOT
BRANCH   4  14
ATOM     14  C   UNL     1       4.045   2.076  -0.190  0.00  0.00    -0.013 A 
ATOM     15  C   UNL     1       3.445   0.869  -0.499  0.00  0.00    +0.055 A 
ATOM     16  C   UNL     1       2.070   0.735  -0.406  0.00  0.00    +0.167 A 
ATOM     17  C   UNL     1       1.293   1.818  -0.001  0.00  0.00    +0.168 A 
ATOM     18  C   UNL     1       1.900   3.024   0.308  0.00  0.00    +0.069 A 
ATOM     19  C   UNL     1       3.274   3.152   0.212  0.00  0.00    +0.049 A 
ATOM     20 CL   UNL     1       4.033   4.665   0.599  0.00  0.00    -0.083 Cl
ATOM     21  O   UNL     1      -0.018   1.436   0.010  0.00  0.00    -0.453 OA
ATOM     22  C   UNL     1       0.002  -0.004   0.002  0.00  0.00    +0.466 C 
ATOM     23  O   UNL     1       1.245  -0.326  -0.649  0.00  0.00    -0.453 OA
ENDBRANCH   4  14
BRANCH   9  24
ATOM     24  C   UNL     1       7.726   1.501  -5.591  0.00  0.00    -0.044 A 
ATOM     25  C   UNL     1       6.789   0.955  -6.449  0.00  0.00    +0.004 A 
ATOM     26  C   UNL     1       7.122   0.703  -7.767  0.00  0.00    +0.000 A 
ATOM     27  C   UNL     1       8.395   0.989  -8.225  0.00  0.00    +0.000 A 
ATOM     28  C   UNL     1       9.333   1.530  -7.366  0.00  0.00    +0.000 A 
ATOM     29  C   UNL     1       8.998   1.786  -6.049  0.00  0.00    +0.004 A 
ENDBRANCH   9  24
BRANCH   3  30
ATOM     30  C   UNL     1       6.231   1.571   2.041  0.00  0.00    +0.337 C 
ATOM     31  O   UNL     1       6.757   0.803   2.824  0.00  0.00    -0.245 OA
BRANCH  30  32
ATOM     32  O   UNL     1       5.681   2.720   2.489  0.00  0.00    -0.465 OA
ATOM     33  C   UNL     1       5.754   2.969   3.894  0.00  0.00    +0.280 C 
ENDBRANCH  30  32
ENDBRANCH   3  30
TORSDOF 4
