REMARK  Name = ZINC09298100
REMARK  7 active torsions:
REMARK  status: ('A' for Active; 'I' for Inactive)
REMARK    1  A    between atoms: C_1  and  C_2
REMARK    2  A    between atoms: C_9  and  N_18
REMARK    3  A    between atoms: C_10  and  C_11
REMARK    4  A    between atoms: C_14  and  O_16
REMARK    5  A    between atoms: O_16  and  C_17
REMARK    6  A    between atoms: C_19  and  C_21
REMARK    7  A    between atoms: C_21  and  N_22
REMARK                            x       y       z     vdW  Elec       q    Type
REMARK                         _______ _______ _______ _____ _____    ______ ____
ROOT
ATOM      1  C   UNL     1      -2.890   1.492   2.530  0.00  0.00    +0.008 C 
ATOM      2  C   UNL     1      -2.223   1.219   1.181  0.00  0.00    -0.009 C 
ATOM      3  C   UNL     1      -0.735   1.582   1.262  0.00  0.00    +0.008 C 
ATOM      4  C   UNL     1      -0.013   1.086   0.008  0.00  0.00    +0.037 C 
ATOM      5  C   UNL     1      -0.755   1.593  -1.222  0.00  0.00    -0.023 A 
ATOM      6  C   UNL     1      -2.032   2.025  -1.135  0.00  0.00    -0.004 A 
ATOM      7  S   UNL     1      -2.461   2.506  -2.783  0.00  0.00    -0.077 S 
ATOM      8  C   UNL     1      -0.967   2.140  -3.580  0.00  0.00    +0.084 A 
ATOM      9  C   UNL     1      -0.171   1.654  -2.551  0.00  0.00    +0.069 A 
ATOM     10  C   UNL     1      -2.885   2.078   0.095  0.00  0.00    +0.046 C 
ENDROOT
BRANCH   9  11
ATOM     11  C   UNL     1       1.206   1.217  -2.797  0.00  0.00    +0.255 C 
ATOM     12  O   UNL     1       1.433   0.059  -3.094  0.00  0.00    -0.270 OA
ATOM     13  N   UNL     1       2.220   2.098  -2.693  0.00  0.00    -0.217 N 
ATOM     14  C   UNL     1       3.487   1.697  -2.919  0.00  0.00    +0.407 C 
ATOM     15  O   UNL     1       3.714   0.541  -3.216  0.00  0.00    -0.226 OA
ATOM     16  H   UNL     1       2.039   3.021  -2.456  0.00  0.00    +0.161 HD
BRANCH  14  17
ATOM     17  O   UNL     1       4.501   2.576  -2.815  0.00  0.00    -0.453 OA
ATOM     18  C   UNL     1       5.838   2.074  -3.072  0.00  0.00    +0.282 C 
ENDBRANCH  14  17
ENDBRANCH   9  11
BRANCH   8  19
ATOM     19  N   UNL     1      -0.644   2.295  -4.919  0.00  0.00    -0.278 N 
ATOM     20  C   UNL     1      -1.556   2.788  -5.779  0.00  0.00    +0.235 C 
ATOM     21  O   UNL     1      -2.660   3.097  -5.382  0.00  0.00    -0.274 OA
ATOM     22  H   UNL     1       0.239   2.048  -5.237  0.00  0.00    +0.155 HD
BRANCH  20  23
ATOM     23  C   UNL     1      -1.205   2.957  -7.235  0.00  0.00    +0.213 C 
BRANCH  23  24
ATOM     24  N   UNL     1      -2.357   3.506  -7.955  0.00  0.00    -0.225 N 
ATOM     25  C   UNL     1      -3.314   2.764  -8.540  0.00  0.00    +0.254 C 
ATOM     26  O   UNL     1      -3.360   1.550  -8.555  0.00  0.00    -0.270 OA
ATOM     27  C   UNL     1      -4.302   3.672  -9.159  0.00  0.00    +0.049 A 
ATOM     28  C   UNL     1      -5.472   3.484  -9.879  0.00  0.00    +0.014 A 
ATOM     29  C   UNL     1      -6.182   4.583 -10.335  0.00  0.00    +0.001 A 
ATOM     30  C   UNL     1      -5.731   5.865 -10.078  0.00  0.00    +0.001 A 
ATOM     31  C   UNL     1      -4.563   6.068  -9.360  0.00  0.00    +0.014 A 
ATOM     32  C   UNL     1      -3.843   4.978  -8.897  0.00  0.00    +0.049 A 
ATOM     33  C   UNL     1      -2.594   4.820  -8.123  0.00  0.00    +0.254 C 
ATOM     34  O   UNL     1      -1.898   5.724  -7.707  0.00  0.00    -0.270 OA
ENDBRANCH  23  24
ENDBRANCH  20  23
ENDBRANCH   8  19
TORSDOF 5
