REMARK  Name = ZINC09763396
REMARK  10 active torsions:
REMARK  status: ('A' for Active; 'I' for Inactive)
REMARK    1  A    between atoms: C_1  and  C_2
REMARK    2  A    between atoms: C_2  and  O_3
REMARK    3  A    between atoms: O_3  and  C_4
REMARK    4  A    between atoms: C_4  and  C_6
REMARK    5  A    between atoms: C_9  and  N_12
REMARK    6  A    between atoms: C_16  and  N_55
REMARK    7  A    between atoms: C_20  and  C_21
REMARK    8  A    between atoms: C_20  and  N_55
REMARK    9  A    between atoms: N_27  and  C_32
REMARK   10  A    between atoms: N_30  and  C_31
REMARK                            x       y       z     vdW  Elec       q    Type
REMARK                         _______ _______ _______ _____ _____    ______ ____
ROOT
ATOM      1  N   UNL     1       1.741  10.172   2.008  0.00  0.00    -0.212 N 
ATOM      2  C   UNL     1       2.906   9.719   1.532  0.00  0.00    +0.225 C 
ATOM      3  O   UNL     1       3.991  10.222   1.732  0.00  0.00    -0.275 OA
ATOM      4  C   UNL     1       2.656   8.478   0.703  0.00  0.00    +0.090 C 
ATOM      5  C   UNL     1       1.127   8.291   0.784  0.00  0.00    +0.026 C 
ATOM      6  C   UNL     1       0.674   9.446   1.650  0.00  0.00    +0.213 C 
ATOM      7  O   UNL     1      -0.472   9.678   1.969  0.00  0.00    -0.277 OA
ENDROOT
BRANCH   1  11
ATOM      8  C   UNL     1       1.454  13.567   4.412  0.00  0.00    +0.059 A 
ATOM      9  C   UNL     1       2.090  12.419   4.894  0.00  0.00    +0.017 A 
ATOM     10  C   UNL     1       2.183  11.300   4.097  0.00  0.00    +0.025 A 
ATOM     11  C   UNL     1       1.645  11.310   2.814  0.00  0.00    +0.044 A 
ATOM     12  C   UNL     1       1.016  12.452   2.330  0.00  0.00    +0.025 A 
ATOM     13  C   UNL     1       0.915  13.574   3.122  0.00  0.00    +0.017 A 
BRANCH   8  14
ATOM     14  C   UNL     1       1.352  14.767   5.263  0.00  0.00    +0.339 C 
ATOM     15  O   UNL     1       1.821  14.759   6.383  0.00  0.00    -0.245 OA
BRANCH  14  16
ATOM     16  O   UNL     1       0.739  15.873   4.797  0.00  0.00    -0.461 OA
BRANCH  16  18
ATOM     17  C   UNL     1      -0.051  18.168   4.990  0.00  0.00    +0.048 C 
ATOM     18  C   UNL     1       0.676  17.017   5.689  0.00  0.00    +0.229 C 
ENDBRANCH  16  18
ENDBRANCH  14  16
ENDBRANCH   8  14
ENDBRANCH   1  11
BRANCH   5  19
ATOM     19  N   UNL     1       0.802   7.003   1.425  0.00  0.00    +0.390 N 
ATOM     20  H   UNL     1       0.806   7.122   2.444  0.00  0.00    -0.084 HD
ATOM     21  H   UNL     1       1.507   6.305   1.159  0.00  0.00    -0.084 HD
BRANCH  19  22
ATOM     22  C   UNL     1      -0.530   6.539   0.994  0.00  0.00    -0.046 C 
BRANCH  22  23
ATOM     23  C   UNL     1      -0.835   5.223   1.663  0.00  0.00    -0.062 A 
ATOM     24  C   UNL     1      -1.476   5.206   2.890  0.00  0.00    +0.004 A 
ATOM     25  C   UNL     1      -1.759   4.006   3.511  0.00  0.00    +0.028 A 
ATOM     26  C   UNL     1      -1.399   2.813   2.904  0.00  0.00    +0.070 A 
ATOM     27  C   UNL     1      -0.748   2.830   1.669  0.00  0.00    +0.070 A 
ATOM     28  C   UNL     1      -0.473   4.040   1.050  0.00  0.00    +0.029 A 
ATOM     29  N   UNL     1      -0.523   1.502   1.314  0.00  0.00    -0.295 N 
ATOM     30  C   UNL     1      -1.006   0.714   2.292  0.00  0.00    +0.330 A 
ATOM     31  O   UNL     1      -0.966  -0.503   2.297  0.00  0.00    -0.246 OA
ATOM     32  N   UNL     1      -1.542   1.475   3.265  0.00  0.00    -0.295 N 
ATOM     33  C   UNL     1      -2.167   0.981   4.494  0.00  0.00    +0.154 C 
ATOM     34  C   UNL     1       0.134   1.042   0.088  0.00  0.00    +0.154 C 
ENDBRANCH  22  23
ENDBRANCH  19  22
ENDBRANCH   5  19
TORSDOF 7
