REMARK  Name = ZINC40783458
REMARK  7 active torsions:
REMARK  status: ('A' for Active; 'I' for Inactive)
REMARK    1  A    between atoms: C_1  and  C_2
REMARK    2  A    between atoms: C_5  and  S_8
REMARK    3  A    between atoms: S_8  and  C_9
REMARK    4  A    between atoms: C_10  and  N_22
REMARK    5  A    between atoms: C_11  and  N_15
REMARK    6  A    between atoms: C_16  and  C_21
REMARK    7  A    between atoms: C_18  and  C_20
REMARK                            x       y       z     vdW  Elec       q    Type
REMARK                         _______ _______ _______ _____ _____    ______ ____
ROOT
ATOM      1  C   UNL     1       0.194  -4.962   1.682  0.00  0.00    +0.128 A 
ATOM      2  C   UNL     1       0.337  -6.303   2.056  0.00  0.00    +0.102 A 
ATOM      3  C   UNL     1       0.499  -6.594   3.410  0.00  0.00    +0.179 A 
ATOM      4  N   UNL     1       0.510  -5.594   4.288  0.00  0.00    -0.215 NA
ATOM      5  C   UNL     1       0.371  -4.345   3.894  0.00  0.00    +0.224 A 
ATOM      6  N   UNL     1       0.221  -4.024   2.625  0.00  0.00    -0.227 NA
ENDROOT
BRANCH   3   7
ATOM      7  N   UNL     1       0.646  -7.916   3.838  0.00  0.00    -0.217 N 
ATOM      8  C   UNL     1       1.582  -8.376   4.709  0.00  0.00    +0.044 A 
ATOM      9  C   UNL     1       1.384  -9.706   4.858  0.00  0.00    +0.048 A 
ATOM     10  C   UNL     1       0.297 -10.073   4.057  0.00  0.00    +0.061 A 
ATOM     11  N   UNL     1      -0.149  -9.003   3.451  0.00  0.00    -0.170 NA
ATOM     12  C   UNL     1      -0.267 -11.464   3.920  0.00  0.00    +0.067 C 
ATOM     13  C   UNL     1       2.647  -7.553   5.387  0.00  0.00    +0.066 C 
ENDBRANCH   3   7
BRANCH   2  14
ATOM     14  N   UNL     1       0.319  -7.324   1.097  0.00  0.00    -0.353 N 
ATOM     15  H   UNL     1       0.266  -7.103   0.154  0.00  0.00    +0.142 HD
ATOM     16  H   UNL     1       0.360  -8.252   1.376  0.00  0.00    +0.142 HD
ENDBRANCH   2  14
BRANCH   1  17
ATOM     17  S   UNL     1      -0.013  -4.523  -0.012  0.00  0.00    -0.068 S 
BRANCH  17  22
ATOM     18  C   UNL     1       0.051   1.513   0.024  0.00  0.00    +0.044 C 
ATOM     19  C   UNL     1       0.035   0.006   0.015  0.00  0.00    -0.050 A 
ATOM     20  C   UNL     1       1.225  -0.696  -0.043  0.00  0.00    +0.004 A 
ATOM     21  C   UNL     1       1.214  -2.077  -0.052  0.00  0.00    +0.015 A 
ATOM     22  C   UNL     1       0.005  -2.761  -0.001  0.00  0.00    +0.014 A 
ATOM     23  C   UNL     1      -1.188  -2.052   0.058  0.00  0.00    +0.015 A 
ATOM     24  C   UNL     1      -1.169  -0.671   0.071  0.00  0.00    +0.004 A 
ENDBRANCH  17  22
ENDBRANCH   1  17
TORSDOF 4
