REMARK  Name = ZINC04177491
REMARK  5 active torsions:
REMARK  status: ('A' for Active; 'I' for Inactive)
REMARK    1  A    between atoms: C_1  and  C_2
REMARK    2  A    between atoms: C_8  and  C_24
REMARK    3  A    between atoms: C_9  and  N_11
REMARK    4  A    between atoms: C_12  and  C_14
REMARK    5  A    between atoms: C_16  and  N_21
REMARK                            x       y       z     vdW  Elec       q    Type
REMARK                         _______ _______ _______ _____ _____    ______ ____
ROOT
ATOM      1  C   UNL     1       3.751   1.972  -0.307  0.00  0.00    +0.008 C 
ATOM      2  C   UNL     1       2.417   1.242  -0.472  0.00  0.00    -0.009 C 
ATOM      3  C   UNL     1       2.436  -0.045   0.357  0.00  0.00    +0.009 C 
ATOM      4  C   UNL     1       1.209  -0.891  -0.014  0.00  0.00    +0.043 C 
ATOM      5  C   UNL     1       0.002  -0.004   0.002  0.00  0.00    -0.004 A 
ATOM      6  C   UNL     1      -0.016   1.347   0.009  0.00  0.00    -0.023 A 
ATOM      7  C   UNL     1      -1.339   1.947   0.031  0.00  0.00    +0.068 A 
ATOM      8  C   UNL     1      -2.432   1.092   0.032  0.00  0.00    +0.085 A 
ATOM      9  S   UNL     1      -1.703  -0.480   0.016  0.00  0.00    -0.077 S 
ATOM     10  C   UNL     1       1.279   2.149   0.001  0.00  0.00    +0.040 C 
ENDROOT
BRANCH   7  11
ATOM     11  C   UNL     1      -1.513   3.403   0.042  0.00  0.00    +0.244 C 
ATOM     12  O   UNL     1      -1.600   4.013  -1.008  0.00  0.00    -0.270 OA
ATOM     13  N   UNL     1      -1.576   4.066   1.214  0.00  0.00    -0.325 N 
ATOM     14  H   UNL     1      -1.507   3.579   2.050  0.00  0.00    +0.145 HD
ATOM     15  H   UNL     1      -1.691   5.029   1.221  0.00  0.00    +0.145 HD
ENDBRANCH   7  11
BRANCH   8  16
ATOM     16  N   UNL     1      -3.779   1.416   0.047  0.00  0.00    -0.275 N 
ATOM     17  C   UNL     1      -4.707   0.439   0.051  0.00  0.00    +0.250 C 
ATOM     18  O   UNL     1      -4.363  -0.727   0.042  0.00  0.00    -0.270 OA
ATOM     19  H   UNL     1      -4.054   2.346   0.054  0.00  0.00    +0.156 HD
BRANCH  17  20
ATOM     20  C   UNL     1      -6.143   0.784   0.067  0.00  0.00    +0.057 A 
ATOM     21  C   UNL     1      -6.543   2.123   0.078  0.00  0.00    +0.047 A 
ATOM     22  C   UNL     1      -7.885   2.438   0.092  0.00  0.00    +0.127 A 
ATOM     23  C   UNL     1      -8.836   1.433   0.096  0.00  0.00    +0.034 A 
ATOM     24  C   UNL     1      -8.450   0.105   0.085  0.00  0.00    +0.023 A 
ATOM     25  C   UNL     1      -7.109  -0.226   0.066  0.00  0.00    +0.053 A 
ATOM     26 CL   UNL     1      -6.624  -1.893   0.045  0.00  0.00    -0.083 Cl
BRANCH  22  27
ATOM     27  N   UNL     1      -8.310   3.856   0.104  0.00  0.00    +0.056 N 
ATOM     28  O   UNL     1      -7.474   4.742   0.101  0.00  0.00    -0.126 OA
ATOM     29  O   UNL     1      -9.495   4.137   0.117  0.00  0.00    -0.126 OA
ENDBRANCH  22  27
ENDBRANCH  17  20
ENDBRANCH   8  16
TORSDOF 4
