REMARK  Name = ZINC50377062
REMARK  6 active torsions:
REMARK  status: ('A' for Active; 'I' for Inactive)
REMARK    1  A    between atoms: C_1  and  O_2
REMARK    2  A    between atoms: O_2  and  C_3
REMARK    3  A    between atoms: C_8  and  N_10
REMARK    4  A    between atoms: C_11  and  C_15
REMARK    5  A    between atoms: C_18  and  N_22
REMARK    6  A    between atoms: C_20  and  N_21
REMARK                            x       y       z     vdW  Elec       q    Type
REMARK                         _______ _______ _______ _____ _____    ______ ____
ROOT
ATOM      1  N   UNL     1       1.007  -2.137   0.736  0.00  0.00    -0.219 N 
ATOM      2  C   UNL     1       1.931  -2.505   1.667  0.00  0.00    +0.184 A 
ATOM      3  N   UNL     1       1.274  -2.760   2.780  0.00  0.00    -0.108 NA
ATOM      4  N   UNL     1       0.014  -2.577   2.610  0.00  0.00    -0.023 NA
ATOM      5  N   UNL     1      -0.229  -2.194   1.403  0.00  0.00    -0.043 NA
ENDROOT
BRANCH   2   6
ATOM      6  C   UNL     1       3.392  -2.601   1.466  0.00  0.00    +0.041 A 
ATOM      7  C   UNL     1       4.084  -1.557   0.849  0.00  0.00    +0.015 A 
ATOM      8  C   UNL     1       5.445  -1.648   0.664  0.00  0.00    +0.023 A 
ATOM      9  C   UNL     1       6.136  -2.779   1.090  0.00  0.00    +0.026 A 
ATOM     10  C   UNL     1       5.458  -3.822   1.705  0.00  0.00    +0.046 A 
ATOM     11  C   UNL     1       4.088  -3.738   1.901  0.00  0.00    +0.037 A 
BRANCH  11  12
ATOM     12  N   UNL     1       3.406  -4.781   2.522  0.00  0.00    -0.357 N 
ATOM     13  H   UNL     1       2.437  -4.766   2.570  0.00  0.00    +0.142 HD
ATOM     14  H   UNL     1       3.899  -5.522   2.907  0.00  0.00    +0.142 HD
ENDBRANCH  11  12
BRANCH   9  15
ATOM     15  N   UNL     1       7.515  -2.864   0.898  0.00  0.00    -0.358 N 
ATOM     16  H   UNL     1       7.991  -2.136   0.468  0.00  0.00    +0.142 HD
ATOM     17  H   UNL     1       7.998  -3.652   1.194  0.00  0.00    +0.142 HD
ENDBRANCH   9  15
ENDBRANCH   2   6
BRANCH   1  22
ATOM     18  C   UNL     1       0.912  -0.270  -0.865  0.00  0.00    +0.142 C 
ATOM     19  C   UNL     1      -0.213  -0.215  -1.920  0.00  0.00    +0.034 C 
ATOM     20  C   UNL     1      -0.064  -1.542  -2.704  0.00  0.00    +0.005 C 
ATOM     21  C   UNL     1       0.316  -2.554  -1.594  0.00  0.00    +0.029 C 
ATOM     22  C   UNL     1       1.250  -1.756  -0.658  0.00  0.00    +0.140 C 
BRANCH  18  24
ATOM     23  C   UNL     1       0.743   1.700   0.489  0.00  0.00    +0.194 C 
ATOM     24  O   UNL     1       0.460   0.305   0.362  0.00  0.00    -0.378 OA
ENDBRANCH  18  24
ENDBRANCH   1  22
TORSDOF 5
