REMARK  Name = ZINC23699584
REMARK  4 active torsions:
REMARK  status: ('A' for Active; 'I' for Inactive)
REMARK    1  A    between atoms: C_4  and  C_7
REMARK    2  A    between atoms: C_7  and  C_8
REMARK    3  A    between atoms: C_7  and  N_14
REMARK    4  A    between atoms: N_17  and  C_20
REMARK                            x       y       z     vdW  Elec       q    Type
REMARK                         _______ _______ _______ _____ _____    ______ ____
ROOT
ATOM      1  C   UNL     1       3.728  -0.719  -0.025  0.00  0.00    +0.174 C 
ENDROOT
BRANCH   1   2
ATOM      2  C   UNL     1       4.050  -1.197   1.368  0.00  0.00    +0.242 C 
ATOM      3  O   UNL     1       4.176  -2.382   1.587  0.00  0.00    -0.273 OA
ATOM      4  N   UNL     1       4.197  -0.306   2.369  0.00  0.00    -0.239 N 
ATOM      5  C   UNL     1       4.484  -0.734   3.614  0.00  0.00    +0.303 C 
ATOM      6  O   UNL     1       4.612  -1.922   3.834  0.00  0.00    -0.253 OA
ATOM      7  N   UNL     1       4.631   0.157   4.615  0.00  0.00    -0.313 N 
ATOM      8  H   UNL     1       4.095   0.642   2.193  0.00  0.00    +0.159 HD
ATOM      9  H   UNL     1       4.530   1.105   4.439  0.00  0.00    +0.146 HD
ATOM     10  H   UNL     1       4.838  -0.151   5.511  0.00  0.00    +0.146 HD
ENDBRANCH   1   2
BRANCH   1  14
ATOM     11  C   UNL     1       0.021   1.405   0.018  0.00  0.00    +0.000 A 
ATOM     12  C   UNL     1       1.216   2.100   0.019  0.00  0.00    +0.000 A 
ATOM     13  C   UNL     1       2.416   1.413   0.005  0.00  0.00    +0.005 A 
ATOM     14  C   UNL     1       2.420   0.030  -0.009  0.00  0.00    -0.021 A 
ATOM     15  C   UNL     1       1.225  -0.665  -0.009  0.00  0.00    +0.005 A 
ATOM     16  C   UNL     1       0.026   0.022   0.003  0.00  0.00    +0.000 A 
ENDBRANCH   1  14
BRANCH   1  17
ATOM     17  N   UNL     1       3.620  -1.873  -0.926  0.00  0.00    -0.285 NA
ATOM     18  C   UNL     1       3.206  -1.454  -2.272  0.00  0.00    +0.104 C 
ATOM     19  C   UNL     1       2.930  -2.695  -3.128  0.00  0.00    +0.120 C 
ATOM     20  N   UNL     1       4.115  -3.565  -3.084  0.00  0.00    -0.327 N 
ATOM     21  C   UNL     1       4.671  -3.918  -1.769  0.00  0.00    +0.120 C 
ATOM     22  C   UNL     1       4.879  -2.629  -0.967  0.00  0.00    +0.104 C 
BRANCH  20  23
ATOM     23  C   UNL     1       4.696  -4.045  -4.260  0.00  0.00    +0.031 A 
ATOM     24  C   UNL     1       5.878  -4.772  -4.207  0.00  0.00    +0.023 A 
ATOM     25  C   UNL     1       6.450  -5.245  -5.371  0.00  0.00    +0.003 A 
ATOM     26  C   UNL     1       5.848  -4.996  -6.590  0.00  0.00    +0.020 A 
ATOM     27  C   UNL     1       4.670  -4.272  -6.648  0.00  0.00    +0.043 A 
ATOM     28  C   UNL     1       4.090  -3.800  -5.486  0.00  0.00    +0.043 A 
ATOM     29 CL   UNL     1       3.918  -3.961  -8.181  0.00  0.00    -0.083 Cl
ENDBRANCH  20  23
ENDBRANCH   1  17
TORSDOF 4
