REMARK  Name = ZINC35747674
REMARK  11 active torsions:
REMARK  status: ('A' for Active; 'I' for Inactive)
REMARK    1  A    between atoms: C_1  and  C_2
REMARK    2  A    between atoms: C_5  and  C_9
REMARK    3  A    between atoms: C_6  and  C_8
REMARK    4  A    between atoms: C_18  and  C_20
REMARK    5  A    between atoms: C_20  and  N_21
REMARK    6  A    between atoms: N_21  and  C_22
REMARK    7  A    between atoms: N_21  and  C_28
REMARK    8  A    between atoms: C_22  and  C_23
REMARK    9  A    between atoms: C_28  and  C_29
REMARK   10  A    between atoms: C_29  and  C_31
REMARK   11  A    between atoms: C_29  and  O_32
REMARK                            x       y       z     vdW  Elec       q    Type
REMARK                         _______ _______ _______ _____ _____    ______ ____
ROOT
ATOM      1  C   UNL     1       0.036  -4.161   0.087  0.00  0.00    +0.004 A 
ATOM      2  C   UNL     1       1.072  -4.818  -0.490  0.00  0.00    +0.056 A 
ATOM      3  S   UNL     1       0.571  -6.527  -0.412  0.00  0.00    -0.076 S 
ATOM      4  C   UNL     1      -1.001  -6.322   0.385  0.00  0.00    +0.116 A 
ATOM      5  C   UNL     1      -1.098  -4.934   0.577  0.00  0.00    +0.080 A 
ATOM      6  C   UNL     1      -2.294  -4.480   1.220  0.00  0.00    +0.260 A 
ATOM      7  O   UNL     1      -2.472  -3.292   1.427  0.00  0.00    -0.267 OA
ATOM      8  N   UNL     1      -3.219  -5.384   1.592  0.00  0.00    -0.312 N 
ATOM      9  H   UNL     1      -4.031  -5.082   2.028  0.00  0.00    +0.170 HD
ATOM     10  C   UNL     1      -3.037  -6.711   1.369  0.00  0.00    +0.094 A 
ATOM     11  N   UNL     1      -1.962  -7.155   0.776  0.00  0.00    -0.229 NA
ENDROOT
BRANCH   1  16
ATOM     12  C   UNL     1       0.125   1.572   0.611  0.00  0.00    +0.044 C 
ATOM     13  C   UNL     1       0.102   0.071   0.474  0.00  0.00    -0.050 A 
ATOM     14  C   UNL     1       0.061  -0.505  -0.783  0.00  0.00    +0.004 A 
ATOM     15  C   UNL     1       0.040  -1.878  -0.915  0.00  0.00    +0.009 A 
ATOM     16  C   UNL     1       0.060  -2.685   0.222  0.00  0.00    -0.014 A 
ATOM     17  C   UNL     1       0.101  -2.099   1.486  0.00  0.00    -0.042 A 
ATOM     18  C   UNL     1       0.128  -0.724   1.605  0.00  0.00    +0.007 A 
ATOM     19  C   UNL     1       0.122  -2.964   2.719  0.00  0.00    +0.044 C 
ENDBRANCH   1  16
BRANCH  10  20
ATOM     20  C   UNL     1      -4.101  -7.687   1.802  0.00  0.00    -0.003 C 
BRANCH  20  21
ATOM     21  N   UNL     1      -3.627  -9.059   1.577  0.00  0.00    +0.391 N 
ATOM     22  H   UNL     1      -3.321  -9.156   0.620  0.00  0.00    -0.080 HD
BRANCH  21  23
ATOM     23  C   UNL     1      -2.506  -9.345   2.481  0.00  0.00    -0.002 C 
BRANCH  23  24
ATOM     24  C   UNL     1      -1.941 -10.706   2.166  0.00  0.00    +0.089 A 
ATOM     25  C   UNL     1      -0.952 -10.965   1.292  0.00  0.00    +0.042 A 
ATOM     26  C   UNL     1      -0.743 -12.363   1.311  0.00  0.00    +0.041 A 
ATOM     27  C   UNL     1      -1.616 -12.875   2.196  0.00  0.00    +0.195 A 
ATOM     28  O   UNL     1      -2.336 -11.867   2.715  0.00  0.00    -0.470 OA
ENDBRANCH  23  24
ENDBRANCH  21  23
BRANCH  21  29
ATOM     29  C   UNL     1      -4.721 -10.004   1.839  0.00  0.00    -0.046 C 
BRANCH  29  30
ATOM     30  C   UNL     1      -5.832  -9.797   0.808  0.00  0.00    +0.095 C 
ATOM     31  C   UNL     1      -6.978 -10.771   1.091  0.00  0.00    +0.035 C 
BRANCH  30  32
ATOM     32  O   UNL     1      -5.316 -10.037  -0.503  0.00  0.00    -0.394 OA
ATOM     33  H   UNL     1      -5.939  -9.834  -1.214  0.00  0.00    +0.210 HD
ENDBRANCH  30  32
ENDBRANCH  29  30
ENDBRANCH  21  29
ENDBRANCH  20  21
ENDBRANCH  10  20
TORSDOF 8
